@<TRIPOS>MOLECULE
*****
 64 68 0 0 0
SMALL
GASTEIGER

@<TRIPOS>ATOM
      1 C           7.8379    2.6845   -1.0296 C.3     1  UNL1        0.0124
      2 C           7.5091    1.8701    0.1810 C.2     1  UNL1        0.2126
      3 O           7.5900    2.4041    1.3126 O.2     1  UNL1       -0.2759
      4 N           7.1139    0.5180    0.0372 N.am    1  UNL1       -0.2987
      5 C           6.7917   -0.2831    1.2129 C.3     1  UNL1        0.0304
      6 C           6.0067   -1.4962    0.7426 C.3     1  UNL1        0.0280
      7 N           5.0592   -1.0408   -0.2227 N.pl3   1  UNL1       -0.3269
      8 C           3.6534   -1.0155   -0.0624 C.ar    1  UNL1        0.0300
      9 C           2.8141   -0.7317   -1.1202 C.ar    1  UNL1       -0.0372
     10 C           1.4260   -0.7016   -0.9541 C.ar    1  UNL1       -0.0182
     11 C           0.8774   -0.9580    0.2811 C.ar    1  UNL1        0.1207
     12 O          -0.4887   -0.9304    0.4528 O.3     1  UNL1       -0.4893
     13 C          -1.0438   -1.1901    1.7048 C.3     1  UNL1        0.1179
     14 C          -2.5491   -1.1191    1.7111 C.3     1  UNL1        0.1195
     15 C          -3.1704   -2.0200    0.6957 C.3     1  UNL1        0.0808
     16 O          -4.0304   -1.2364   -0.0735 O.3     1  UNL1       -0.3406
     17 C          -4.2269   -0.0690    0.6917 C.3     1  UNL1        0.2169
     18 C          -5.3457   -0.3186    1.6515 C.3     1  UNL1        0.0828
     19 N          -6.5877   -0.6356    0.9813 N.ar    1  UNL1       -0.3313
     20 C          -7.5167    0.2431    0.5933 C.ar    1  UNL1        0.0242
     21 C          -8.5719   -0.4440   -0.0185 C.ar    1  UNL1        0.0454
     22 N          -8.1954   -1.7448    0.0429 N.ar    1  UNL1       -0.2441
     23 C          -6.9967   -1.8677    0.6461 C.ar    1  UNL1        0.0961
     24 C          -4.4739    1.0754   -0.2374 C.ar    1  UNL1        0.0313
     25 C          -4.5311    0.8629   -1.6034 C.ar    1  UNL1       -0.0507
     26 C          -4.7798    1.8956   -2.4502 C.ar    1  UNL1       -0.0429
     27 C          -4.9867    3.1955   -2.0095 C.ar    1  UNL1        0.0424
     28 CL         -5.3070    4.5160   -3.1175 Cl      1  UNL1       -0.0835
     29 C          -4.9247    3.3817   -0.6511 C.ar    1  UNL1       -0.0246
     30 C          -4.6686    2.3269    0.2371 C.ar    1  UNL1        0.0507
     31 CL         -4.5818    2.7085    1.9662 Cl      1  UNL1       -0.0830
     32 O          -3.0320    0.1329    1.3348 O.3     1  UNL1       -0.3343
     33 C           1.6920   -1.2415    1.3433 C.ar    1  UNL1       -0.0182
     34 C           3.0835   -1.2672    1.1580 C.ar    1  UNL1       -0.0372
     35 C           5.5959   -0.5401   -1.5071 C.3     1  UNL1        0.0280
     36 C           7.0236   -0.0876   -1.2659 C.3     1  UNL1        0.0304
     37 H           8.6520    2.1954   -1.5964 H       1  UNL1        0.0323
     38 H           8.0965    3.7152   -0.7746 H       1  UNL1        0.0323
     39 H           6.9307    2.6378   -1.6763 H       1  UNL1        0.0323
     40 H           7.7407   -0.5943    1.6842 H       1  UNL1        0.0480
     41 H           6.1966    0.2743    1.9557 H       1  UNL1        0.0480
     42 H           6.7660   -2.1509    0.2387 H       1  UNL1        0.0479
     43 H           5.5679   -2.0687    1.5602 H       1  UNL1        0.0479
     44 H           3.2576   -0.5343   -2.0821 H       1  UNL1        0.0637
     45 H           0.8379   -0.4711   -1.8329 H       1  UNL1        0.0655
     46 H          -0.6080   -0.5027    2.4314 H       1  UNL1        0.0723
     47 H          -0.7837   -2.2238    2.0528 H       1  UNL1        0.0723
     48 H          -2.8855   -1.3182    2.7477 H       1  UNL1        0.0654
     49 H          -2.4105   -2.5202    0.0319 H       1  UNL1        0.0588
     50 H          -3.7584   -2.8055    1.2490 H       1  UNL1        0.0588
     51 H          -5.0261   -1.2368    2.2479 H       1  UNL1        0.0549
     52 H          -5.4139    0.4694    2.4046 H       1  UNL1        0.0549
     53 H          -7.5081    1.3103    0.7061 H       1  UNL1        0.0825
     54 H          -9.4695   -0.0498   -0.4395 H       1  UNL1        0.0845
     55 H          -6.5035   -2.8300    0.8018 H       1  UNL1        0.1029
     56 H          -4.3758   -0.1276   -1.9729 H       1  UNL1        0.0623
     57 H          -4.8351    1.7787   -3.5416 H       1  UNL1        0.0632
     58 H          -5.0794    4.3818   -0.2504 H       1  UNL1        0.0647
     59 H           1.3073   -1.4447    2.3115 H       1  UNL1        0.0655
     60 H           3.7275   -1.4863    1.9926 H       1  UNL1        0.0637
     61 H           5.0365    0.3895   -1.7839 H       1  UNL1        0.0479
     62 H           5.4984   -1.2907   -2.2923 H       1  UNL1        0.0479
     63 H           7.3271    0.6295   -2.0499 H       1  UNL1        0.0480
     64 H           7.6491   -1.0021   -1.2873 H       1  UNL1        0.0480
@<TRIPOS>BOND
     1     1     2    1
     2     2     3    2
     3     2     4   am
     4     4     5    1
     5     5     6    1
     6     6     7    1
     7     7     8    1
     8     8     9   ar
     9     9    10   ar
    10    10    11   ar
    11    11    12    1
    12    12    13    1
    13    13    14    1
    14    14    15    1
    15    15    16    1
    16    16    17    1
    17    17    18    1
    18    18    19    1
    19    19    20   ar
    20    20    21   ar
    21    21    22   ar
    22    22    23   ar
    23    17    24    1
    24    24    25   ar
    25    25    26   ar
    26    26    27   ar
    27    27    28    1
    28    27    29   ar
    29    29    30   ar
    30    30    31    1
    31    17    32    1
    32    11    33   ar
    33    33    34   ar
    34     7    35    1
    35    35    36    1
    36    36     4    1
    37    34     8   ar
    38    32    14    1
    39    23    19   ar
    40    30    24   ar
    41     1    37    1
    42     1    38    1
    43     1    39    1
    44     5    40    1
    45     5    41    1
    46     6    42    1
    47     6    43    1
    48     9    44    1
    49    10    45    1
    50    13    46    1
    51    13    47    1
    52    14    48    1
    53    15    49    1
    54    15    50    1
    55    18    51    1
    56    18    52    1
    57    20    53    1
    58    21    54    1
    59    23    55    1
    60    25    56    1
    61    26    57    1
    62    29    58    1
    63    33    59    1
    64    34    60    1
    65    35    61    1
    66    35    62    1
    67    36    63    1
    68    36    64    1
