
     RDKit          3D

 64 68  0  0  0  0  0  0  0  0999 V2000
    7.8379    2.6845   -1.0296 C   0  0  0  0  0  0  0  0  0  0  0  0
    7.5091    1.8701    0.1810 C   0  0  0  0  0  0  0  0  0  0  0  0
    7.5900    2.4041    1.3126 O   0  0  0  0  0  0  0  0  0  0  0  0
    7.1139    0.5180    0.0372 N   0  0  0  0  0  0  0  0  0  0  0  0
    6.7917   -0.2831    1.2129 C   0  0  0  0  0  0  0  0  0  0  0  0
    6.0067   -1.4962    0.7426 C   0  0  0  0  0  0  0  0  0  0  0  0
    5.0592   -1.0408   -0.2227 N   0  0  0  0  0  0  0  0  0  0  0  0
    3.6534   -1.0155   -0.0624 C   0  0  0  0  0  0  0  0  0  0  0  0
    2.8141   -0.7317   -1.1202 C   0  0  0  0  0  0  0  0  0  0  0  0
    1.4260   -0.7016   -0.9541 C   0  0  0  0  0  0  0  0  0  0  0  0
    0.8774   -0.9580    0.2811 C   0  0  0  0  0  0  0  0  0  0  0  0
   -0.4887   -0.9304    0.4528 O   0  0  0  0  0  0  0  0  0  0  0  0
   -1.0438   -1.1901    1.7048 C   0  0  0  0  0  0  0  0  0  0  0  0
   -2.5491   -1.1191    1.7111 C   0  0  0  0  0  0  0  0  0  0  0  0
   -3.1704   -2.0200    0.6957 C   0  0  0  0  0  0  0  0  0  0  0  0
   -4.0304   -1.2364   -0.0735 O   0  0  0  0  0  0  0  0  0  0  0  0
   -4.2269   -0.0690    0.6917 C   0  0  0  0  0  0  0  0  0  0  0  0
   -5.3457   -0.3186    1.6515 C   0  0  0  0  0  0  0  0  0  0  0  0
   -6.5877   -0.6356    0.9813 N   0  0  0  0  0  0  0  0  0  0  0  0
   -7.5167    0.2431    0.5933 C   0  0  0  0  0  0  0  0  0  0  0  0
   -8.5719   -0.4440   -0.0185 C   0  0  0  0  0  0  0  0  0  0  0  0
   -8.1954   -1.7448    0.0429 N   0  0  0  0  0  0  0  0  0  0  0  0
   -6.9967   -1.8677    0.6461 C   0  0  0  0  0  0  0  0  0  0  0  0
   -4.4739    1.0754   -0.2374 C   0  0  0  0  0  0  0  0  0  0  0  0
   -4.5311    0.8629   -1.6034 C   0  0  0  0  0  0  0  0  0  0  0  0
   -4.7798    1.8956   -2.4502 C   0  0  0  0  0  0  0  0  0  0  0  0
   -4.9867    3.1955   -2.0095 C   0  0  0  0  0  0  0  0  0  0  0  0
   -5.3070    4.5160   -3.1175 Cl  0  0  0  0  0  0  0  0  0  0  0  0
   -4.9247    3.3817   -0.6511 C   0  0  0  0  0  0  0  0  0  0  0  0
   -4.6686    2.3269    0.2371 C   0  0  0  0  0  0  0  0  0  0  0  0
   -4.5818    2.7085    1.9662 Cl  0  0  0  0  0  0  0  0  0  0  0  0
   -3.0320    0.1329    1.3348 O   0  0  0  0  0  0  0  0  0  0  0  0
    1.6920   -1.2415    1.3433 C   0  0  0  0  0  0  0  0  0  0  0  0
    3.0835   -1.2672    1.1580 C   0  0  0  0  0  0  0  0  0  0  0  0
    5.5959   -0.5401   -1.5071 C   0  0  0  0  0  0  0  0  0  0  0  0
    7.0236   -0.0876   -1.2659 C   0  0  0  0  0  0  0  0  0  0  0  0
    8.6520    2.1954   -1.5964 H   0  0  0  0  0  0  0  0  0  0  0  0
    8.0965    3.7152   -0.7746 H   0  0  0  0  0  0  0  0  0  0  0  0
    6.9307    2.6378   -1.6763 H   0  0  0  0  0  0  0  0  0  0  0  0
    7.7407   -0.5943    1.6842 H   0  0  0  0  0  0  0  0  0  0  0  0
    6.1966    0.2743    1.9557 H   0  0  0  0  0  0  0  0  0  0  0  0
    6.7660   -2.1509    0.2387 H   0  0  0  0  0  0  0  0  0  0  0  0
    5.5679   -2.0687    1.5602 H   0  0  0  0  0  0  0  0  0  0  0  0
    3.2576   -0.5343   -2.0821 H   0  0  0  0  0  0  0  0  0  0  0  0
    0.8379   -0.4711   -1.8329 H   0  0  0  0  0  0  0  0  0  0  0  0
   -0.6080   -0.5027    2.4314 H   0  0  0  0  0  0  0  0  0  0  0  0
   -0.7837   -2.2238    2.0528 H   0  0  0  0  0  0  0  0  0  0  0  0
   -2.8855   -1.3182    2.7477 H   0  0  0  0  0  0  0  0  0  0  0  0
   -2.4105   -2.5202    0.0319 H   0  0  0  0  0  0  0  0  0  0  0  0
   -3.7584   -2.8055    1.2490 H   0  0  0  0  0  0  0  0  0  0  0  0
   -5.0261   -1.2368    2.2479 H   0  0  0  0  0  0  0  0  0  0  0  0
   -5.4139    0.4694    2.4046 H   0  0  0  0  0  0  0  0  0  0  0  0
   -7.5081    1.3103    0.7061 H   0  0  0  0  0  0  0  0  0  0  0  0
   -9.4695   -0.0498   -0.4395 H   0  0  0  0  0  0  0  0  0  0  0  0
   -6.5035   -2.8300    0.8018 H   0  0  0  0  0  0  0  0  0  0  0  0
   -4.3758   -0.1276   -1.9729 H   0  0  0  0  0  0  0  0  0  0  0  0
   -4.8351    1.7787   -3.5416 H   0  0  0  0  0  0  0  0  0  0  0  0
   -5.0794    4.3818   -0.2504 H   0  0  0  0  0  0  0  0  0  0  0  0
    1.3073   -1.4447    2.3115 H   0  0  0  0  0  0  0  0  0  0  0  0
    3.7275   -1.4863    1.9926 H   0  0  0  0  0  0  0  0  0  0  0  0
    5.0365    0.3895   -1.7839 H   0  0  0  0  0  0  0  0  0  0  0  0
    5.4984   -1.2907   -2.2923 H   0  0  0  0  0  0  0  0  0  0  0  0
    7.3271    0.6295   -2.0499 H   0  0  0  0  0  0  0  0  0  0  0  0
    7.6491   -1.0021   -1.2873 H   0  0  0  0  0  0  0  0  0  0  0  0
  1  2  1  0
  2  3  2  0
  2  4  1  0
  4  5  1  0
  5  6  1  0
  6  7  1  0
  7  8  1  0
  8  9  2  0
  9 10  1  0
 10 11  2  0
 11 12  1  0
 12 13  1  0
 13 14  1  0
 14 15  1  0
 15 16  1  0
 16 17  1  0
 17 18  1  0
 18 19  1  0
 19 20  1  0
 20 21  2  0
 21 22  1  0
 22 23  2  0
 17 24  1  0
 24 25  2  0
 25 26  1  0
 26 27  2  0
 27 28  1  0
 27 29  1  0
 29 30  2  0
 30 31  1  0
 17 32  1  0
 11 33  1  0
 33 34  2  0
  7 35  1  0
 35 36  1  0
 36  4  1  0
 34  8  1  0
 32 14  1  0
 23 19  1  0
 30 24  1  0
  1 37  1  0
  1 38  1  0
  1 39  1  0
  5 40  1  0
  5 41  1  0
  6 42  1  0
  6 43  1  0
  9 44  1  0
 10 45  1  0
 13 46  1  0
 13 47  1  0
 14 48  1  0
 15 49  1  0
 15 50  1  0
 18 51  1  0
 18 52  1  0
 20 53  1  0
 21 54  1  0
 23 55  1  0
 25 56  1  0
 26 57  1  0
 29 58  1  0
 33 59  1  0
 34 60  1  0
 35 61  1  0
 35 62  1  0
 36 63  1  0
 36 64  1  0
M  END
$$$$
