
     RDKit          3D

 59 63  0  0  0  0  0  0  0  0999 V2000
    6.6826    4.2691   -0.2681 C   0  0  0  0  0  0  0  0  0  0  0  0
    5.8938    3.7024    0.7635 O   0  0  0  0  0  0  0  0  0  0  0  0
    5.3389    2.4414    0.5191 C   0  0  0  0  0  0  0  0  0  0  0  0
    5.5004    1.7210   -0.6325 C   0  0  0  0  0  0  0  0  0  0  0  0
    4.9016    0.4860   -0.7548 C   0  0  0  0  0  0  0  0  0  0  0  0
    4.1417    0.0029    0.3095 C   0  0  0  0  0  0  0  0  0  0  0  0
    3.9811    0.7341    1.4715 C   0  0  0  0  0  0  0  0  0  0  0  0
    4.5890    1.9758    1.5818 C   0  0  0  0  0  0  0  0  0  0  0  0
    3.5837   -1.2875    0.0386 N   0  0  0  0  0  0  0  0  0  0  0  0
    4.3027   -2.3490   -0.2891 N   0  0  0  0  0  0  0  0  0  0  0  0
    3.5042   -3.4144   -0.4827 C   0  0  0  0  0  0  0  0  0  0  0  0
    3.9387   -4.7699   -0.8581 C   0  0  0  0  0  0  0  0  0  0  0  0
    5.3058   -5.0328   -1.0453 N   0  0  0  0  0  0  0  0  0  0  0  0
    3.0981   -5.6972   -1.0135 O   0  0  0  0  0  0  0  0  0  0  0  0
    2.2216   -2.9695   -0.2580 C   0  0  0  0  0  0  0  0  0  0  0  0
    2.2795   -1.6318    0.0691 C   0  0  0  0  0  0  0  0  0  0  0  0
    1.0631   -0.8857    0.3627 C   0  0  0  0  0  0  0  0  0  0  0  0
    1.1107    0.3307    0.6606 O   0  0  0  0  0  0  0  0  0  0  0  0
   -0.1434   -1.6404    0.2825 N   0  0  0  0  0  0  0  0  0  0  0  0
   -0.2289   -3.0686    0.1892 C   0  0  0  0  0  0  0  0  0  0  0  0
    0.9786   -3.7548   -0.3425 C   0  0  0  0  0  0  0  0  0  0  0  0
   -1.3846   -0.9034    0.2965 C   0  0  0  0  0  0  0  0  0  0  0  0
   -2.0294   -0.6147    1.4877 C   0  0  0  0  0  0  0  0  0  0  0  0
   -3.2167    0.0929    1.4678 C   0  0  0  0  0  0  0  0  0  0  0  0
   -3.7896    0.5283    0.2786 C   0  0  0  0  0  0  0  0  0  0  0  0
   -3.1235    0.2259   -0.8996 C   0  0  0  0  0  0  0  0  0  0  0  0
   -1.9197   -0.4893   -0.9071 C   0  0  0  0  0  0  0  0  0  0  0  0
   -5.0088    1.2598    0.1972 N   0  0  0  0  0  0  0  0  0  0  0  0
   -6.2818    0.5335    0.0685 C   0  0  0  0  0  0  0  0  0  0  0  0
   -7.1988    1.2939   -0.8417 C   0  0  0  0  0  0  0  0  0  0  0  0
   -7.5106    2.6847   -0.3860 C   0  0  0  0  0  0  0  0  0  0  0  0
   -6.4324    3.3141    0.4444 C   0  0  0  0  0  0  0  0  0  0  0  0
   -5.1042    2.6957    0.2314 C   0  0  0  0  0  0  0  0  0  0  0  0
   -3.9996    3.2854    0.0692 O   0  0  0  0  0  0  0  0  0  0  0  0
    6.0705    4.6411   -1.1255 H   0  0  0  0  0  0  0  0  0  0  0  0
    7.3928    3.5005   -0.5905 H   0  0  0  0  0  0  0  0  0  0  0  0
    7.2389    5.1375    0.1562 H   0  0  0  0  0  0  0  0  0  0  0  0
    6.1013    2.1535   -1.4173 H   0  0  0  0  0  0  0  0  0  0  0  0
    5.0657   -0.0253   -1.6770 H   0  0  0  0  0  0  0  0  0  0  0  0
    3.3737    0.2632    2.2267 H   0  0  0  0  0  0  0  0  0  0  0  0
    4.4209    2.4935    2.5196 H   0  0  0  0  0  0  0  0  0  0  0  0
    6.0364   -5.5765   -0.5242 H   0  0  0  0  0  0  0  0  0  0  0  0
    6.1777   -4.9212   -1.5950 H   0  0  0  0  0  0  0  0  0  0  0  0
   -0.5446   -3.4761    1.1833 H   0  0  0  0  0  0  0  0  0  0  0  0
   -1.0807   -3.2904   -0.5112 H   0  0  0  0  0  0  0  0  0  0  0  0
    1.1414   -4.6844    0.2740 H   0  0  0  0  0  0  0  0  0  0  0  0
    0.8186   -4.1234   -1.3968 H   0  0  0  0  0  0  0  0  0  0  0  0
   -1.6294   -0.9277    2.4306 H   0  0  0  0  0  0  0  0  0  0  0  0
   -3.7645    0.3469    2.3692 H   0  0  0  0  0  0  0  0  0  0  0  0
   -3.5176    0.5350   -1.8378 H   0  0  0  0  0  0  0  0  0  0  0  0
   -1.3887   -0.7327   -1.8165 H   0  0  0  0  0  0  0  0  0  0  0  0
   -6.7519    0.3249    1.0317 H   0  0  0  0  0  0  0  0  0  0  0  0
   -6.0357   -0.4211   -0.4439 H   0  0  0  0  0  0  0  0  0  0  0  0
   -8.1699    0.7251   -0.8552 H   0  0  0  0  0  0  0  0  0  0  0  0
   -6.8317    1.2520   -1.8965 H   0  0  0  0  0  0  0  0  0  0  0  0
   -8.5003    2.7405    0.1345 H   0  0  0  0  0  0  0  0  0  0  0  0
   -7.6565    3.3163   -1.3030 H   0  0  0  0  0  0  0  0  0  0  0  0
   -6.6939    3.2685    1.5236 H   0  0  0  0  0  0  0  0  0  0  0  0
   -6.3164    4.4115    0.2171 H   0  0  0  0  0  0  0  0  0  0  0  0
  1  2  1  0
  2  3  1  0
  3  4  2  0
  4  5  1  0
  5  6  2  0
  6  7  1  0
  7  8  2  0
  6  9  1  0
  9 10  1  0
 10 11  2  0
 11 12  1  0
 12 13  1  0
 12 14  2  0
 11 15  1  0
 15 16  2  0
 16 17  1  0
 17 18  2  0
 17 19  1  0
 19 20  1  0
 20 21  1  0
 19 22  1  0
 22 23  2  0
 23 24  1  0
 24 25  2  0
 25 26  1  0
 26 27  2  0
 25 28  1  0
 28 29  1  0
 29 30  1  0
 30 31  1  0
 31 32  1  0
 32 33  1  0
 33 34  2  0
  8  3  1  0
 16  9  1  0
 27 22  1  0
 33 28  1  0
 21 15  1  0
  1 35  1  0
  1 36  1  0
  1 37  1  0
  4 38  1  0
  5 39  1  0
  7 40  1  0
  8 41  1  0
 13 42  1  0
 13 43  1  0
 20 44  1  0
 20 45  1  0
 21 46  1  0
 21 47  1  0
 23 48  1  0
 24 49  1  0
 26 50  1  0
 27 51  1  0
 29 52  1  0
 29 53  1  0
 30 54  1  0
 30 55  1  0
 31 56  1  0
 31 57  1  0
 32 58  1  0
 32 59  1  0
M  END
$$$$
