@<TRIPOS>MOLECULE
*****
 24 24 0 0 0
SMALL
GASTEIGER

@<TRIPOS>ATOM
      1 C          -1.5910    0.3517   -0.2999 C.3     1  UNL1        0.1172
      2 O          -2.7258    0.6728    0.4508 O.3     1  UNL1       -0.3858
      3 C          -0.9893   -0.8691    0.3644 C.3     1  UNL1        0.0983
      4 O          -1.8161   -1.9524    0.2354 O.3     1  UNL1       -0.3879
      5 C           0.3485   -1.0535   -0.3657 C.3     1  UNL1        0.0591
      6 S           1.1155   -2.6224    0.0606 S.3     1  UNL1       -0.1696
      7 C           1.1517    0.1370    0.0623 C.3     1  UNL1        0.0972
      8 C           2.6182   -0.0162   -0.1939 C.3     1  UNL1        0.0716
      9 O           3.3022    1.0843    0.2602 O.3     1  UNL1       -0.3924
     10 O           0.6623    1.2447   -0.5790 O.3     1  UNL1       -0.3570
     11 C          -0.6603    1.5088   -0.3705 C.3     1  UNL1        0.1301
     12 S          -0.9343    2.5497    1.1040 S.3     1  UNL1       -0.1447
     13 H          -1.9113    0.0183   -1.3226 H       1  UNL1        0.0654
     14 H          -3.2773   -0.1683    0.4886 H       1  UNL1        0.2100
     15 H          -0.7753   -0.5870    1.4046 H       1  UNL1        0.0632
     16 H          -2.0095   -2.2961    1.1505 H       1  UNL1        0.2099
     17 H           0.1664   -0.9954   -1.4585 H       1  UNL1        0.0462
     18 H           0.4488   -3.6284   -0.6695 H       1  UNL1        0.1021
     19 H           1.0281    0.2738    1.1576 H       1  UNL1        0.0631
     20 H           2.9891   -0.9072    0.3482 H       1  UNL1        0.0583
     21 H           2.7864   -0.2296   -1.2687 H       1  UNL1        0.0583
     22 H           3.0918    1.9239   -0.1818 H       1  UNL1        0.2095
     23 H          -1.0105    2.1297   -1.2431 H       1  UNL1        0.0737
     24 H          -2.0085    3.4310    0.8659 H       1  UNL1        0.1042
@<TRIPOS>BOND
     1     1     2    1
     2     1     3    1
     3     3     4    1
     4     3     5    1
     5     5     6    1
     6     5     7    1
     7     7     8    1
     8     8     9    1
     9     7    10    1
    10    10    11    1
    11    11    12    1
    12    11     1    1
    13     1    13    1
    14     2    14    1
    15     3    15    1
    16     4    16    1
    17     5    17    1
    18     6    18    1
    19     7    19    1
    20     8    20    1
    21     8    21    1
    22     9    22    1
    23    11    23    1
    24    12    24    1
