
     RDKit          3D

 24 24  0  0  0  0  0  0  0  0999 V2000
   -1.5910    0.3517   -0.2999 C   0  0  2  0  0  0  0  0  0  0  0  0
   -2.7258    0.6728    0.4508 O   0  0  0  0  0  0  0  0  0  0  0  0
   -0.9893   -0.8691    0.3644 C   0  0  1  0  0  0  0  0  0  0  0  0
   -1.8161   -1.9524    0.2354 O   0  0  0  0  0  0  0  0  0  0  0  0
    0.3485   -1.0535   -0.3657 C   0  0  2  0  0  0  0  0  0  0  0  0
    1.1155   -2.6224    0.0606 S   0  0  0  0  0  0  0  0  0  0  0  0
    1.1517    0.1370    0.0623 C   0  0  1  0  0  0  0  0  0  0  0  0
    2.6182   -0.0162   -0.1939 C   0  0  0  0  0  0  0  0  0  0  0  0
    3.3022    1.0843    0.2602 O   0  0  0  0  0  0  0  0  0  0  0  0
    0.6623    1.2447   -0.5790 O   0  0  0  0  0  0  0  0  0  0  0  0
   -0.6603    1.5088   -0.3705 C   0  0  2  0  0  0  0  0  0  0  0  0
   -0.9343    2.5497    1.1040 S   0  0  0  0  0  0  0  0  0  0  0  0
   -1.9113    0.0183   -1.3226 H   0  0  0  0  0  0  0  0  0  0  0  0
   -3.2773   -0.1683    0.4886 H   0  0  0  0  0  0  0  0  0  0  0  0
   -0.7753   -0.5870    1.4046 H   0  0  0  0  0  0  0  0  0  0  0  0
   -2.0095   -2.2961    1.1505 H   0  0  0  0  0  0  0  0  0  0  0  0
    0.1664   -0.9954   -1.4585 H   0  0  0  0  0  0  0  0  0  0  0  0
    0.4488   -3.6284   -0.6695 H   0  0  0  0  0  0  0  0  0  0  0  0
    1.0281    0.2738    1.1576 H   0  0  0  0  0  0  0  0  0  0  0  0
    2.9891   -0.9072    0.3482 H   0  0  0  0  0  0  0  0  0  0  0  0
    2.7864   -0.2296   -1.2687 H   0  0  0  0  0  0  0  0  0  0  0  0
    3.0918    1.9239   -0.1818 H   0  0  0  0  0  0  0  0  0  0  0  0
   -1.0105    2.1297   -1.2431 H   0  0  0  0  0  0  0  0  0  0  0  0
   -2.0085    3.4310    0.8659 H   0  0  0  0  0  0  0  0  0  0  0  0
  1  2  1  0
  1  3  1  0
  3  4  1  0
  3  5  1  0
  5  6  1  0
  5  7  1  0
  7  8  1  0
  8  9  1  0
  7 10  1  0
 10 11  1  0
 11 12  1  0
 11  1  1  0
  1 13  1  6
  2 14  1  0
  3 15  1  1
  4 16  1  0
  5 17  1  6
  6 18  1  0
  7 19  1  1
  8 20  1  0
  8 21  1  0
  9 22  1  0
 11 23  1  6
 12 24  1  0
M  END
$$$$
