@<TRIPOS>MOLECULE
*****
 34 34 0 0 0
SMALL
GASTEIGER

@<TRIPOS>ATOM
      1 C          -0.3242   -0.3575   -2.9434 C.3     1  UNL1       -0.0424
      2 C          -0.6312   -0.7230   -1.4633 C.3     1  UNL1        0.0687
      3 N          -1.0622    0.5066   -0.8605 N.3     1  UNL1       -0.3022
      4 C          -1.7979    0.3539    0.3702 C.3     1  UNL1        0.0114
      5 C          -2.0607    1.7418    0.9235 C.3     1  UNL1       -0.0473
      6 C          -1.1797   -0.4865    1.4189 C.3     1  UNL1       -0.0473
      7 C          -3.1929   -0.2169    0.0955 C.3     1  UNL1       -0.0473
      8 C           0.7200   -1.1609   -0.9589 C.2     1  UNL1        0.1797
      9 O           0.9050   -2.3446   -1.4244 O.2     1  UNL1       -0.2904
     10 C           1.7346   -0.5351   -0.1290 C.ar    1  UNL1        0.0204
     11 C           1.7493    0.7343    0.4067 C.ar    1  UNL1       -0.0328
     12 C           2.7428    1.2656    1.1938 C.ar    1  UNL1        0.0416
     13 CL          2.5710    2.8936    1.7726 Cl      1  UNL1       -0.0835
     14 C           3.8042    0.4266    1.4500 C.ar    1  UNL1       -0.0433
     15 C           3.8421   -0.8491    0.9414 C.ar    1  UNL1       -0.0597
     16 C           2.8273   -1.3222    0.1664 C.ar    1  UNL1       -0.0511
     17 H          -1.2206   -0.5303   -3.5738 H       1  UNL1        0.0249
     18 H           0.0108    0.6988   -3.0138 H       1  UNL1        0.0249
     19 H           0.4844   -0.9821   -3.3473 H       1  UNL1        0.0249
     20 H          -1.3365   -1.5361   -1.4723 H       1  UNL1        0.0540
     21 H          -1.6637    0.9929   -1.5442 H       1  UNL1        0.1231
     22 H          -2.5511    2.3891    0.1547 H       1  UNL1        0.0247
     23 H          -2.6444    1.6739    1.8588 H       1  UNL1        0.0247
     24 H          -1.0929    2.2036    1.2036 H       1  UNL1        0.0247
     25 H          -0.5160    0.1042    2.0765 H       1  UNL1        0.0247
     26 H          -2.0108   -0.8280    2.1091 H       1  UNL1        0.0247
     27 H          -0.7398   -1.4345    1.0502 H       1  UNL1        0.0247
     28 H          -3.7039    0.3049   -0.7149 H       1  UNL1        0.0247
     29 H          -3.0574   -1.2911   -0.0107 H       1  UNL1        0.0247
     30 H          -3.7509   -0.0408    1.0453 H       1  UNL1        0.0247
     31 H           0.8972    1.3387    0.1677 H       1  UNL1        0.0639
     32 H           4.6035    0.8246    2.0710 H       1  UNL1        0.0632
     33 H           4.6985   -1.4608    1.1751 H       1  UNL1        0.0618
     34 H           2.9461   -2.3535   -0.1946 H       1  UNL1        0.0625
@<TRIPOS>BOND
     1     1     2    1
     2     2     3    1
     3     3     4    1
     4     4     5    1
     5     4     6    1
     6     4     7    1
     7     2     8    1
     8     8     9    2
     9     8    10    1
    10    10    11   ar
    11    11    12   ar
    12    12    13    1
    13    12    14   ar
    14    14    15   ar
    15    15    16   ar
    16    16    10   ar
    17     1    17    1
    18     1    18    1
    19     1    19    1
    20     2    20    1
    21     3    21    1
    22     5    22    1
    23     5    23    1
    24     5    24    1
    25     6    25    1
    26     6    26    1
    27     6    27    1
    28     7    28    1
    29     7    29    1
    30     7    30    1
    31    11    31    1
    32    14    32    1
    33    15    33    1
    34    16    34    1
