@<TRIPOS>MOLECULE
*****
 59 60 0 0 0
SMALL
GASTEIGER

@<TRIPOS>ATOM
      1 C           8.6392    1.3790    1.3593 C.3     1  UNL1       -0.0639
      2 C           7.1804    1.2228    0.9574 C.3     1  UNL1       -0.0402
      3 C           7.1479    0.9701   -0.5193 C.3     1  UNL1        0.0114
      4 N           5.8124    0.8082   -1.0051 N.am    1  UNL1       -0.3131
      5 C           4.9484   -0.2077   -0.5515 C.2     1  UNL1        0.2450
      6 O           5.3004   -1.0336    0.3076 O.2     1  UNL1       -0.2729
      7 C           3.5591   -0.2941   -1.1250 C.3     1  UNL1        0.1698
      8 O           3.1656   -1.6524   -1.3889 O.3     1  UNL1       -0.3487
      9 C           2.5489   -0.8846   -0.2502 C.3     1  UNL1        0.1698
     10 C           1.1266   -0.6491   -0.5923 C.2     1  UNL1        0.2456
     11 O           0.8292   -0.0755   -1.6669 O.2     1  UNL1       -0.2728
     12 N           0.1080   -1.0657    0.2821 N.am    1  UNL1       -0.3015
     13 C          -1.3155   -0.8265   -0.0670 C.3     1  UNL1        0.1022
     14 C          -1.9186   -0.0978    1.0543 C.2     1  UNL1        0.2368
     15 O          -1.2762   -0.0745    2.1699 O.2     1  UNL1       -0.2735
     16 N          -3.1441    0.5917    1.0366 N.am    1  UNL1       -0.2865
     17 C          -3.7154    1.2370    2.2366 C.3     1  UNL1        0.0157
     18 C          -5.1443    0.7879    2.1527 C.3     1  UNL1       -0.0349
     19 C          -5.4207    0.6932    0.6697 C.3     1  UNL1       -0.0225
     20 C          -4.0901    0.8992   -0.0111 C.3     1  UNL1        0.1230
     21 C          -4.0165    2.3429   -0.4287 C.2     1  UNL1        0.3276
     22 O          -3.1356    3.0979    0.0337 O.2     1  UNL1       -0.2487
     23 O          -4.9071    2.8786   -1.3253 O.3     1  UNL1       -0.4666
     24 C          -4.8656    4.2409   -1.7419 C.3     1  UNL1        0.0817
     25 C          -1.8405   -2.2397   -0.2415 C.3     1  UNL1       -0.0171
     26 C          -3.2537   -2.3919   -0.5971 C.3     1  UNL1       -0.0603
     27 C          -0.9371   -2.8919   -1.2933 C.3     1  UNL1       -0.0512
     28 C          -1.3409   -4.3066   -1.5712 C.3     1  UNL1       -0.0650
     29 H           8.9925    2.3813    1.0363 H       1  UNL1        0.0230
     30 H           8.6992    1.2474    2.4599 H       1  UNL1        0.0230
     31 H           9.2515    0.5910    0.8947 H       1  UNL1        0.0230
     32 H           6.6198    2.1494    1.2194 H       1  UNL1        0.0278
     33 H           6.7091    0.3920    1.4892 H       1  UNL1        0.0278
     34 H           7.6426    1.8230   -1.0447 H       1  UNL1        0.0462
     35 H           7.7484    0.0636   -0.7364 H       1  UNL1        0.0462
     36 H           5.4336    1.4750   -1.7436 H       1  UNL1        0.1488
     37 H           3.2488    0.4282   -1.8776 H       1  UNL1        0.0725
     38 H           2.8060   -1.3852    0.6876 H       1  UNL1        0.0725
     39 H           0.3392   -1.5392    1.1701 H       1  UNL1        0.1495
     40 H          -1.3250   -0.3199   -1.0355 H       1  UNL1        0.0597
     41 H          -3.6537    2.3070    2.0943 H       1  UNL1        0.0465
     42 H          -3.2061    0.8703    3.1540 H       1  UNL1        0.0465
     43 H          -5.1906   -0.2474    2.5607 H       1  UNL1        0.0281
     44 H          -5.8458    1.4563    2.6756 H       1  UNL1        0.0281
     45 H          -5.8789   -0.2839    0.4022 H       1  UNL1        0.0289
     46 H          -6.1220    1.5374    0.4279 H       1  UNL1        0.0289
     47 H          -3.9915    0.2537   -0.9131 H       1  UNL1        0.0616
     48 H          -3.9022    4.5224   -2.1667 H       1  UNL1        0.0661
     49 H          -5.6983    4.4297   -2.4366 H       1  UNL1        0.0661
     50 H          -5.0864    4.8424   -0.8163 H       1  UNL1        0.0661
     51 H          -1.6300   -2.7809    0.7019 H       1  UNL1        0.0321
     52 H          -3.8974   -1.9813    0.2228 H       1  UNL1        0.0233
     53 H          -3.4970   -3.4771   -0.6248 H       1  UNL1        0.0233
     54 H          -3.5398   -2.0005   -1.5935 H       1  UNL1        0.0233
     55 H           0.0783   -2.8882   -0.8549 H       1  UNL1        0.0266
     56 H          -0.8973   -2.2713   -2.2108 H       1  UNL1        0.0266
     57 H          -0.4256   -4.9144   -1.7396 H       1  UNL1        0.0230
     58 H          -1.8923   -4.7504   -0.7347 H       1  UNL1        0.0230
     59 H          -1.9332   -4.3879   -2.5235 H       1  UNL1        0.0230
@<TRIPOS>BOND
     1     1     2    1
     2     2     3    1
     3     3     4    1
     4     4     5   am
     5     5     6    2
     6     5     7    1
     7     7     8    1
     8     8     9    1
     9     9    10    1
    10    10    11    2
    11    10    12   am
    12    12    13    1
    13    13    14    1
    14    14    15    2
    15    14    16   am
    16    16    17    1
    17    17    18    1
    18    18    19    1
    19    19    20    1
    20    20    21    1
    21    21    22    2
    22    21    23    1
    23    23    24    1
    24    13    25    1
    25    25    26    1
    26    25    27    1
    27    27    28    1
    28     9     7    1
    29    20    16    1
    30     1    29    1
    31     1    30    1
    32     1    31    1
    33     2    32    1
    34     2    33    1
    35     3    34    1
    36     3    35    1
    37     4    36    1
    38     7    37    1
    39     9    38    1
    40    12    39    1
    41    13    40    1
    42    17    41    1
    43    17    42    1
    44    18    43    1
    45    18    44    1
    46    19    45    1
    47    19    46    1
    48    20    47    1
    49    24    48    1
    50    24    49    1
    51    24    50    1
    52    25    51    1
    53    26    52    1
    54    26    53    1
    55    26    54    1
    56    27    55    1
    57    27    56    1
    58    28    57    1
    59    28    58    1
    60    28    59    1
