@<TRIPOS>MOLECULE
*****
 38 40 0 0 0
SMALL
GASTEIGER

@<TRIPOS>ATOM
      1 O           0.9105   -3.2183    0.3610 O.3     1  UNL1       -0.4771
      2 C          -0.1034   -2.3380    0.5953 C.2     1  UNL1        0.3387
      3 O          -0.7279   -3.3012    1.1035 O.2     1  UNL1       -0.2451
      4 C          -0.6337   -0.9899    0.5033 C.ar    1  UNL1        0.0834
      5 C           0.1718   -0.0476   -0.0835 C.ar    1  UNL1        0.0479
      6 N           1.4710   -0.2069   -0.6253 N.am    1  UNL1       -0.2807
      7 C           2.6164   -0.0124    0.2293 C.2     1  UNL1        0.2497
      8 O           2.3102    0.2874    1.4322 O.2     1  UNL1       -0.2698
      9 C           4.0415   -0.1009   -0.0581 C.ar    1  UNL1        0.0554
     10 C           4.8293   -1.1248   -0.5351 C.ar    1  UNL1        0.0544
     11 CL          3.9460   -2.5802   -0.8580 Cl      1  UNL1       -0.0827
     12 C           6.1804   -0.9189   -0.7104 C.ar    1  UNL1       -0.0243
     13 C           6.8019    0.2788   -0.4298 C.ar    1  UNL1        0.0424
     14 CL          8.5318    0.3904   -0.7039 Cl      1  UNL1       -0.0835
     15 C           6.0202    1.3092    0.0482 C.ar    1  UNL1       -0.0426
     16 C           4.6626    1.1152    0.2285 C.ar    1  UNL1       -0.0468
     17 C          -0.3256    1.2446   -0.1745 C.ar    1  UNL1       -0.0362
     18 C          -1.5824    1.5032    0.3228 C.ar    1  UNL1       -0.0174
     19 C          -2.3415    0.5044    0.9025 C.ar    1  UNL1        0.1328
     20 O          -3.6068    0.8246    1.3888 O.3     1  UNL1       -0.4236
     21 C          -4.7399    0.7495    0.6247 C.ar    1  UNL1        0.3233
     22 N          -5.8483    1.0947    1.2659 N.ar    1  UNL1       -0.2030
     23 C          -7.0725    1.0999    0.7265 C.ar    1  UNL1        0.0344
     24 C          -7.2097    0.7210   -0.5930 C.ar    1  UNL1       -0.0252
     25 C          -6.0601    0.3548   -1.2849 C.ar    1  UNL1        0.0344
     26 N          -4.8437    0.3728   -0.6721 N.ar    1  UNL1       -0.2030
     27 C          -1.8910   -0.7944    1.0161 C.ar    1  UNL1       -0.0035
     28 H           1.7236   -3.3796    0.9771 H       1  UNL1        0.2954
     29 H           1.7827   -0.4603   -1.6110 H       1  UNL1        0.1552
     30 H           6.7171   -1.7739   -1.0867 H       1  UNL1        0.0647
     31 H           6.5542    2.2259    0.2525 H       1  UNL1        0.0632
     32 H           4.1923    2.0271    0.6117 H       1  UNL1        0.0626
     33 H           0.2065    2.0759   -0.6127 H       1  UNL1        0.0637
     34 H          -1.9950    2.5034    0.2647 H       1  UNL1        0.0655
     35 H          -7.9694    1.3917    1.2860 H       1  UNL1        0.0832
     36 H          -8.1786    0.7104   -1.0687 H       1  UNL1        0.0648
     37 H          -6.0943    0.0475   -2.3201 H       1  UNL1        0.0832
     38 H          -2.4464   -1.5849    1.4547 H       1  UNL1        0.0663
@<TRIPOS>BOND
     1     1     2    1
     2     2     3    2
     3     2     4    1
     4     4     5   ar
     5     5     6    1
     6     6     7   am
     7     7     8    2
     8     7     9    1
     9     9    10   ar
    10    10    11    1
    11    10    12   ar
    12    12    13   ar
    13    13    14    1
    14    13    15   ar
    15    15    16   ar
    16     5    17   ar
    17    17    18   ar
    18    18    19   ar
    19    19    20    1
    20    20    21    1
    21    21    22   ar
    22    22    23   ar
    23    23    24   ar
    24    24    25   ar
    25    25    26   ar
    26    19    27   ar
    27    27     4   ar
    28    16     9   ar
    29    26    21   ar
    30     1    28    1
    31     6    29    1
    32    12    30    1
    33    15    31    1
    34    16    32    1
    35    17    33    1
    36    18    34    1
    37    23    35    1
    38    24    36    1
    39    25    37    1
    40    27    38    1
