
     RDKit          3D

 32 34  0  0  0  0  0  0  0  0999 V2000
   -2.0068    1.5213    0.3020 O   0  0  0  0  0  0  0  0  0  0  0  0
   -2.4504    0.3618    0.0525 C   0  0  0  0  0  0  0  0  0  0  0  0
   -1.5856   -0.7650    0.1443 N   0  0  0  0  0  0  0  0  0  0  0  0
   -0.2156   -0.6151    0.5151 C   0  0  0  0  0  0  0  0  0  0  0  0
    0.1194   -0.6819    1.8592 C   0  0  0  0  0  0  0  0  0  0  0  0
    1.4071   -0.5417    2.2160 N   0  0  0  0  0  0  0  0  0  0  0  0
    2.3601   -0.3401    1.2960 C   0  0  0  0  0  0  0  0  0  0  0  0
    2.0471   -0.2708   -0.0426 C   0  0  0  0  0  0  0  0  0  0  0  0
    3.0387   -0.0598   -1.0160 O   0  0  0  0  0  0  0  0  0  0  0  0
    4.3608    0.0889   -0.7065 C   0  0  0  0  0  0  0  0  0  0  0  0
    5.2415   -0.9719   -0.6302 C   0  0  0  0  0  0  0  0  0  0  0  0
    6.5430   -0.8206   -0.3249 N   0  0  0  0  0  0  0  0  0  0  0  0
    7.0215    0.4120   -0.0809 C   0  0  0  0  0  0  0  0  0  0  0  0
    6.1810    1.4559   -0.1503 N   0  0  0  0  0  0  0  0  0  0  0  0
    4.8800    1.3428   -0.4511 C   0  0  0  0  0  0  0  0  0  0  0  0
    0.7566   -0.4123   -0.3889 N   0  0  0  0  0  0  0  0  0  0  0  0
   -3.8450    0.1925   -0.3269 C   0  0  0  0  0  0  0  0  0  0  0  0
   -4.6757    1.2886   -0.4136 C   0  0  0  0  0  0  0  0  0  0  0  0
   -5.9811    1.0997   -0.7724 C   0  0  0  0  0  0  0  0  0  0  0  0
   -7.0680    2.4548   -0.8950 Cl  0  0  0  0  0  0  0  0  0  0  0  0
   -6.4222   -0.1875   -1.0360 C   0  0  0  0  0  0  0  0  0  0  0  0
   -5.5826   -1.2775   -0.9464 C   0  0  0  0  0  0  0  0  0  0  0  0
   -4.3097   -1.0561   -0.5922 N   0  0  0  0  0  0  0  0  0  0  0  0
   -1.9888   -1.6986   -0.0685 H   0  0  0  0  0  0  0  0  0  0  0  0
   -0.6775   -0.8464    2.5790 H   0  0  0  0  0  0  0  0  0  0  0  0
    3.4048   -0.2265    1.5869 H   0  0  0  0  0  0  0  0  0  0  0  0
    4.8504   -1.9470   -0.8260 H   0  0  0  0  0  0  0  0  0  0  0  0
    8.0851    0.5434    0.1694 H   0  0  0  0  0  0  0  0  0  0  0  0
    4.2480    2.2237   -0.4925 H   0  0  0  0  0  0  0  0  0  0  0  0
   -4.2704    2.2810   -0.1935 H   0  0  0  0  0  0  0  0  0  0  0  0
   -7.4610   -0.3000   -1.3171 H   0  0  0  0  0  0  0  0  0  0  0  0
   -6.0047   -2.2473   -1.1682 H   0  0  0  0  0  0  0  0  0  0  0  0
  1  2  2  0
  2  3  1  0
  3  4  1  0
  4  5  2  0
  5  6  1  0
  6  7  2  0
  7  8  1  0
  8  9  1  0
  9 10  1  0
 10 11  2  0
 11 12  1  0
 12 13  2  0
 13 14  1  0
 14 15  2  0
  8 16  2  0
  2 17  1  0
 17 18  2  0
 18 19  1  0
 19 20  1  0
 19 21  2  0
 21 22  1  0
 22 23  2  0
 16  4  1  0
 23 17  1  0
 15 10  1  0
  3 24  1  0
  5 25  1  0
  7 26  1  0
 11 27  1  0
 13 28  1  0
 15 29  1  0
 18 30  1  0
 21 31  1  0
 22 32  1  0
M  END
$$$$
