@<TRIPOS>MOLECULE
*****
 32 34 0 0 0
SMALL
GASTEIGER

@<TRIPOS>ATOM
      1 O          -2.0068    1.5213    0.3020 O.2     1  UNL1       -0.2681
      2 C          -2.4504    0.3618    0.0525 C.2     1  UNL1        0.2677
      3 N          -1.5856   -0.7650    0.1443 N.am    1  UNL1       -0.2638
      4 C          -0.2156   -0.6151    0.5151 C.ar    1  UNL1        0.1473
      5 C           0.1194   -0.6819    1.8592 C.ar    1  UNL1        0.0679
      6 N           1.4071   -0.5417    2.2160 N.ar    1  UNL1       -0.2546
      7 C           2.3601   -0.3401    1.2960 C.ar    1  UNL1        0.0896
      8 C           2.0471   -0.2708   -0.0426 C.ar    1  UNL1        0.2407
      9 O           3.0387   -0.0598   -1.0160 O.3     1  UNL1       -0.4335
     10 C           4.3608    0.0889   -0.7065 C.ar    1  UNL1        0.1664
     11 C           5.2415   -0.9719   -0.6302 C.ar    1  UNL1        0.0731
     12 N           6.5430   -0.8206   -0.3249 N.ar    1  UNL1       -0.2401
     13 C           7.0215    0.4120   -0.0809 C.ar    1  UNL1        0.1161
     14 N           6.1810    1.4559   -0.1503 N.ar    1  UNL1       -0.2401
     15 C           4.8800    1.3428   -0.4511 C.ar    1  UNL1        0.0731
     16 N           0.7566   -0.4123   -0.3889 N.ar    1  UNL1       -0.1946
     17 C          -3.8450    0.1925   -0.3269 C.ar    1  UNL1        0.1271
     18 C          -4.6757    1.2886   -0.4136 C.ar    1  UNL1       -0.0128
     19 C          -5.9811    1.0997   -0.7724 C.ar    1  UNL1        0.0446
     20 CL         -7.0680    2.4548   -0.8950 Cl      1  UNL1       -0.0834
     21 C          -6.4222   -0.1875   -1.0360 C.ar    1  UNL1       -0.0252
     22 C          -5.5826   -1.2775   -0.9464 C.ar    1  UNL1        0.0298
     23 N          -4.3097   -1.0561   -0.5922 N.ar    1  UNL1       -0.2503
     24 H          -1.9888   -1.6986   -0.0685 H       1  UNL1        0.1566
     25 H          -0.6775   -0.8464    2.5790 H       1  UNL1        0.0865
     26 H           3.4048   -0.2265    1.5869 H       1  UNL1        0.0884
     27 H           4.8504   -1.9470   -0.8260 H       1  UNL1        0.0868
     28 H           8.0851    0.5434    0.1694 H       1  UNL1        0.1047
     29 H           4.2480    2.2237   -0.4925 H       1  UNL1        0.0868
     30 H          -4.2704    2.2810   -0.1935 H       1  UNL1        0.0655
     31 H          -7.4610   -0.3000   -1.3171 H       1  UNL1        0.0647
     32 H          -6.0047   -2.2473   -1.1682 H       1  UNL1        0.0830
@<TRIPOS>BOND
     1     1     2    2
     2     2     3   am
     3     3     4    1
     4     4     5   ar
     5     5     6   ar
     6     6     7   ar
     7     7     8   ar
     8     8     9    1
     9     9    10    1
    10    10    11   ar
    11    11    12   ar
    12    12    13   ar
    13    13    14   ar
    14    14    15   ar
    15     8    16   ar
    16     2    17    1
    17    17    18   ar
    18    18    19   ar
    19    19    20    1
    20    19    21   ar
    21    21    22   ar
    22    22    23   ar
    23    16     4   ar
    24    23    17   ar
    25    15    10   ar
    26     3    24    1
    27     5    25    1
    28     7    26    1
    29    11    27    1
    30    13    28    1
    31    15    29    1
    32    18    30    1
    33    21    31    1
    34    22    32    1
