
     RDKit          3D

 42 45  0  0  0  0  0  0  0  0999 V2000
    5.7726   -1.6932    0.6438 C   0  0  0  0  0  0  0  0  0  0  0  0
    4.7201   -1.3503    0.9569 O   0  0  0  0  0  0  0  0  0  0  0  0
    3.3926   -0.9025    1.3067 C   0  0  0  0  0  0  0  0  0  0  0  0
    2.6165   -0.2395    0.3452 C   0  0  0  0  0  0  0  0  0  0  0  0
    1.4150    0.2515    0.7113 C   0  0  0  0  0  0  0  0  0  0  0  0
    0.6193    1.2322    0.0646 C   0  0  0  0  0  0  0  0  0  0  0  0
    0.8736    2.5554    0.2783 N   0  0  0  0  0  0  0  0  0  0  0  0
    0.0988    3.3467   -0.0937 C   0  0  0  0  0  0  0  0  0  0  0  0
   -0.9879    2.5998   -0.7591 N   0  0  0  0  0  0  0  0  0  0  0  0
   -2.0842    3.2533   -1.1822 C   0  0  0  0  0  0  0  0  0  0  0  0
   -2.2687    3.8561   -2.5263 C   0  0  0  0  0  0  0  0  0  0  0  0
   -1.3945    4.8362   -2.8570 F   0  0  0  0  0  0  0  0  0  0  0  0
   -3.5119    4.5318   -2.4157 F   0  0  0  0  0  0  0  0  0  0  0  0
   -0.5856    1.3247   -0.6073 C   0  0  0  0  0  0  0  0  0  0  0  0
   -1.2641    0.0615   -0.9140 C   0  0  0  0  0  0  0  0  0  0  0  0
   -0.7392   -0.7698   -1.8680 C   0  0  0  0  0  0  0  0  0  0  0  0
   -1.2422   -2.0237   -2.0006 C   0  0  0  0  0  0  0  0  0  0  0  0
   -2.2664   -2.4628   -1.2137 C   0  0  0  0  0  0  0  0  0  0  0  0
   -2.8353   -3.6596   -1.1595 N   0  0  0  0  0  0  0  0  0  0  0  0
   -3.9038   -3.5163   -0.0391 C   0  0  0  0  0  0  0  0  0  0  0  0
   -3.6571   -2.3498    0.2782 C   0  0  0  0  0  0  0  0  0  0  0  0
   -3.7870   -2.1574    1.8504 C   0  0  0  0  0  0  0  0  0  0  0  0
   -3.8851   -1.9870    3.3232 N   0  0  0  0  0  0  0  0  0  0  0  0
   -2.8643   -1.5318   -0.1895 N   0  0  0  0  0  0  0  0  0  0  0  0
   -2.2734   -0.4004   -0.1803 N   0  0  0  0  0  0  0  0  0  0  0  0
    1.0124    0.0366    2.0726 C   0  0  0  0  0  0  0  0  0  0  0  0
    1.7690   -0.6381    2.9358 C   0  0  0  0  0  0  0  0  0  0  0  0
    3.0046   -1.1374    2.5841 C   0  0  0  0  0  0  0  0  0  0  0  0
    3.7730   -1.8311    3.4612 F   0  0  0  0  0  0  0  0  0  0  0  0
    5.9370   -2.6599    0.0828 H   0  0  0  0  0  0  0  0  0  0  0  0
    6.5921   -1.8131    1.4646 H   0  0  0  0  0  0  0  0  0  0  0  0
    6.4095   -0.9685   -0.0975 H   0  0  0  0  0  0  0  0  0  0  0  0
    2.9740   -0.1411   -0.6407 H   0  0  0  0  0  0  0  0  0  0  0  0
    0.0611    4.4338   -0.0264 H   0  0  0  0  0  0  0  0  0  0  0  0
   -2.3725    4.0873   -0.4063 H   0  0  0  0  0  0  0  0  0  0  0  0
   -2.9946    2.5615   -1.1052 H   0  0  0  0  0  0  0  0  0  0  0  0
   -2.5085    3.1638   -3.3688 H   0  0  0  0  0  0  0  0  0  0  0  0
    0.0911   -0.3153   -2.4553 H   0  0  0  0  0  0  0  0  0  0  0  0
   -0.8152   -2.6861   -2.7275 H   0  0  0  0  0  0  0  0  0  0  0  0
   -4.4465   -4.4131    0.1224 H   0  0  0  0  0  0  0  0  0  0  0  0
    0.0829    0.4399    2.3827 H   0  0  0  0  0  0  0  0  0  0  0  0
    1.4727   -0.9243    3.9688 H   0  0  0  0  0  0  0  0  0  0  0  0
  1  2  1  0
  2  3  1  0
  3  4  2  0
  4  5  1  0
  5  6  1  0
  6  7  1  0
  7  8  2  0
  8  9  1  0
  9 10  1  0
 10 11  1  0
 11 12  1  0
 11 13  1  0
  9 14  1  0
 14 15  1  0
 15 16  1  0
 16 17  2  0
 17 18  1  0
 18 19  2  0
 19 20  1  0
 20 21  2  0
 21 22  1  0
 22 23  3  0
 21 24  1  0
 24 25  1  0
  5 26  2  0
 26 27  1  0
 27 28  2  0
 28 29  1  0
 28  3  1  0
 14  6  2  0
 25 15  2  0
 24 18  1  0
  1 30  1  0
  1 31  1  0
  1 32  1  0
  4 33  1  0
  8 34  1  0
 10 35  1  0
 10 36  1  0
 11 37  1  0
 16 38  1  0
 17 39  1  0
 20 40  1  0
 26 41  1  0
 27 42  1  0
M  END
$$$$
