@<TRIPOS>MOLECULE
*****
 42 45 0 0 0
SMALL
GASTEIGER

@<TRIPOS>ATOM
      1 C           5.7726   -1.6932    0.6438 C.3     1  UNL1        0.0789
      2 O           4.7201   -1.3503    0.9569 O.3     1  UNL1       -0.4922
      3 C           3.3926   -0.9025    1.3067 C.ar    1  UNL1        0.1557
      4 C           2.6165   -0.2395    0.3452 C.ar    1  UNL1       -0.0078
      5 C           1.4150    0.2515    0.7113 C.ar    1  UNL1        0.0061
      6 C           0.6193    1.2322    0.0646 C.ar    1  UNL1        0.0983
      7 N           0.8736    2.5554    0.2783 N.ar    1  UNL1       -0.2351
      8 C           0.0988    3.3467   -0.0937 C.ar    1  UNL1        0.0973
      9 N          -0.9879    2.5998   -0.7591 N.ar    1  UNL1       -0.3229
     10 C          -2.0842    3.2533   -1.1822 C.3     1  UNL1        0.0852
     11 C          -2.2687    3.8561   -2.5263 C.3     1  UNL1        0.2569
     12 F          -1.3945    4.8362   -2.8570 F       1  UNL1       -0.2073
     13 F          -3.5119    4.5318   -2.4157 F       1  UNL1       -0.2073
     14 C          -0.5856    1.3247   -0.6073 C.ar    1  UNL1        0.0968
     15 C          -1.2641    0.0615   -0.9140 C.ar    1  UNL1        0.1103
     16 C          -0.7392   -0.7698   -1.8680 C.ar    1  UNL1       -0.0290
     17 C          -1.2422   -2.0237   -2.0006 C.ar    1  UNL1       -0.0153
     18 C          -2.2664   -2.4628   -1.2137 C.ar    1  UNL1        0.1555
     19 N          -2.8353   -3.6596   -1.1595 N.ar    1  UNL1       -0.2333
     20 C          -3.9038   -3.5163   -0.0391 C.ar    1  UNL1        0.0659
     21 C          -3.6571   -2.3498    0.2782 C.ar    1  UNL1        0.1618
     22 C          -3.7870   -2.1574    1.8504 C.1     1  UNL1        0.1208
     23 N          -3.8851   -1.9870    3.3232 N.1     1  UNL1       -0.1892
     24 N          -2.8643   -1.5318   -0.1895 N.ar    1  UNL1       -0.2023
     25 N          -2.2734   -0.4004   -0.1803 N.ar    1  UNL1       -0.1623
     26 C           1.0124    0.0366    2.0726 C.ar    1  UNL1       -0.0496
     27 C           1.7690   -0.6381    2.9358 C.ar    1  UNL1       -0.0222
     28 C           3.0046   -1.1374    2.5841 C.ar    1  UNL1        0.1648
     29 F           3.7730   -1.8311    3.4612 F       1  UNL1       -0.2017
     30 H           5.9370   -2.6599    0.0828 H       1  UNL1        0.0660
     31 H           6.5921   -1.8131    1.4646 H       1  UNL1        0.0660
     32 H           6.4095   -0.9685   -0.0975 H       1  UNL1        0.0660
     33 H           2.9740   -0.1411   -0.6407 H       1  UNL1        0.0662
     34 H           0.0611    4.4338   -0.0264 H       1  UNL1        0.1029
     35 H          -2.3725    4.0873   -0.4063 H       1  UNL1        0.0548
     36 H          -2.9946    2.5615   -1.1052 H       1  UNL1        0.0548
     37 H          -2.5085    3.1638   -3.3688 H       1  UNL1        0.1037
     38 H           0.0911   -0.3153   -2.4553 H       1  UNL1        0.0641
     39 H          -0.8152   -2.6861   -2.7275 H       1  UNL1        0.0655
     40 H          -4.4465   -4.4131    0.1224 H       1  UNL1        0.0859
     41 H           0.0829    0.4399    2.3827 H       1  UNL1        0.0625
     42 H           1.4727   -0.9243    3.9688 H       1  UNL1        0.0648
@<TRIPOS>BOND
     1     1     2    1
     2     2     3    1
     3     3     4   ar
     4     4     5   ar
     5     5     6    1
     6     6     7   ar
     7     7     8   ar
     8     8     9   ar
     9     9    10    1
    10    10    11    1
    11    11    12    1
    12    11    13    1
    13     9    14   ar
    14    14    15    1
    15    15    16   ar
    16    16    17   ar
    17    17    18   ar
    18    18    19   ar
    19    19    20   ar
    20    20    21   ar
    21    21    22    1
    22    22    23    3
    23    21    24   ar
    24    24    25   ar
    25     5    26   ar
    26    26    27   ar
    27    27    28   ar
    28    28    29    1
    29    28     3   ar
    30    14     6   ar
    31    25    15   ar
    32    24    18   ar
    33     1    30    1
    34     1    31    1
    35     1    32    1
    36     4    33    1
    37     8    34    1
    38    10    35    1
    39    10    36    1
    40    11    37    1
    41    16    38    1
    42    17    39    1
    43    20    40    1
    44    26    41    1
    45    27    42    1
