@<TRIPOS>MOLECULE
*****
 28 29 0 0 0
SMALL
GASTEIGER

@<TRIPOS>ATOM
      1 N           5.2694    0.7364    0.7641 N.pl3   1  UNL1       -0.3273
      2 C           3.8718    0.6685    0.5146 C.ar    1  UNL1        0.2184
      3 N           3.0377    1.6683    0.8351 N.ar    1  UNL1       -0.1594
      4 C           1.7087    1.5241    0.5619 C.ar    1  UNL1        0.3545
      5 O           0.9464    2.4796    0.8736 O.2     1  UNL1       -0.2443
      6 N           1.1850    0.4157   -0.0201 N.ar    1  UNL1       -0.2560
      7 C           2.0595   -0.5589   -0.3229 C.ar    1  UNL1        0.1056
      8 N           3.3838   -0.4538   -0.0681 N.ar    1  UNL1       -0.2047
      9 C1*        -0.1986    0.2836   -0.2964 C.3     1  UNL1        0.1437
     10 C2*        -0.5760   -0.4184   -1.5559 C.3     1  UNL1        0.0214
     11 C3*        -1.8868   -1.1006   -1.1371 C.3     1  UNL1        0.0876
     12 O3*        -2.9001   -0.8811   -2.0456 O.3     1  UNL1       -0.3890
     13 C4*        -2.1811   -0.2944    0.1114 C.3     1  UNL1        0.1100
     14 C5*        -3.2887   -0.8467    0.9466 C.3     1  UNL1        0.0729
     15 O5*        -3.3193   -0.0995    2.1240 O.3     1  UNL1       -0.3924
     16 O4*        -0.9304   -0.3693    0.7251 O.3     1  UNL1       -0.3483
     17 H           5.8800    0.0438    1.2593 H       1  UNL1        0.1452
     18 H           5.6795    1.6158    0.3777 H       1  UNL1        0.1452
     19 H           1.7717   -1.4822   -0.7845 H       1  UNL1        0.1032
     20 H1*        -0.7137    1.2894   -0.3431 H       1  UNL1        0.0841
     21 H2*1       -0.8657    0.2851   -2.3834 H       1  UNL1        0.0335
     22 H2*2        0.0873   -1.2063   -1.9011 H       1  UNL1        0.0335
     23 H3*        -1.7350   -2.1410   -0.8401 H       1  UNL1        0.0621
     24 H3*        -2.7047   -0.1794   -2.7061 H       1  UNL1        0.2099
     25 H4*        -2.3604    0.7420   -0.1684 H       1  UNL1        0.0646
     26 H5*1       -4.2389   -0.5904    0.4171 H       1  UNL1        0.0584
     27 H5*2       -3.2446   -1.9214    1.1063 H       1  UNL1        0.0584
     28 H5*        -3.7366    0.7911    1.9137 H       1  UNL1        0.2095
@<TRIPOS>BOND
     1     1     2    1
     2     2     3   ar
     3     3     4   ar
     4     4     5    2
     5     4     6   ar
     6     6     7   ar
     7     7     8   ar
     8     6     9    1
     9     9    10    1
    10    10    11    1
    11    11    12    1
    12    11    13    1
    13    13    14    1
    14    14    15    1
    15    13    16    1
    16     8     2   ar
    17    16     9    1
    18     1    17    1
    19     1    18    1
    20     7    19    1
    21     9    20    1
    22    10    21    1
    23    10    22    1
    24    11    23    1
    25    12    24    1
    26    13    25    1
    27    14    26    1
    28    14    27    1
    29    15    28    1
