
     RDKit          3D

 57 58  0  0  0  0  0  0  0  0999 V2000
    0.3764   -0.5070   -0.0525 C   0  0  2  0  0  0  0  0  0  0  0  0
    1.4992   -0.2724    0.9348 C   0  0  0  0  0  0  0  0  0  0  0  0
    2.8329   -0.2035    0.3179 C   0  0  0  0  0  0  0  0  0  0  0  0
    3.6327   -1.3207    0.1506 C   0  0  0  0  0  0  0  0  0  0  0  0
    4.8698   -1.1241   -0.4465 C   0  0  0  0  0  0  0  0  0  0  0  0
    5.3596    0.0869   -0.8820 C   0  0  0  0  0  0  0  0  0  0  0  0
    4.5340    1.1989   -0.7020 C   0  0  0  0  0  0  0  0  0  0  0  0
    3.2793    1.0456   -0.1045 C   0  0  0  0  0  0  0  0  0  0  0  0
    6.7037    0.1247   -1.4998 C   0  0  0  0  0  0  0  0  0  0  0  0
    7.5285   -0.8068   -0.8762 F   0  0  0  0  0  0  0  0  0  0  0  0
    6.5910   -0.1956   -2.8306 F   0  0  0  0  0  0  0  0  0  0  0  0
    7.3501    1.8086   -1.2670 P   0  0  0  0  0  0  0  0  0  0  0  0
    9.0345    1.7191   -1.3603 O   0  0  0  0  0  0  0  0  0  0  0  0
    6.8665    2.3624    0.2502 O   0  0  0  0  0  0  0  0  0  0  0  0
    6.7776    2.6506   -2.3839 O   0  0  0  0  0  0  0  0  0  0  0  0
   -0.8525   -0.5443    0.7476 N   0  0  0  0  0  0  0  0  0  0  0  0
   -1.8986    0.4165    0.6556 C   0  0  0  0  0  0  0  0  0  0  0  0
   -1.8299    1.3857   -0.1432 O   0  0  0  0  0  0  0  0  0  0  0  0
   -2.9996    0.1090    1.5881 C   0  0  2  0  0  0  0  0  0  0  0  0
   -3.5976   -1.2504    1.1953 C   0  0  0  0  0  0  0  0  0  0  0  0
   -4.1023   -1.1310   -0.1966 C   0  0  0  0  0  0  0  0  0  0  0  0
   -3.4286   -1.3843   -1.3639 C   0  0  0  0  0  0  0  0  0  0  0  0
   -4.0159   -1.2319   -2.6010 C   0  0  0  0  0  0  0  0  0  0  0  0
   -5.3251   -0.8096   -2.6380 C   0  0  0  0  0  0  0  0  0  0  0  0
   -6.0868   -0.5296   -1.5247 C   0  0  0  0  0  0  0  0  0  0  0  0
   -5.4297   -0.7054   -0.3164 C   0  0  0  0  0  0  0  0  0  0  0  0
   -4.0456    1.1321    1.4840 N   0  0  0  0  0  0  0  0  0  0  0  0
   -4.4525    1.7934    2.6752 C   0  0  0  0  0  0  0  0  0  0  0  0
   -5.4913    2.8521    2.7716 C   0  0  0  0  0  0  0  0  0  0  0  0
   -3.9484    1.5293    3.7968 O   0  0  0  0  0  0  0  0  0  0  0  0
    0.5253   -1.7481   -0.8354 C   0  0  0  0  0  0  0  0  0  0  0  0
    0.0355   -3.0376   -1.2098 N   0  0  0  0  0  0  0  0  0  0  0  0
    1.5507   -1.8536   -1.5919 O   0  0  0  0  0  0  0  0  0  0  0  0
    0.3912    0.3468   -0.7565 H   0  0  0  0  0  0  0  0  0  0  0  0
    1.2474    0.6409    1.4989 H   0  0  0  0  0  0  0  0  0  0  0  0
    1.4764   -1.0989    1.6729 H   0  0  0  0  0  0  0  0  0  0  0  0
    3.3011   -2.2955    0.4738 H   0  0  0  0  0  0  0  0  0  0  0  0
    5.4561   -2.0322   -0.5534 H   0  0  0  0  0  0  0  0  0  0  0  0
    4.9149    2.1563   -1.0433 H   0  0  0  0  0  0  0  0  0  0  0  0
    2.6790    1.9351    0.0122 H   0  0  0  0  0  0  0  0  0  0  0  0
    9.3262    1.1674   -0.5862 H   0  0  0  0  0  0  0  0  0  0  0  0
    7.0037    3.3208    0.3823 H   0  0  0  0  0  0  0  0  0  0  0  0
   -0.8119   -1.3805    1.3736 H   0  0  0  0  0  0  0  0  0  0  0  0
   -2.7138    0.0483    2.6393 H   0  0  0  0  0  0  0  0  0  0  0  0
   -2.7868   -2.0158    1.1999 H   0  0  0  0  0  0  0  0  0  0  0  0
   -4.4173   -1.5483    1.8580 H   0  0  0  0  0  0  0  0  0  0  0  0
   -2.4214   -1.7070   -1.2495 H   0  0  0  0  0  0  0  0  0  0  0  0
   -3.4329   -1.4471   -3.4860 H   0  0  0  0  0  0  0  0  0  0  0  0
   -5.7785   -0.6931   -3.6314 H   0  0  0  0  0  0  0  0  0  0  0  0
   -7.1153   -0.1978   -1.5523 H   0  0  0  0  0  0  0  0  0  0  0  0
   -6.0370   -0.4820    0.5750 H   0  0  0  0  0  0  0  0  0  0  0  0
   -4.5235    1.4224    0.6077 H   0  0  0  0  0  0  0  0  0  0  0  0
   -5.7475    3.1416    1.7184 H   0  0  0  0  0  0  0  0  0  0  0  0
   -6.4181    2.4848    3.2420 H   0  0  0  0  0  0  0  0  0  0  0  0
   -5.1104    3.7629    3.2714 H   0  0  0  0  0  0  0  0  0  0  0  0
   -0.6181   -3.1726   -2.0363 H   0  0  0  0  0  0  0  0  0  0  0  0
    0.2931   -3.9156   -0.6913 H   0  0  0  0  0  0  0  0  0  0  0  0
  1  2  1  0
  2  3  1  0
  3  4  2  0
  4  5  1  0
  5  6  2  0
  6  7  1  0
  7  8  2  0
  6  9  1  0
  9 10  1  0
  9 11  1  0
  9 12  1  0
 12 13  1  0
 12 14  1  0
 12 15  2  0
  1 16  1  0
 16 17  1  0
 17 18  2  0
 17 19  1  0
 19 20  1  0
 20 21  1  0
 21 22  2  0
 22 23  1  0
 23 24  2  0
 24 25  1  0
 25 26  2  0
 19 27  1  0
 27 28  1  0
 28 29  1  0
 28 30  2  0
  1 31  1  0
 31 32  1  0
 31 33  2  0
  8  3  1  0
 26 21  1  0
  1 34  1  6
  2 35  1  0
  2 36  1  0
  4 37  1  0
  5 38  1  0
  7 39  1  0
  8 40  1  0
 13 41  1  0
 14 42  1  0
 16 43  1  0
 19 44  1  1
 20 45  1  0
 20 46  1  0
 22 47  1  0
 23 48  1  0
 24 49  1  0
 25 50  1  0
 26 51  1  0
 27 52  1  0
 29 53  1  0
 29 54  1  0
 29 55  1  0
 32 56  1  0
 32 57  1  0
M  END
$$$$
