@<TRIPOS>MOLECULE
*****
 57 58 0 0 0
SMALL
GASTEIGER

@<TRIPOS>ATOM
      1 C           0.3764   -0.5070   -0.0525 C.3     1  UNL1        0.1031
      2 C           1.4992   -0.2724    0.9348 C.3     1  UNL1       -0.0007
      3 C           2.8329   -0.2035    0.3179 C.ar    1  UNL1       -0.0451
      4 C           3.6327   -1.3207    0.1506 C.ar    1  UNL1       -0.0580
      5 C           4.8698   -1.1241   -0.4465 C.ar    1  UNL1       -0.0521
      6 C           5.3596    0.0869   -0.8820 C.ar    1  UNL1        0.0328
      7 C           4.5340    1.1989   -0.7020 C.ar    1  UNL1       -0.0521
      8 C           3.2793    1.0456   -0.1045 C.ar    1  UNL1       -0.0580
      9 C           6.7037    0.1247   -1.4998 C.3     1  UNL1        0.3711
     10 F           7.5285   -0.8068   -0.8762 F       1  UNL1       -0.1866
     11 F           6.5910   -0.1956   -2.8306 F       1  UNL1       -0.1866
     12 P           7.3501    1.8086   -1.2670 P.3     1  UNL1        0.4007
     13 O           9.0345    1.7191   -1.3603 O.3     1  UNL1       -0.3199
     14 O           6.8665    2.3624    0.2502 O.3     1  UNL1       -0.3199
     15 O           6.7776    2.6506   -2.3839 O.2     1  UNL1       -0.2522
     16 N          -0.8525   -0.5443    0.7476 N.am    1  UNL1       -0.3022
     17 C          -1.8986    0.4165    0.6556 C.2     1  UNL1        0.2343
     18 O          -1.8299    1.3857   -0.1432 O.2     1  UNL1       -0.2738
     19 C          -2.9996    0.1090    1.5881 C.3     1  UNL1        0.1033
     20 C          -3.5976   -1.2504    1.1953 C.3     1  UNL1       -0.0007
     21 C          -4.1023   -1.1310   -0.1966 C.ar    1  UNL1       -0.0451
     22 C          -3.4286   -1.3843   -1.3639 C.ar    1  UNL1       -0.0585
     23 C          -4.0159   -1.2319   -2.6010 C.ar    1  UNL1       -0.0615
     24 C          -5.3251   -0.8096   -2.6380 C.ar    1  UNL1       -0.0617
     25 C          -6.0868   -0.5296   -1.5247 C.ar    1  UNL1       -0.0615
     26 C          -5.4297   -0.7054   -0.3164 C.ar    1  UNL1       -0.0585
     27 N          -4.0456    1.1321    1.4840 N.am    1  UNL1       -0.3039
     28 C          -4.4525    1.7934    2.6752 C.2     1  UNL1        0.2105
     29 C          -5.4913    2.8521    2.7716 C.3     1  UNL1        0.0122
     30 O          -3.9484    1.5293    3.7968 O.2     1  UNL1       -0.2761
     31 C           0.5253   -1.7481   -0.8354 C.2     1  UNL1        0.2311
     32 N           0.0355   -3.0376   -1.2098 N.am    1  UNL1       -0.3278
     33 O           1.5507   -1.8536   -1.5919 O.2     1  UNL1       -0.2740
     34 H           0.3912    0.3468   -0.7565 H       1  UNL1        0.0598
     35 H           1.2474    0.6409    1.4989 H       1  UNL1        0.0336
     36 H           1.4764   -1.0989    1.6729 H       1  UNL1        0.0336
     37 H           3.3011   -2.2955    0.4738 H       1  UNL1        0.0620
     38 H           5.4561   -2.0322   -0.5534 H       1  UNL1        0.0622
     39 H           4.9149    2.1563   -1.0433 H       1  UNL1        0.0622
     40 H           2.6790    1.9351    0.0122 H       1  UNL1        0.0620
     41 H           9.3262    1.1674   -0.5862 H       1  UNL1        0.2199
     42 H           7.0037    3.3208    0.3823 H       1  UNL1        0.2199
     43 H          -0.8119   -1.3805    1.3736 H       1  UNL1        0.1495
     44 H          -2.7138    0.0483    2.6393 H       1  UNL1        0.0598
     45 H          -2.7868   -2.0158    1.1999 H       1  UNL1        0.0336
     46 H          -4.4173   -1.5483    1.8580 H       1  UNL1        0.0336
     47 H          -2.4214   -1.7070   -1.2495 H       1  UNL1        0.0620
     48 H          -3.4329   -1.4471   -3.4860 H       1  UNL1        0.0618
     49 H          -5.7785   -0.6931   -3.6314 H       1  UNL1        0.0618
     50 H          -7.1153   -0.1978   -1.5523 H       1  UNL1        0.0618
     51 H          -6.0370   -0.4820    0.5750 H       1  UNL1        0.0620
     52 H          -4.5235    1.4224    0.6077 H       1  UNL1        0.1495
     53 H          -5.7475    3.1416    1.7184 H       1  UNL1        0.0322
     54 H          -6.4181    2.4848    3.2420 H       1  UNL1        0.0322
     55 H          -5.1104    3.7629    3.2714 H       1  UNL1        0.0322
     56 H          -0.6181   -3.1726   -2.0363 H       1  UNL1        0.1450
     57 H           0.2931   -3.9156   -0.6913 H       1  UNL1        0.1450
@<TRIPOS>BOND
     1     1     2    1
     2     2     3    1
     3     3     4   ar
     4     4     5   ar
     5     5     6   ar
     6     6     7   ar
     7     7     8   ar
     8     6     9    1
     9     9    10    1
    10     9    11    1
    11     9    12    1
    12    12    13    1
    13    12    14    1
    14    12    15    2
    15     1    16    1
    16    16    17   am
    17    17    18    2
    18    17    19    1
    19    19    20    1
    20    20    21    1
    21    21    22   ar
    22    22    23   ar
    23    23    24   ar
    24    24    25   ar
    25    25    26   ar
    26    19    27    1
    27    27    28   am
    28    28    29    1
    29    28    30    2
    30     1    31    1
    31    31    32   am
    32    31    33    2
    33     8     3   ar
    34    26    21   ar
    35     1    34    1
    36     2    35    1
    37     2    36    1
    38     4    37    1
    39     5    38    1
    40     7    39    1
    41     8    40    1
    42    13    41    1
    43    14    42    1
    44    16    43    1
    45    19    44    1
    46    20    45    1
    47    20    46    1
    48    22    47    1
    49    23    48    1
    50    24    49    1
    51    25    50    1
    52    26    51    1
    53    27    52    1
    54    29    53    1
    55    29    54    1
    56    29    55    1
    57    32    56    1
    58    32    57    1
