@<TRIPOS>MOLECULE
*****
 54 56 0 0 0
SMALL
GASTEIGER

@<TRIPOS>ATOM
      1 C          -2.4475    2.6304    4.2711 C.3     1  UNL1       -0.0635
      2 C          -2.6082    1.5082    3.2974 C.3     1  UNL1       -0.0350
      3 C          -1.6730    1.5852    2.1167 C.3     1  UNL1        0.0487
      4 N          -1.9559    0.4411    1.2827 N.pl3   1  UNL1       -0.3081
      5 C          -1.2213    0.2226    0.0914 C.ar    1  UNL1        0.2192
      6 N          -0.1363   -0.5920    0.1769 N.ar    1  UNL1       -0.1974
      7 C           0.6365   -0.8718   -0.8923 C.ar    1  UNL1        0.1519
      8 N           1.7598   -1.7225   -0.7918 N.pl3   1  UNL1       -0.3230
      9 C           2.1065   -2.3061    0.4572 C.3     1  UNL1        0.0372
     10 C           3.2781   -3.1758    0.4350 C.ar    1  UNL1       -0.0123
     11 C           3.2220   -4.5298    0.1965 C.ar    1  UNL1       -0.0542
     12 C           4.3816   -5.3129    0.1858 C.ar    1  UNL1       -0.0433
     13 C           5.6114   -4.7349    0.4165 C.ar    1  UNL1        0.0276
     14 N           5.6463   -3.4108    0.6476 N.ar    1  UNL1       -0.2629
     15 C           4.5265   -2.6402    0.6603 C.ar    1  UNL1        0.0322
     16 C           0.2539   -0.2747   -2.0868 C.ar    1  UNL1        0.1476
     17 N           0.7735   -0.3257   -3.3185 N.ar    1  UNL1       -0.2306
     18 C           0.0229    0.4399   -4.1349 C.ar    1  UNL1        0.0985
     19 N          -0.9935    0.9997   -3.4512 N.ar    1  UNL1       -0.3123
     20 C          -2.0085    1.8846   -3.9897 C.3     1  UNL1        0.0317
     21 C          -1.8384    3.3118   -3.5774 C.3     1  UNL1       -0.0444
     22 C          -3.3869    1.3984   -3.6055 C.3     1  UNL1       -0.0444
     23 C          -0.8453    0.5543   -2.1866 C.ar    1  UNL1        0.1674
     24 N          -1.5777    0.7968   -1.0890 N.ar    1  UNL1       -0.1947
     25 C          -0.2302    1.6137    2.4876 C.3     1  UNL1        0.0707
     26 C           0.1383    0.3172    3.1848 C.3     1  UNL1       -0.0372
     27 O           0.5341    1.6996    1.3356 O.3     1  UNL1       -0.3902
     28 H          -3.1048    2.3885    5.1497 H       1  UNL1        0.0230
     29 H          -1.4240    2.7321    4.6360 H       1  UNL1        0.0230
     30 H          -2.8267    3.5860    3.8513 H       1  UNL1        0.0230
     31 H          -3.6343    1.4684    2.9051 H       1  UNL1        0.0281
     32 H          -2.4260    0.5443    3.8133 H       1  UNL1        0.0281
     33 H          -1.9103    2.4802    1.4812 H       1  UNL1        0.0523
     34 H          -2.7010   -0.2743    1.5042 H       1  UNL1        0.1493
     35 H           2.3224   -1.9125   -1.6366 H       1  UNL1        0.1479
     36 H           1.2460   -2.9071    0.8723 H       1  UNL1        0.0512
     37 H           2.2782   -1.5225    1.2482 H       1  UNL1        0.0512
     38 H           2.2679   -5.0044    0.0134 H       1  UNL1        0.0622
     39 H           4.3536   -6.3743    0.0011 H       1  UNL1        0.0633
     40 H           6.5333   -5.3302    0.4124 H       1  UNL1        0.0829
     41 H           4.6517   -1.5802    0.8561 H       1  UNL1        0.0833
     42 H           0.2181    0.5799   -5.1944 H       1  UNL1        0.1029
     43 H          -1.9587    1.8394   -5.0989 H       1  UNL1        0.0523
     44 H          -0.8016    3.5505   -3.2497 H       1  UNL1        0.0249
     45 H          -2.4872    3.5559   -2.7028 H       1  UNL1        0.0249
     46 H          -2.0678    3.9863   -4.4204 H       1  UNL1        0.0249
     47 H          -3.4621    0.3179   -3.4828 H       1  UNL1        0.0249
     48 H          -4.1427    1.7178   -4.3778 H       1  UNL1        0.0249
     49 H          -3.7236    1.8703   -2.6600 H       1  UNL1        0.0249
     50 H          -0.0290    2.4803    3.1733 H       1  UNL1        0.0609
     51 H           0.1999    0.4855    4.2941 H       1  UNL1        0.0255
     52 H          -0.6136   -0.4373    2.9318 H       1  UNL1        0.0255
     53 H           1.1174   -0.0675    2.8752 H       1  UNL1        0.0255
     54 H           0.1561    2.3210    0.6851 H       1  UNL1        0.2098
@<TRIPOS>BOND
     1     1     2    1
     2     2     3    1
     3     3     4    1
     4     4     5    1
     5     5     6   ar
     6     6     7   ar
     7     7     8    1
     8     8     9    1
     9     9    10    1
    10    10    11   ar
    11    11    12   ar
    12    12    13   ar
    13    13    14   ar
    14    14    15   ar
    15     7    16   ar
    16    16    17   ar
    17    17    18   ar
    18    18    19   ar
    19    19    20    1
    20    20    21    1
    21    20    22    1
    22    19    23   ar
    23    23    24   ar
    24     3    25    1
    25    25    26    1
    26    25    27    1
    27    24     5   ar
    28    15    10   ar
    29    23    16   ar
    30     1    28    1
    31     1    29    1
    32     1    30    1
    33     2    31    1
    34     2    32    1
    35     3    33    1
    36     4    34    1
    37     8    35    1
    38     9    36    1
    39     9    37    1
    40    11    38    1
    41    12    39    1
    42    13    40    1
    43    15    41    1
    44    18    42    1
    45    20    43    1
    46    21    44    1
    47    21    45    1
    48    21    46    1
    49    22    47    1
    50    22    48    1
    51    22    49    1
    52    25    50    1
    53    26    51    1
    54    26    52    1
    55    26    53    1
    56    27    54    1
