@<TRIPOS>MOLECULE
*****
 40 43 0 0 0
SMALL
GASTEIGER

@<TRIPOS>ATOM
      1 C          -6.0683   -0.5703    1.3176 C.3     1  UNL1        0.0788
      2 O          -4.6894   -0.8914    1.3058 O.3     1  UNL1       -0.4951
      3 C          -3.8447   -0.1041    0.5384 C.ar    1  UNL1        0.1207
      4 C          -4.2514    0.9687   -0.2137 C.ar    1  UNL1       -0.0199
      5 C          -3.3764    1.7290   -0.9659 C.ar    1  UNL1       -0.0577
      6 C          -2.0432    1.3900   -0.9557 C.ar    1  UNL1       -0.0537
      7 C          -1.5915    0.2993   -0.1987 C.ar    1  UNL1       -0.0122
      8 C          -0.1662    0.0306   -0.2310 C.ar    1  UNL1        0.0127
      9 C           0.8686    0.9066    0.1195 C.ar    1  UNL1        0.0202
     10 N           2.0389    0.2621   -0.0172 N.ar    1  UNL1       -0.3002
     11 C           3.3140    0.8238    0.2464 C.ar    1  UNL1        0.0480
     12 C           3.5162    1.5040    1.4462 C.ar    1  UNL1       -0.0378
     13 C           4.7248    2.0771    1.7756 C.ar    1  UNL1       -0.0598
     14 C           5.7751    1.9777    0.8919 C.ar    1  UNL1       -0.0616
     15 C           5.5743    1.3034   -0.2972 C.ar    1  UNL1       -0.0598
     16 C           4.3703    0.7392   -0.6124 C.ar    1  UNL1       -0.0378
     17 C           1.8040   -0.9994   -0.4438 C.ar    1  UNL1        0.1508
     18 N           2.5841   -2.0470   -0.7429 N.ar    1  UNL1       -0.2172
     19 C           2.0587   -3.2109   -1.1633 C.ar    1  UNL1        0.1204
     20 N           0.7301   -3.3525   -1.2948 N.ar    1  UNL1       -0.2204
     21 C          -0.1342   -2.3402   -1.0126 C.ar    1  UNL1        0.1292
     22 N          -1.5222   -2.5371   -1.1852 N.pl3   1  UNL1       -0.3425
     23 C           0.4183   -1.1569   -0.5827 C.ar    1  UNL1        0.0664
     24 C          -2.5022   -0.4283    0.5359 C.ar    1  UNL1       -0.0122
     25 H          -6.6297   -1.4084    1.8033 H       1  UNL1        0.0660
     26 H          -6.2336    0.3593    1.9213 H       1  UNL1        0.0660
     27 H          -6.4840   -0.4611    0.3022 H       1  UNL1        0.0660
     28 H          -5.2891    1.2328   -0.2222 H       1  UNL1        0.0654
     29 H          -3.6807    2.5768   -1.5632 H       1  UNL1        0.0619
     30 H          -1.3241    1.9793   -1.5465 H       1  UNL1        0.0624
     31 H           0.6783    1.9230    0.4388 H       1  UNL1        0.0820
     32 H           2.6792    1.5826    2.1493 H       1  UNL1        0.0638
     33 H           4.8482    2.5972    2.7135 H       1  UNL1        0.0618
     34 H           6.7393    2.3970    1.0805 H       1  UNL1        0.0618
     35 H           6.4047    1.2154   -1.0143 H       1  UNL1        0.0618
     36 H           4.2227    0.2045   -1.5628 H       1  UNL1        0.0638
     37 H           2.6620   -4.0770   -1.4130 H       1  UNL1        0.1048
     38 H          -2.0317   -3.1338   -0.5211 H       1  UNL1        0.1437
     39 H          -2.0117   -2.0863   -1.9677 H       1  UNL1        0.1437
     40 H          -2.1375   -1.2746    1.1417 H       1  UNL1        0.0660
@<TRIPOS>BOND
     1     1     2    1
     2     2     3    1
     3     3     4   ar
     4     4     5   ar
     5     5     6   ar
     6     6     7   ar
     7     7     8    1
     8     8     9   ar
     9     9    10   ar
    10    10    11    1
    11    11    12   ar
    12    12    13   ar
    13    13    14   ar
    14    14    15   ar
    15    15    16   ar
    16    10    17   ar
    17    17    18   ar
    18    18    19   ar
    19    19    20   ar
    20    20    21   ar
    21    21    22    1
    22    21    23   ar
    23     7    24   ar
    24    24     3   ar
    25    23     8   ar
    26    16    11   ar
    27    23    17   ar
    28     1    25    1
    29     1    26    1
    30     1    27    1
    31     4    28    1
    32     5    29    1
    33     6    30    1
    34     9    31    1
    35    12    32    1
    36    13    33    1
    37    14    34    1
    38    15    35    1
    39    16    36    1
    40    19    37    1
    41    22    38    1
    42    22    39    1
    43    24    40    1
