
     RDKit          3D

 40 43  0  0  0  0  0  0  0  0999 V2000
   -6.0683   -0.5703    1.3176 C   0  0  0  0  0  0  0  0  0  0  0  0
   -4.6894   -0.8914    1.3058 O   0  0  0  0  0  0  0  0  0  0  0  0
   -3.8447   -0.1041    0.5384 C   0  0  0  0  0  0  0  0  0  0  0  0
   -4.2514    0.9687   -0.2137 C   0  0  0  0  0  0  0  0  0  0  0  0
   -3.3764    1.7290   -0.9659 C   0  0  0  0  0  0  0  0  0  0  0  0
   -2.0432    1.3900   -0.9557 C   0  0  0  0  0  0  0  0  0  0  0  0
   -1.5915    0.2993   -0.1987 C   0  0  0  0  0  0  0  0  0  0  0  0
   -0.1662    0.0306   -0.2310 C   0  0  0  0  0  0  0  0  0  0  0  0
    0.8686    0.9066    0.1195 C   0  0  0  0  0  0  0  0  0  0  0  0
    2.0389    0.2621   -0.0172 N   0  0  0  0  0  0  0  0  0  0  0  0
    3.3140    0.8238    0.2464 C   0  0  0  0  0  0  0  0  0  0  0  0
    3.5162    1.5040    1.4462 C   0  0  0  0  0  0  0  0  0  0  0  0
    4.7248    2.0771    1.7756 C   0  0  0  0  0  0  0  0  0  0  0  0
    5.7751    1.9777    0.8919 C   0  0  0  0  0  0  0  0  0  0  0  0
    5.5743    1.3034   -0.2972 C   0  0  0  0  0  0  0  0  0  0  0  0
    4.3703    0.7392   -0.6124 C   0  0  0  0  0  0  0  0  0  0  0  0
    1.8040   -0.9994   -0.4438 C   0  0  0  0  0  0  0  0  0  0  0  0
    2.5841   -2.0470   -0.7429 N   0  0  0  0  0  0  0  0  0  0  0  0
    2.0587   -3.2109   -1.1633 C   0  0  0  0  0  0  0  0  0  0  0  0
    0.7301   -3.3525   -1.2948 N   0  0  0  0  0  0  0  0  0  0  0  0
   -0.1342   -2.3402   -1.0126 C   0  0  0  0  0  0  0  0  0  0  0  0
   -1.5222   -2.5371   -1.1852 N   0  0  0  0  0  0  0  0  0  0  0  0
    0.4183   -1.1569   -0.5827 C   0  0  0  0  0  0  0  0  0  0  0  0
   -2.5022   -0.4283    0.5359 C   0  0  0  0  0  0  0  0  0  0  0  0
   -6.6297   -1.4084    1.8033 H   0  0  0  0  0  0  0  0  0  0  0  0
   -6.2336    0.3593    1.9213 H   0  0  0  0  0  0  0  0  0  0  0  0
   -6.4840   -0.4611    0.3022 H   0  0  0  0  0  0  0  0  0  0  0  0
   -5.2891    1.2328   -0.2222 H   0  0  0  0  0  0  0  0  0  0  0  0
   -3.6807    2.5768   -1.5632 H   0  0  0  0  0  0  0  0  0  0  0  0
   -1.3241    1.9793   -1.5465 H   0  0  0  0  0  0  0  0  0  0  0  0
    0.6783    1.9230    0.4388 H   0  0  0  0  0  0  0  0  0  0  0  0
    2.6792    1.5826    2.1493 H   0  0  0  0  0  0  0  0  0  0  0  0
    4.8482    2.5972    2.7135 H   0  0  0  0  0  0  0  0  0  0  0  0
    6.7393    2.3970    1.0805 H   0  0  0  0  0  0  0  0  0  0  0  0
    6.4047    1.2154   -1.0143 H   0  0  0  0  0  0  0  0  0  0  0  0
    4.2227    0.2045   -1.5628 H   0  0  0  0  0  0  0  0  0  0  0  0
    2.6620   -4.0770   -1.4130 H   0  0  0  0  0  0  0  0  0  0  0  0
   -2.0317   -3.1338   -0.5211 H   0  0  0  0  0  0  0  0  0  0  0  0
   -2.0117   -2.0863   -1.9677 H   0  0  0  0  0  0  0  0  0  0  0  0
   -2.1375   -1.2746    1.1417 H   0  0  0  0  0  0  0  0  0  0  0  0
  1  2  1  0
  2  3  1  0
  3  4  2  0
  4  5  1  0
  5  6  2  0
  6  7  1  0
  7  8  1  0
  8  9  2  0
  9 10  1  0
 10 11  1  0
 11 12  2  0
 12 13  1  0
 13 14  2  0
 14 15  1  0
 15 16  2  0
 10 17  1  0
 17 18  2  0
 18 19  1  0
 19 20  2  0
 20 21  1  0
 21 22  1  0
 21 23  2  0
  7 24  2  0
 24  3  1  0
 23  8  1  0
 16 11  1  0
 23 17  1  0
  1 25  1  0
  1 26  1  0
  1 27  1  0
  4 28  1  0
  5 29  1  0
  6 30  1  0
  9 31  1  0
 12 32  1  0
 13 33  1  0
 14 34  1  0
 15 35  1  0
 16 36  1  0
 19 37  1  0
 22 38  1  0
 22 39  1  0
 24 40  1  0
M  END
$$$$
