@<TRIPOS>MOLECULE
*****
 77 79 0 0 0
SMALL
GASTEIGER

@<TRIPOS>ATOM
      1 C          -4.7303    4.3892   -1.8672 C.3     1  UNL1       -0.0653
      2 C          -5.9629    3.5606   -1.6994 C.3     1  UNL1       -0.0559
      3 C          -5.7677    2.1340   -2.1761 C.3     1  UNL1       -0.0519
      4 C          -4.6457    1.4801   -1.3708 C.3     1  UNL1       -0.0371
      5 C          -4.4034    0.0840   -1.7926 C.3     1  UNL1        0.0161
      6 N          -3.3011   -0.5428   -1.0354 N.am    1  UNL1       -0.2855
      7 C          -3.6898   -1.3723    0.0882 C.3     1  UNL1        0.0161
      8 C          -3.5988   -0.7019    1.3806 C.3     1  UNL1       -0.0371
      9 C          -3.9385   -1.3827    2.6290 C.3     1  UNL1       -0.0519
     10 C          -3.2251   -2.5782    3.0856 C.3     1  UNL1       -0.0559
     11 C          -3.3384   -3.7456    2.1588 C.3     1  UNL1       -0.0653
     12 C          -2.0228   -0.3400   -1.5505 C.2     1  UNL1        0.3049
     13 O          -2.0438    0.3736   -2.6715 O.2     1  UNL1       -0.2524
     14 N          -0.7485   -0.7114   -1.1577 N.am    1  UNL1       -0.2817
     15 C          -0.3835   -1.4607   -0.0114 C.3     1  UNL1        0.0321
     16 C           0.3780   -0.4706    0.8995 C.3     1  UNL1        0.0329
     17 N           1.6526   -0.1897    0.1757 N.am    1  UNL1       -0.2684
     18 C           2.8288   -0.5151    0.8572 C.2     1  UNL1        0.3143
     19 O           2.6552   -1.0301    2.0513 O.2     1  UNL1       -0.2517
     20 N           4.1656   -0.3949    0.5093 N.am    1  UNL1       -0.2243
     21 C           5.1931   -0.8057    1.4444 C.ar    1  UNL1        0.0428
     22 C           5.6923   -2.0889    1.4684 C.ar    1  UNL1       -0.0399
     23 C           6.6747   -2.4713    2.3658 C.ar    1  UNL1       -0.0600
     24 C           7.1878   -1.5659    3.2727 C.ar    1  UNL1       -0.0616
     25 C           6.6974   -0.2782    3.2598 C.ar    1  UNL1       -0.0600
     26 C           5.7120    0.0939    2.3553 C.ar    1  UNL1       -0.0399
     27 C           4.6500    0.0958   -0.7104 C.ar    1  UNL1        0.0428
     28 C           4.9542   -0.7051   -1.7996 C.ar    1  UNL1       -0.0399
     29 C           5.4463   -0.2233   -2.9844 C.ar    1  UNL1       -0.0600
     30 C           5.6619    1.1226   -3.1344 C.ar    1  UNL1       -0.0616
     31 C           5.3726    1.9524   -2.0764 C.ar    1  UNL1       -0.0600
     32 C           4.8777    1.4672   -0.8854 C.ar    1  UNL1       -0.0399
     33 C           1.4725    0.3852   -1.1155 C.3     1  UNL1        0.1399
     34 C           1.0807    1.8331   -1.0323 C.2     1  UNL1        0.3271
     35 O           0.8781    2.5039   -2.0670 O.2     1  UNL1       -0.2488
     36 O           0.9386    2.4449    0.1971 O.3     1  UNL1       -0.4793
     37 C           0.4412   -0.3150   -1.9764 C.3     1  UNL1        0.0452
     38 H          -4.0477    4.2133   -1.0098 H       1  UNL1        0.0230
     39 H          -4.9277    5.4650   -1.9256 H       1  UNL1        0.0230
     40 H          -4.2003    4.0405   -2.7984 H       1  UNL1        0.0230
     41 H          -6.8516    4.0184   -2.1580 H       1  UNL1        0.0263
     42 H          -6.1728    3.5119   -0.5962 H       1  UNL1        0.0263
     43 H          -6.7031    1.5646   -2.1069 H       1  UNL1        0.0266
     44 H          -5.4764    2.1830   -3.2441 H       1  UNL1        0.0266
     45 H          -4.9764    1.5354   -0.3250 H       1  UNL1        0.0280
     46 H          -3.7203    2.0780   -1.5480 H       1  UNL1        0.0280
     47 H          -5.3527   -0.5050   -1.6428 H       1  UNL1        0.0465
     48 H          -4.1683   -0.0279   -2.8694 H       1  UNL1        0.0465
     49 H          -3.2295   -2.3362   -0.0825 H       1  UNL1        0.0465
     50 H          -4.8208   -1.6402   -0.0539 H       1  UNL1        0.0465
     51 H          -2.5686   -0.2282    1.4741 H       1  UNL1        0.0280
     52 H          -4.2533    0.2257    1.3439 H       1  UNL1        0.0280
     53 H          -5.0473   -1.6478    2.6209 H       1  UNL1        0.0266
     54 H          -3.9154   -0.5920    3.4485 H       1  UNL1        0.0266
     55 H          -3.7307   -2.9067    4.0511 H       1  UNL1        0.0263
     56 H          -2.1770   -2.3996    3.4278 H       1  UNL1        0.0263
     57 H          -4.2660   -3.6402    1.5667 H       1  UNL1        0.0230
     58 H          -2.4854   -3.8910    1.4868 H       1  UNL1        0.0230
     59 H          -3.5107   -4.7042    2.7457 H       1  UNL1        0.0230
     60 H          -1.1773   -1.9049    0.5517 H       1  UNL1        0.0480
     61 H           0.3865   -2.2192   -0.3421 H       1  UNL1        0.0480
     62 H           0.5724   -1.0064    1.8395 H       1  UNL1        0.0481
     63 H          -0.2029    0.4333    1.0563 H       1  UNL1        0.0481
     64 H           5.3138   -2.8355    0.7682 H       1  UNL1        0.0636
     65 H           7.0707   -3.4840    2.3876 H       1  UNL1        0.0618
     66 H           7.9698   -1.8626    3.9896 H       1  UNL1        0.0618
     67 H           7.1171    0.4155    3.9827 H       1  UNL1        0.0618
     68 H           5.3510    1.1015    2.3697 H       1  UNL1        0.0636
     69 H           4.7862   -1.7696   -1.6879 H       1  UNL1        0.0636
     70 H           5.6829   -0.8517   -3.8345 H       1  UNL1        0.0618
     71 H           6.0470    1.5852   -4.0341 H       1  UNL1        0.0618
     72 H           5.5276    3.0242   -2.1512 H       1  UNL1        0.0618
     73 H           4.6554    2.1391   -0.0629 H       1  UNL1        0.0636
     74 H           2.4054    0.3544   -1.6891 H       1  UNL1        0.0633
     75 H           1.2631    3.4168    0.2911 H       1  UNL1        0.2951
     76 H           0.1550    0.3582   -2.7826 H       1  UNL1        0.0489
     77 H           0.8671   -1.2421   -2.3657 H       1  UNL1        0.0489
@<TRIPOS>BOND
     1     1     2    1
     2     2     3    1
     3     3     4    1
     4     4     5    1
     5     5     6    1
     6     6     7    1
     7     7     8    1
     8     8     9    1
     9     9    10    1
    10    10    11    1
    11     6    12   am
    12    12    13    2
    13    12    14   am
    14    14    15    1
    15    15    16    1
    16    16    17    1
    17    17    18   am
    18    18    19    2
    19    18    20   am
    20    20    21    1
    21    21    22   ar
    22    22    23   ar
    23    23    24   ar
    24    24    25   ar
    25    25    26   ar
    26    20    27    1
    27    27    28   ar
    28    28    29   ar
    29    29    30   ar
    30    30    31   ar
    31    31    32   ar
    32    17    33    1
    33    33    34    1
    34    34    35    2
    35    34    36    1
    36    33    37    1
    37    37    14    1
    38    26    21   ar
    39    32    27   ar
    40     1    38    1
    41     1    39    1
    42     1    40    1
    43     2    41    1
    44     2    42    1
    45     3    43    1
    46     3    44    1
    47     4    45    1
    48     4    46    1
    49     5    47    1
    50     5    48    1
    51     7    49    1
    52     7    50    1
    53     8    51    1
    54     8    52    1
    55     9    53    1
    56     9    54    1
    57    10    55    1
    58    10    56    1
    59    11    57    1
    60    11    58    1
    61    11    59    1
    62    15    60    1
    63    15    61    1
    64    16    62    1
    65    16    63    1
    66    22    64    1
    67    23    65    1
    68    24    66    1
    69    25    67    1
    70    26    68    1
    71    28    69    1
    72    29    70    1
    73    30    71    1
    74    31    72    1
    75    32    73    1
    76    33    74    1
    77    36    75    1
    78    37    76    1
    79    37    77    1
