@<TRIPOS>MOLECULE
*****
 40 41 0 0 0
SMALL
GASTEIGER

@<TRIPOS>ATOM
      1 C           3.6589    2.4846   -1.5800 C.3     1  UNL1       -0.0158
      2 N           3.7619    1.1403   -1.1054 N.3     1  UNL1       -0.3188
      3 C           2.6683    0.7178   -0.2796 C.3     1  UNL1       -0.0007
      4 C           1.3687    0.5827   -0.9956 C.3     1  UNL1        0.0010
      5 C           0.3366    0.1275    0.0465 C.3     1  UNL1        0.1263
      6 O          -0.9290   -0.0377   -0.4951 O.3     1  UNL1       -0.4839
      7 C          -2.0853    0.6123   -0.1143 C.ar    1  UNL1        0.1243
      8 C          -2.2717    1.5570    0.8649 C.ar    1  UNL1       -0.0196
      9 C          -3.4787    2.1331    1.1504 C.ar    1  UNL1       -0.0583
     10 C          -4.6164    1.7694    0.4285 C.ar    1  UNL1       -0.0613
     11 C          -4.4322    0.8295   -0.5460 C.ar    1  UNL1       -0.0554
     12 C          -3.2060    0.2424   -0.8380 C.ar    1  UNL1       -0.0088
     13 C          -3.1530   -0.7694   -1.9282 C.3     1  UNL1       -0.0362
     14 C           0.7987   -1.1367    0.6670 C.ar    1  UNL1       -0.0073
     15 C           1.4073   -1.2559    1.9004 C.ar    1  UNL1       -0.0551
     16 C           1.7977   -2.5077    2.3738 C.ar    1  UNL1       -0.0614
     17 C           1.5702   -3.6330    1.5964 C.ar    1  UNL1       -0.0617
     18 C           0.9603   -3.5168    0.3596 C.ar    1  UNL1       -0.0614
     19 C           0.5803   -2.2689   -0.0932 C.ar    1  UNL1       -0.0551
     20 H           4.6907    2.9090   -1.6227 H       1  UNL1        0.0388
     21 H           3.1444    3.1265   -0.8082 H       1  UNL1        0.0388
     22 H           3.2398    2.6018   -2.5909 H       1  UNL1        0.0388
     23 H           4.6880    0.8660   -0.7679 H       1  UNL1        0.1216
     24 H           2.8997   -0.2602    0.1886 H       1  UNL1        0.0425
     25 H           2.5193    1.4827    0.5202 H       1  UNL1        0.0425
     26 H           1.3775   -0.2231   -1.7675 H       1  UNL1        0.0317
     27 H           1.0372    1.5188   -1.4722 H       1  UNL1        0.0317
     28 H           0.2966    0.8806    0.8551 H       1  UNL1        0.0785
     29 H          -1.3897    1.8325    1.4173 H       1  UNL1        0.0654
     30 H          -3.5333    2.8623    1.9322 H       1  UNL1        0.0619
     31 H          -5.5770    2.2127    0.6390 H       1  UNL1        0.0618
     32 H          -5.3176    0.5517   -1.1021 H       1  UNL1        0.0621
     33 H          -4.0952   -0.7459   -2.5110 H       1  UNL1        0.0279
     34 H          -3.1323   -1.7793   -1.4276 H       1  UNL1        0.0279
     35 H          -2.2710   -0.6653   -2.5767 H       1  UNL1        0.0279
     36 H           1.5573   -0.3377    2.4600 H       1  UNL1        0.0621
     37 H           2.2645   -2.5052    3.3452 H       1  UNL1        0.0618
     38 H           1.9020   -4.5809    2.0296 H       1  UNL1        0.0618
     39 H           0.8476   -4.4686   -0.1320 H       1  UNL1        0.0618
     40 H           0.1145   -2.3489   -1.0832 H       1  UNL1        0.0621
@<TRIPOS>BOND
     1     1     2    1
     2     2     3    1
     3     3     4    1
     4     4     5    1
     5     5     6    1
     6     6     7    1
     7     7     8   ar
     8     8     9   ar
     9     9    10   ar
    10    10    11   ar
    11    11    12   ar
    12    12    13    1
    13     5    14    1
    14    14    15   ar
    15    15    16   ar
    16    16    17   ar
    17    17    18   ar
    18    18    19   ar
    19    12     7   ar
    20    19    14   ar
    21     1    20    1
    22     1    21    1
    23     1    22    1
    24     2    23    1
    25     3    24    1
    26     3    25    1
    27     4    26    1
    28     4    27    1
    29     5    28    1
    30     8    29    1
    31     9    30    1
    32    10    31    1
    33    11    32    1
    34    13    33    1
    35    13    34    1
    36    13    35    1
    37    15    36    1
    38    16    37    1
    39    17    38    1
    40    18    39    1
    41    19    40    1
