@<TRIPOS>MOLECULE
*****
 64 67 0 0 0
SMALL
GASTEIGER

@<TRIPOS>ATOM
      1 C          10.2170   -0.2281   -0.3552 C.3     1  UNL1       -0.0206
      2 C           8.7377   -0.3943   -0.3665 C.ar    1  UNL1        0.0606
      3 C           7.9803    0.1749   -1.3581 C.ar    1  UNL1       -0.0369
      4 C           6.6003   -0.0292   -1.2956 C.ar    1  UNL1       -0.0322
      5 C           6.0279   -0.7651   -0.2890 C.ar    1  UNL1        0.0933
      6 C           4.5889   -0.9829   -0.2141 C.ar    1  UNL1        0.0021
      7 C           3.7274   -0.4744   -1.1349 C.ar    1  UNL1       -0.0522
      8 C           2.3394   -0.6946   -1.0457 C.ar    1  UNL1       -0.0562
      9 C           1.7887   -1.4297   -0.0290 C.ar    1  UNL1       -0.0271
     10 C           0.3560   -1.6799    0.1375 C.3     1  UNL1        0.0515
     11 C          -0.1756   -2.4140   -1.1071 C.3     1  UNL1       -0.0421
     12 N          -0.4799   -0.5089    0.2911 N.am    1  UNL1       -0.2605
     13 C          -0.5803    0.5527   -0.6537 C.3     1  UNL1        0.0224
     14 C          -1.7893    1.4060   -0.6052 C.3     1  UNL1        0.0076
     15 C          -2.9292    0.9093    0.2488 C.3     1  UNL1        0.1440
     16 C          -3.7297   -0.0685   -0.5604 C.3     1  UNL1        0.0199
     17 C          -4.8988   -0.6731    0.1483 C.3     1  UNL1        0.0645
     18 C          -5.5939   -1.6339   -0.8147 C.3     1  UNL1       -0.0362
     19 C          -4.4586   -1.5402    1.3249 C.3     1  UNL1       -0.0362
     20 O          -5.7846    0.2661    0.6575 O.3     1  UNL1       -0.3890
     21 C          -3.7015    2.1171    0.6529 C.ar    1  UNL1       -0.0040
     22 C          -3.3937    2.7035    1.8514 C.ar    1  UNL1       -0.0548
     23 C          -4.0732    3.8363    2.2744 C.ar    1  UNL1       -0.0614
     24 C          -5.0553    4.3791    1.5022 C.ar    1  UNL1       -0.0617
     25 C          -5.3755    3.7918    0.2840 C.ar    1  UNL1       -0.0614
     26 C          -4.6919    2.6583   -0.1343 C.ar    1  UNL1       -0.0548
     27 O          -2.4682    0.2799    1.4218 O.3     1  UNL1       -0.4387
     28 C          -1.2774   -0.4105    1.4926 C.2     1  UNL1        0.4042
     29 O          -0.8478   -0.9581    2.5408 O.2     1  UNL1       -0.2262
     30 C           2.6834   -1.9476    0.9112 C.ar    1  UNL1       -0.0562
     31 C           4.0385   -1.7303    0.8198 C.ar    1  UNL1       -0.0522
     32 N           6.8432   -1.2990    0.6599 N.ar    1  UNL1       -0.1490
     33 N           8.1255   -1.1023    0.5913 N.ar    1  UNL1       -0.1540
     34 H          10.5916   -0.2067   -1.3987 H       1  UNL1        0.0293
     35 H          10.6943   -1.0741    0.1939 H       1  UNL1        0.0293
     36 H          10.4990    0.7044    0.1428 H       1  UNL1        0.0293
     37 H           8.4477    0.7517   -2.1441 H       1  UNL1        0.0637
     38 H           6.0067    0.4203   -2.0779 H       1  UNL1        0.0640
     39 H           4.0701    0.1214   -1.9764 H       1  UNL1        0.0624
     40 H           1.7361   -0.2744   -1.8192 H       1  UNL1        0.0621
     41 H           0.2137   -2.3489    1.0233 H       1  UNL1        0.0549
     42 H          -1.2710   -2.4854   -0.9662 H       1  UNL1        0.0251
     43 H           0.0411   -1.8173   -1.9891 H       1  UNL1        0.0251
     44 H           0.2282   -3.4463   -1.1520 H       1  UNL1        0.0251
     45 H           0.3694    1.1323   -0.5762 H       1  UNL1        0.0467
     46 H          -0.5577    0.0920   -1.6860 H       1  UNL1        0.0467
     47 H          -1.4474    2.4190   -0.2241 H       1  UNL1        0.0322
     48 H          -2.1216    1.6330   -1.6431 H       1  UNL1        0.0322
     49 H          -4.0297    0.4046   -1.5175 H       1  UNL1        0.0335
     50 H          -3.0542   -0.9007   -0.8473 H       1  UNL1        0.0335
     51 H          -6.3331   -1.0894   -1.4499 H       1  UNL1        0.0257
     52 H          -6.1053   -2.4157   -0.2143 H       1  UNL1        0.0257
     53 H          -4.8113   -2.1232   -1.4330 H       1  UNL1        0.0257
     54 H          -4.3058   -0.9055    2.2392 H       1  UNL1        0.0257
     55 H          -3.5704   -2.1309    1.0568 H       1  UNL1        0.0257
     56 H          -5.2518   -2.2630    1.6103 H       1  UNL1        0.0257
     57 H          -6.6846    0.1232    0.2985 H       1  UNL1        0.2101
     58 H          -2.6306    2.3022    2.4784 H       1  UNL1        0.0622
     59 H          -3.7964    4.2750    3.2396 H       1  UNL1        0.0618
     60 H          -5.5990    5.2653    1.8158 H       1  UNL1        0.0618
     61 H          -6.1465    4.1923   -0.3541 H       1  UNL1        0.0618
     62 H          -4.9150    2.1918   -1.0646 H       1  UNL1        0.0622
     63 H           2.2553   -2.5276    1.7135 H       1  UNL1        0.0621
     64 H           4.7284   -2.1296    1.5443 H       1  UNL1        0.0624
@<TRIPOS>BOND
     1     1     2    1
     2     2     3   ar
     3     3     4   ar
     4     4     5   ar
     5     5     6    1
     6     6     7   ar
     7     7     8   ar
     8     8     9   ar
     9     9    10    1
    10    10    11    1
    11    10    12    1
    12    12    13    1
    13    13    14    1
    14    14    15    1
    15    15    16    1
    16    16    17    1
    17    17    18    1
    18    17    19    1
    19    17    20    1
    20    15    21    1
    21    21    22   ar
    22    22    23   ar
    23    23    24   ar
    24    24    25   ar
    25    25    26   ar
    26    15    27    1
    27    27    28    1
    28    28    29    2
    29     9    30   ar
    30    30    31   ar
    31     5    32   ar
    32    32    33   ar
    33    33     2   ar
    34    31     6   ar
    35    28    12   am
    36    26    21   ar
    37     1    34    1
    38     1    35    1
    39     1    36    1
    40     3    37    1
    41     4    38    1
    42     7    39    1
    43     8    40    1
    44    10    41    1
    45    11    42    1
    46    11    43    1
    47    11    44    1
    48    13    45    1
    49    13    46    1
    50    14    47    1
    51    14    48    1
    52    16    49    1
    53    16    50    1
    54    18    51    1
    55    18    52    1
    56    18    53    1
    57    19    54    1
    58    19    55    1
    59    19    56    1
    60    20    57    1
    61    22    58    1
    62    23    59    1
    63    24    60    1
    64    25    61    1
    65    26    62    1
    66    30    63    1
    67    31    64    1
