
     RDKit          3D

 64 67  0  0  0  0  0  0  0  0999 V2000
   10.2170   -0.2281   -0.3552 C   0  0  0  0  0  0  0  0  0  0  0  0
    8.7377   -0.3943   -0.3665 C   0  0  0  0  0  0  0  0  0  0  0  0
    7.9803    0.1749   -1.3581 C   0  0  0  0  0  0  0  0  0  0  0  0
    6.6003   -0.0292   -1.2956 C   0  0  0  0  0  0  0  0  0  0  0  0
    6.0279   -0.7651   -0.2890 C   0  0  0  0  0  0  0  0  0  0  0  0
    4.5889   -0.9829   -0.2141 C   0  0  0  0  0  0  0  0  0  0  0  0
    3.7274   -0.4744   -1.1349 C   0  0  0  0  0  0  0  0  0  0  0  0
    2.3394   -0.6946   -1.0457 C   0  0  0  0  0  0  0  0  0  0  0  0
    1.7887   -1.4297   -0.0290 C   0  0  0  0  0  0  0  0  0  0  0  0
    0.3560   -1.6799    0.1375 C   0  0  2  0  0  0  0  0  0  0  0  0
   -0.1756   -2.4140   -1.1071 C   0  0  0  0  0  0  0  0  0  0  0  0
   -0.4799   -0.5089    0.2911 N   0  0  0  0  0  0  0  0  0  0  0  0
   -0.5803    0.5527   -0.6537 C   0  0  0  0  0  0  0  0  0  0  0  0
   -1.7893    1.4060   -0.6052 C   0  0  0  0  0  0  0  0  0  0  0  0
   -2.9292    0.9093    0.2488 C   0  0  2  0  0  0  0  0  0  0  0  0
   -3.7297   -0.0685   -0.5604 C   0  0  0  0  0  0  0  0  0  0  0  0
   -4.8988   -0.6731    0.1483 C   0  0  0  0  0  0  0  0  0  0  0  0
   -5.5939   -1.6339   -0.8147 C   0  0  0  0  0  0  0  0  0  0  0  0
   -4.4586   -1.5402    1.3249 C   0  0  0  0  0  0  0  0  0  0  0  0
   -5.7846    0.2661    0.6575 O   0  0  0  0  0  0  0  0  0  0  0  0
   -3.7015    2.1171    0.6529 C   0  0  0  0  0  0  0  0  0  0  0  0
   -3.3937    2.7035    1.8514 C   0  0  0  0  0  0  0  0  0  0  0  0
   -4.0732    3.8363    2.2744 C   0  0  0  0  0  0  0  0  0  0  0  0
   -5.0553    4.3791    1.5022 C   0  0  0  0  0  0  0  0  0  0  0  0
   -5.3755    3.7918    0.2840 C   0  0  0  0  0  0  0  0  0  0  0  0
   -4.6919    2.6583   -0.1343 C   0  0  0  0  0  0  0  0  0  0  0  0
   -2.4682    0.2799    1.4218 O   0  0  0  0  0  0  0  0  0  0  0  0
   -1.2774   -0.4105    1.4926 C   0  0  0  0  0  0  0  0  0  0  0  0
   -0.8478   -0.9581    2.5408 O   0  0  0  0  0  0  0  0  0  0  0  0
    2.6834   -1.9476    0.9112 C   0  0  0  0  0  0  0  0  0  0  0  0
    4.0385   -1.7303    0.8198 C   0  0  0  0  0  0  0  0  0  0  0  0
    6.8432   -1.2990    0.6599 N   0  0  0  0  0  0  0  0  0  0  0  0
    8.1255   -1.1023    0.5913 N   0  0  0  0  0  0  0  0  0  0  0  0
   10.5916   -0.2067   -1.3987 H   0  0  0  0  0  0  0  0  0  0  0  0
   10.6943   -1.0741    0.1939 H   0  0  0  0  0  0  0  0  0  0  0  0
   10.4990    0.7044    0.1428 H   0  0  0  0  0  0  0  0  0  0  0  0
    8.4477    0.7517   -2.1441 H   0  0  0  0  0  0  0  0  0  0  0  0
    6.0067    0.4203   -2.0779 H   0  0  0  0  0  0  0  0  0  0  0  0
    4.0701    0.1214   -1.9764 H   0  0  0  0  0  0  0  0  0  0  0  0
    1.7361   -0.2744   -1.8192 H   0  0  0  0  0  0  0  0  0  0  0  0
    0.2137   -2.3489    1.0233 H   0  0  0  0  0  0  0  0  0  0  0  0
   -1.2710   -2.4854   -0.9662 H   0  0  0  0  0  0  0  0  0  0  0  0
    0.0411   -1.8173   -1.9891 H   0  0  0  0  0  0  0  0  0  0  0  0
    0.2282   -3.4463   -1.1520 H   0  0  0  0  0  0  0  0  0  0  0  0
    0.3694    1.1323   -0.5762 H   0  0  0  0  0  0  0  0  0  0  0  0
   -0.5577    0.0920   -1.6860 H   0  0  0  0  0  0  0  0  0  0  0  0
   -1.4474    2.4190   -0.2241 H   0  0  0  0  0  0  0  0  0  0  0  0
   -2.1216    1.6330   -1.6431 H   0  0  0  0  0  0  0  0  0  0  0  0
   -4.0297    0.4046   -1.5175 H   0  0  0  0  0  0  0  0  0  0  0  0
   -3.0542   -0.9007   -0.8473 H   0  0  0  0  0  0  0  0  0  0  0  0
   -6.3331   -1.0894   -1.4499 H   0  0  0  0  0  0  0  0  0  0  0  0
   -6.1053   -2.4157   -0.2143 H   0  0  0  0  0  0  0  0  0  0  0  0
   -4.8113   -2.1232   -1.4330 H   0  0  0  0  0  0  0  0  0  0  0  0
   -4.3058   -0.9055    2.2392 H   0  0  0  0  0  0  0  0  0  0  0  0
   -3.5704   -2.1309    1.0568 H   0  0  0  0  0  0  0  0  0  0  0  0
   -5.2518   -2.2630    1.6103 H   0  0  0  0  0  0  0  0  0  0  0  0
   -6.6846    0.1232    0.2985 H   0  0  0  0  0  0  0  0  0  0  0  0
   -2.6306    2.3022    2.4784 H   0  0  0  0  0  0  0  0  0  0  0  0
   -3.7964    4.2750    3.2396 H   0  0  0  0  0  0  0  0  0  0  0  0
   -5.5990    5.2653    1.8158 H   0  0  0  0  0  0  0  0  0  0  0  0
   -6.1465    4.1923   -0.3541 H   0  0  0  0  0  0  0  0  0  0  0  0
   -4.9150    2.1918   -1.0646 H   0  0  0  0  0  0  0  0  0  0  0  0
    2.2553   -2.5276    1.7135 H   0  0  0  0  0  0  0  0  0  0  0  0
    4.7284   -2.1296    1.5443 H   0  0  0  0  0  0  0  0  0  0  0  0
  1  2  1  0
  2  3  2  0
  3  4  1  0
  4  5  2  0
  5  6  1  0
  6  7  2  0
  7  8  1  0
  8  9  2  0
  9 10  1  0
 10 11  1  0
 10 12  1  0
 12 13  1  0
 13 14  1  0
 14 15  1  0
 15 16  1  6
 16 17  1  0
 17 18  1  0
 17 19  1  0
 17 20  1  0
 15 21  1  0
 21 22  2  0
 22 23  1  0
 23 24  2  0
 24 25  1  0
 25 26  2  0
 15 27  1  0
 27 28  1  0
 28 29  2  0
  9 30  1  0
 30 31  2  0
  5 32  1  0
 32 33  2  0
 33  2  1  0
 31  6  1  0
 28 12  1  0
 26 21  1  0
  1 34  1  0
  1 35  1  0
  1 36  1  0
  3 37  1  0
  4 38  1  0
  7 39  1  0
  8 40  1  0
 10 41  1  1
 11 42  1  0
 11 43  1  0
 11 44  1  0
 13 45  1  0
 13 46  1  0
 14 47  1  0
 14 48  1  0
 16 49  1  0
 16 50  1  0
 18 51  1  0
 18 52  1  0
 18 53  1  0
 19 54  1  0
 19 55  1  0
 19 56  1  0
 20 57  1  0
 22 58  1  0
 23 59  1  0
 24 60  1  0
 25 61  1  0
 26 62  1  0
 30 63  1  0
 31 64  1  0
M  END
$$$$
