@<TRIPOS>MOLECULE
*****
 63 65 0 0 0
SMALL
GASTEIGER

@<TRIPOS>ATOM
      1 C           6.6385    3.5001    1.8127 C.3     1  UNL1       -0.0396
      2 C           6.2096    2.3079    1.0233 C.ar    1  UNL1       -0.0469
      3 C           7.0796    1.6782    0.1488 C.ar    1  UNL1       -0.0574
      4 C           6.6749    0.5802   -0.5749 C.ar    1  UNL1       -0.0405
      5 C           5.4010    0.0543   -0.4711 C.ar    1  UNL1        0.0933
      6 C           5.0414   -1.0969   -1.2676 C.1     1  UNL1        0.1028
      7 N           4.7650   -2.0110   -1.8769 N.1     1  UNL1       -0.1907
      8 C           4.5145    0.6575    0.3890 C.ar    1  UNL1        0.1391
      9 O           3.2576    0.2719    0.6015 O.3     1  UNL1       -0.4799
     10 C           2.3280   -0.6337    0.2686 C.3     1  UNL1        0.1555
     11 C           2.6675   -2.0978    0.5785 C.3     1  UNL1       -0.0203
     12 C           1.9002   -0.5542   -1.2056 C.3     1  UNL1       -0.0203
     13 C           0.9881   -0.4103    1.0330 C.3     1  UNL1        0.1991
     14 O           0.5574    0.8386    0.6864 O.3     1  UNL1       -0.3473
     15 C          -0.7337    0.9735    1.2488 C.3     1  UNL1        0.0566
     16 C          -1.6179    0.0830    0.3543 C.3     1  UNL1        0.0165
     17 C          -3.0123    0.1770    1.0111 C.3     1  UNL1       -0.0271
     18 C          -4.0218   -0.6104    0.3075 C.2     1  UNL1       -0.0875
     19 C          -5.0885   -0.0652   -0.2103 C.2     1  UNL1       -0.0874
     20 C          -5.4303    1.3614   -0.1714 C.3     1  UNL1       -0.0247
     21 C          -6.7794    1.4347    0.5713 C.3     1  UNL1        0.0482
     22 C          -7.2561    2.8053    0.6921 C.2     1  UNL1        0.3050
     23 O          -6.5832    3.7449    0.2223 O.2     1  UNL1       -0.2510
     24 O          -8.4485    3.0802    1.3223 O.3     1  UNL1       -0.4806
     25 C          -1.0907   -1.2916    0.3706 C.3     1  UNL1        0.0933
     26 C          -1.2864   -2.0969   -0.8441 C.ar    1  UNL1       -0.0003
     27 C          -0.8113   -3.3916   -0.8725 C.ar    1  UNL1       -0.0532
     28 C          -0.9719   -4.1893   -2.0045 C.ar    1  UNL1       -0.0433
     29 C          -1.6171   -3.6442   -3.0868 C.ar    1  UNL1        0.0276
     30 N          -2.0847   -2.3805   -3.0683 N.ar    1  UNL1       -0.2629
     31 C          -1.9129   -1.6209   -1.9441 C.ar    1  UNL1        0.0332
     32 O           0.2168   -1.4705    0.7460 O.3     1  UNL1       -0.3393
     33 C           4.9529    1.7852    1.1226 C.ar    1  UNL1       -0.0157
     34 H           5.9352    4.3510    1.5814 H       1  UNL1        0.0278
     35 H           7.6343    3.8558    1.4981 H       1  UNL1        0.0278
     36 H           6.5723    3.3301    2.8928 H       1  UNL1        0.0278
     37 H           8.0855    2.0607    0.0401 H       1  UNL1        0.0621
     38 H           7.3649    0.0868   -1.2634 H       1  UNL1        0.0632
     39 H           1.9759   -2.5476    1.3186 H       1  UNL1        0.0270
     40 H           3.6775   -2.1969    1.0240 H       1  UNL1        0.0270
     41 H           2.5578   -2.7325   -0.3320 H       1  UNL1        0.0270
     42 H           2.5279    0.2283   -1.6822 H       1  UNL1        0.0270
     43 H           2.0315   -1.5205   -1.6996 H       1  UNL1        0.0270
     44 H           0.8564   -0.2114   -1.3252 H       1  UNL1        0.0270
     45 H           1.3276   -0.3756    2.1110 H       1  UNL1        0.0951
     46 H          -1.0813    2.0091    1.0924 H       1  UNL1        0.0564
     47 H          -0.7621    0.6395    2.3005 H       1  UNL1        0.0564
     48 H          -1.6820    0.6098   -0.5912 H       1  UNL1        0.0354
     49 H          -3.1912    1.2438    1.1159 H       1  UNL1        0.0312
     50 H          -2.8682   -0.1906    2.0795 H       1  UNL1        0.0312
     51 H          -3.8260   -1.6985    0.2409 H       1  UNL1        0.0569
     52 H          -5.8024   -0.7348   -0.7261 H       1  UNL1        0.0569
     53 H          -4.7304    2.0428    0.2841 H       1  UNL1        0.0312
     54 H          -5.6036    1.7615   -1.2174 H       1  UNL1        0.0312
     55 H          -7.4793    0.7543    0.0520 H       1  UNL1        0.0380
     56 H          -6.5678    0.9530    1.5641 H       1  UNL1        0.0380
     57 H          -8.9686    3.9534    1.1454 H       1  UNL1        0.2951
     58 H          -1.6940   -1.8393    1.1746 H       1  UNL1        0.0651
     59 H          -0.2978   -3.8579   -0.0413 H       1  UNL1        0.0622
     60 H          -0.6177   -5.2009   -2.0691 H       1  UNL1        0.0633
     61 H          -1.7881   -4.1959   -4.0177 H       1  UNL1        0.0829
     62 H          -2.3039   -0.6355   -1.9978 H       1  UNL1        0.0833
     63 H           4.2710    2.2890    1.8161 H       1  UNL1        0.0657
@<TRIPOS>BOND
     1     1     2    1
     2     2     3   ar
     3     3     4   ar
     4     4     5   ar
     5     5     6    1
     6     6     7    3
     7     5     8   ar
     8     8     9    1
     9     9    10    1
    10    10    11    1
    11    10    12    1
    12    10    13    1
    13    13    14    1
    14    14    15    1
    15    15    16    1
    16    16    17    1
    17    17    18    1
    18    18    19    2
    19    19    20    1
    20    20    21    1
    21    21    22    1
    22    22    23    2
    23    22    24    1
    24    16    25    1
    25    25    26    1
    26    26    27   ar
    27    27    28   ar
    28    28    29   ar
    29    29    30   ar
    30    30    31   ar
    31    25    32    1
    32     8    33   ar
    33    33     2   ar
    34    32    13    1
    35    31    26   ar
    36     1    34    1
    37     1    35    1
    38     1    36    1
    39     3    37    1
    40     4    38    1
    41    11    39    1
    42    11    40    1
    43    11    41    1
    44    12    42    1
    45    12    43    1
    46    12    44    1
    47    13    45    1
    48    15    46    1
    49    15    47    1
    50    16    48    1
    51    17    49    1
    52    17    50    1
    53    18    51    1
    54    19    52    1
    55    20    53    1
    56    20    54    1
    57    21    55    1
    58    21    56    1
    59    24    57    1
    60    25    58    1
    61    27    59    1
    62    28    60    1
    63    29    61    1
    64    31    62    1
    65    33    63    1
