
     RDKit          3D

 63 65  0  0  0  0  0  0  0  0999 V2000
    6.6385    3.5001    1.8127 C   0  0  0  0  0  0  0  0  0  0  0  0
    6.2096    2.3079    1.0233 C   0  0  0  0  0  0  0  0  0  0  0  0
    7.0796    1.6782    0.1488 C   0  0  0  0  0  0  0  0  0  0  0  0
    6.6749    0.5802   -0.5749 C   0  0  0  0  0  0  0  0  0  0  0  0
    5.4010    0.0543   -0.4711 C   0  0  0  0  0  0  0  0  0  0  0  0
    5.0414   -1.0969   -1.2676 C   0  0  0  0  0  0  0  0  0  0  0  0
    4.7650   -2.0110   -1.8769 N   0  0  0  0  0  0  0  0  0  0  0  0
    4.5145    0.6575    0.3890 C   0  0  0  0  0  0  0  0  0  0  0  0
    3.2576    0.2719    0.6015 O   0  0  0  0  0  0  0  0  0  0  0  0
    2.3280   -0.6337    0.2686 C   0  0  0  0  0  0  0  0  0  0  0  0
    2.6675   -2.0978    0.5785 C   0  0  0  0  0  0  0  0  0  0  0  0
    1.9002   -0.5542   -1.2056 C   0  0  0  0  0  0  0  0  0  0  0  0
    0.9881   -0.4103    1.0330 C   0  0  0  0  0  0  0  0  0  0  0  0
    0.5574    0.8386    0.6864 O   0  0  0  0  0  0  0  0  0  0  0  0
   -0.7337    0.9735    1.2488 C   0  0  0  0  0  0  0  0  0  0  0  0
   -1.6179    0.0830    0.3543 C   0  0  0  0  0  0  0  0  0  0  0  0
   -3.0123    0.1770    1.0111 C   0  0  0  0  0  0  0  0  0  0  0  0
   -4.0218   -0.6104    0.3075 C   0  0  0  0  0  0  0  0  0  0  0  0
   -5.0885   -0.0652   -0.2103 C   0  0  0  0  0  0  0  0  0  0  0  0
   -5.4303    1.3614   -0.1714 C   0  0  0  0  0  0  0  0  0  0  0  0
   -6.7794    1.4347    0.5713 C   0  0  0  0  0  0  0  0  0  0  0  0
   -7.2561    2.8053    0.6921 C   0  0  0  0  0  0  0  0  0  0  0  0
   -6.5832    3.7449    0.2223 O   0  0  0  0  0  0  0  0  0  0  0  0
   -8.4485    3.0802    1.3223 O   0  0  0  0  0  0  0  0  0  0  0  0
   -1.0907   -1.2916    0.3706 C   0  0  0  0  0  0  0  0  0  0  0  0
   -1.2864   -2.0969   -0.8441 C   0  0  0  0  0  0  0  0  0  0  0  0
   -0.8113   -3.3916   -0.8725 C   0  0  0  0  0  0  0  0  0  0  0  0
   -0.9719   -4.1893   -2.0045 C   0  0  0  0  0  0  0  0  0  0  0  0
   -1.6171   -3.6442   -3.0868 C   0  0  0  0  0  0  0  0  0  0  0  0
   -2.0847   -2.3805   -3.0683 N   0  0  0  0  0  0  0  0  0  0  0  0
   -1.9129   -1.6209   -1.9441 C   0  0  0  0  0  0  0  0  0  0  0  0
    0.2168   -1.4705    0.7460 O   0  0  0  0  0  0  0  0  0  0  0  0
    4.9529    1.7852    1.1226 C   0  0  0  0  0  0  0  0  0  0  0  0
    5.9352    4.3510    1.5814 H   0  0  0  0  0  0  0  0  0  0  0  0
    7.6343    3.8558    1.4981 H   0  0  0  0  0  0  0  0  0  0  0  0
    6.5723    3.3301    2.8928 H   0  0  0  0  0  0  0  0  0  0  0  0
    8.0855    2.0607    0.0401 H   0  0  0  0  0  0  0  0  0  0  0  0
    7.3649    0.0868   -1.2634 H   0  0  0  0  0  0  0  0  0  0  0  0
    1.9759   -2.5476    1.3186 H   0  0  0  0  0  0  0  0  0  0  0  0
    3.6775   -2.1969    1.0240 H   0  0  0  0  0  0  0  0  0  0  0  0
    2.5578   -2.7325   -0.3320 H   0  0  0  0  0  0  0  0  0  0  0  0
    2.5279    0.2283   -1.6822 H   0  0  0  0  0  0  0  0  0  0  0  0
    2.0315   -1.5205   -1.6996 H   0  0  0  0  0  0  0  0  0  0  0  0
    0.8564   -0.2114   -1.3252 H   0  0  0  0  0  0  0  0  0  0  0  0
    1.3276   -0.3756    2.1110 H   0  0  0  0  0  0  0  0  0  0  0  0
   -1.0813    2.0091    1.0924 H   0  0  0  0  0  0  0  0  0  0  0  0
   -0.7621    0.6395    2.3005 H   0  0  0  0  0  0  0  0  0  0  0  0
   -1.6820    0.6098   -0.5912 H   0  0  0  0  0  0  0  0  0  0  0  0
   -3.1912    1.2438    1.1159 H   0  0  0  0  0  0  0  0  0  0  0  0
   -2.8682   -0.1906    2.0795 H   0  0  0  0  0  0  0  0  0  0  0  0
   -3.8260   -1.6985    0.2409 H   0  0  0  0  0  0  0  0  0  0  0  0
   -5.8024   -0.7348   -0.7261 H   0  0  0  0  0  0  0  0  0  0  0  0
   -4.7304    2.0428    0.2841 H   0  0  0  0  0  0  0  0  0  0  0  0
   -5.6036    1.7615   -1.2174 H   0  0  0  0  0  0  0  0  0  0  0  0
   -7.4793    0.7543    0.0520 H   0  0  0  0  0  0  0  0  0  0  0  0
   -6.5678    0.9530    1.5641 H   0  0  0  0  0  0  0  0  0  0  0  0
   -8.9686    3.9534    1.1454 H   0  0  0  0  0  0  0  0  0  0  0  0
   -1.6940   -1.8393    1.1746 H   0  0  0  0  0  0  0  0  0  0  0  0
   -0.2978   -3.8579   -0.0413 H   0  0  0  0  0  0  0  0  0  0  0  0
   -0.6177   -5.2009   -2.0691 H   0  0  0  0  0  0  0  0  0  0  0  0
   -1.7881   -4.1959   -4.0177 H   0  0  0  0  0  0  0  0  0  0  0  0
   -2.3039   -0.6355   -1.9978 H   0  0  0  0  0  0  0  0  0  0  0  0
    4.2710    2.2890    1.8161 H   0  0  0  0  0  0  0  0  0  0  0  0
  1  2  1  0
  2  3  2  0
  3  4  1  0
  4  5  2  0
  5  6  1  0
  6  7  3  0
  5  8  1  0
  8  9  1  0
  9 10  1  0
 10 11  1  0
 10 12  1  0
 10 13  1  0
 13 14  1  0
 14 15  1  0
 15 16  1  0
 16 17  1  0
 17 18  1  0
 18 19  2  0
 19 20  1  0
 20 21  1  0
 21 22  1  0
 22 23  2  0
 22 24  1  0
 16 25  1  0
 25 26  1  0
 26 27  2  0
 27 28  1  0
 28 29  2  0
 29 30  1  0
 30 31  2  0
 25 32  1  0
  8 33  2  0
 33  2  1  0
 32 13  1  0
 31 26  1  0
  1 34  1  0
  1 35  1  0
  1 36  1  0
  3 37  1  0
  4 38  1  0
 11 39  1  0
 11 40  1  0
 11 41  1  0
 12 42  1  0
 12 43  1  0
 12 44  1  0
 13 45  1  0
 15 46  1  0
 15 47  1  0
 16 48  1  0
 17 49  1  0
 17 50  1  0
 18 51  1  0
 19 52  1  0
 20 53  1  0
 20 54  1  0
 21 55  1  0
 21 56  1  0
 24 57  1  0
 25 58  1  0
 27 59  1  0
 28 60  1  0
 29 61  1  0
 31 62  1  0
 33 63  1  0
M  END
$$$$
