
     RDKit          3D

 12 11  0  0  0  0  0  0  0  0999 V2000
    1.3140   -0.2156    0.1664 C   0  0  0  0  0  0  0  0  0  0  0  0
    0.0663    0.3806   -0.4499 C   0  0  0  0  0  0  0  0  0  0  0  0
   -1.1000   -0.5344   -0.0967 C   0  0  0  0  0  0  0  0  0  0  0  0
   -0.1926    1.6329    0.1209 O   0  0  0  0  0  0  0  0  0  0  0  0
    2.2226    0.3474   -0.1283 H   0  0  0  0  0  0  0  0  0  0  0  0
    1.1871   -0.1585    1.2626 H   0  0  0  0  0  0  0  0  0  0  0  0
    1.3585   -1.2792   -0.1494 H   0  0  0  0  0  0  0  0  0  0  0  0
    0.1798    0.4784   -1.5526 H   0  0  0  0  0  0  0  0  0  0  0  0
   -1.7895   -0.4890   -0.9620 H   0  0  0  0  0  0  0  0  0  0  0  0
   -0.7662   -1.5610    0.1227 H   0  0  0  0  0  0  0  0  0  0  0  0
   -1.6365   -0.1195    0.7921 H   0  0  0  0  0  0  0  0  0  0  0  0
   -0.8436    1.5179    0.8741 H   0  0  0  0  0  0  0  0  0  0  0  0
  1  2  1  0
  2  3  1  0
  2  4  1  0
  1  5  1  0
  1  6  1  0
  1  7  1  0
  2  8  1  0
  3  9  1  0
  3 10  1  0
  3 11  1  0
  4 12  1  0
M  END
$$$$
