
     RDKit          3D

 52 54  0  0  0  0  0  0  0  0999 V2000
    5.3257    2.0661    0.2804 O   0  0  0  0  0  0  0  0  0  0  0  0
    5.1455    0.8625   -0.3884 C   0  0  0  0  0  0  0  0  0  0  0  0
    4.8157    1.0665   -1.6029 O   0  0  0  0  0  0  0  0  0  0  0  0
    5.3819   -0.3326    0.4776 C   0  0  0  0  0  0  0  0  0  0  0  0
    5.2084   -1.5292   -0.1665 O   0  0  0  0  0  0  0  0  0  0  0  0
    3.9318   -1.7321   -0.6916 C   0  0  0  0  0  0  0  0  0  0  0  0
    2.8611   -1.7091    0.3355 C   0  0  0  0  0  0  0  0  0  0  0  0
    1.5268   -1.9172   -0.1133 N   0  0  0  0  0  0  0  0  0  0  0  0
    0.6265   -1.8756    1.0248 C   0  0  0  0  0  0  0  0  0  0  0  0
    0.2530   -0.4584    1.3918 C   0  0  0  0  0  0  0  0  0  0  0  0
   -0.2403    0.3062    0.2675 N   0  0  0  0  0  0  0  0  0  0  0  0
    0.6668    0.2598   -0.8593 C   0  0  0  0  0  0  0  0  0  0  0  0
    1.0735   -1.1462   -1.2117 C   0  0  0  0  0  0  0  0  0  0  0  0
   -1.5642   -0.1097   -0.1398 C   0  0  2  0  0  0  0  0  0  0  0  0
   -1.9873    0.7451   -1.2766 C   0  0  0  0  0  0  0  0  0  0  0  0
   -1.8193    2.1084   -1.3512 C   0  0  0  0  0  0  0  0  0  0  0  0
   -2.2572    2.8149   -2.4651 C   0  0  0  0  0  0  0  0  0  0  0  0
   -2.8666    2.1540   -3.5106 C   0  0  0  0  0  0  0  0  0  0  0  0
   -3.0723    0.7826   -3.5110 C   0  0  0  0  0  0  0  0  0  0  0  0
   -2.6104    0.1294   -2.3641 C   0  0  0  0  0  0  0  0  0  0  0  0
   -2.5626    0.0432    0.9406 C   0  0  0  0  0  0  0  0  0  0  0  0
   -3.5094   -0.9548    1.2039 C   0  0  0  0  0  0  0  0  0  0  0  0
   -4.4802   -0.9205    2.1827 C   0  0  0  0  0  0  0  0  0  0  0  0
   -4.5107    0.2098    2.9699 C   0  0  0  0  0  0  0  0  0  0  0  0
   -5.7590    0.2334    4.2144 Cl  0  0  0  0  0  0  0  0  0  0  0  0
   -3.6151    1.2408    2.7791 C   0  0  0  0  0  0  0  0  0  0  0  0
   -2.6763    1.1250    1.7776 C   0  0  0  0  0  0  0  0  0  0  0  0
    5.5145    2.9536   -0.1686 H   0  0  0  0  0  0  0  0  0  0  0  0
    4.7764   -0.2524    1.3973 H   0  0  0  0  0  0  0  0  0  0  0  0
    6.4517   -0.3332    0.8417 H   0  0  0  0  0  0  0  0  0  0  0  0
    3.9522   -2.7442   -1.1456 H   0  0  0  0  0  0  0  0  0  0  0  0
    3.7751   -1.0246   -1.5522 H   0  0  0  0  0  0  0  0  0  0  0  0
    2.8700   -0.8101    0.9868 H   0  0  0  0  0  0  0  0  0  0  0  0
    3.0902   -2.5560    1.0474 H   0  0  0  0  0  0  0  0  0  0  0  0
   -0.2692   -2.4591    0.7705 H   0  0  0  0  0  0  0  0  0  0  0  0
    1.1735   -2.3104    1.8857 H   0  0  0  0  0  0  0  0  0  0  0  0
   -0.5123   -0.4896    2.1666 H   0  0  0  0  0  0  0  0  0  0  0  0
    1.1532    0.0505    1.7935 H   0  0  0  0  0  0  0  0  0  0  0  0
    1.5118    0.9495   -0.6885 H   0  0  0  0  0  0  0  0  0  0  0  0
    0.1130    0.6423   -1.7411 H   0  0  0  0  0  0  0  0  0  0  0  0
    0.1440   -1.6476   -1.6058 H   0  0  0  0  0  0  0  0  0  0  0  0
    1.8331   -1.1078   -2.0059 H   0  0  0  0  0  0  0  0  0  0  0  0
   -1.5732   -1.1898   -0.4221 H   0  0  0  0  0  0  0  0  0  0  0  0
   -1.3392    2.6123   -0.5273 H   0  0  0  0  0  0  0  0  0  0  0  0
   -2.1227    3.8855   -2.5179 H   0  0  0  0  0  0  0  0  0  0  0  0
   -3.2223    2.6858   -4.4023 H   0  0  0  0  0  0  0  0  0  0  0  0
   -3.5377    0.2083   -4.2880 H   0  0  0  0  0  0  0  0  0  0  0  0
   -2.7577   -0.9506   -2.3346 H   0  0  0  0  0  0  0  0  0  0  0  0
   -3.4722   -1.8511    0.5669 H   0  0  0  0  0  0  0  0  0  0  0  0
   -5.1525   -1.7616    2.2811 H   0  0  0  0  0  0  0  0  0  0  0  0
   -3.6858    2.0977    3.4229 H   0  0  0  0  0  0  0  0  0  0  0  0
   -1.9997    1.9403    1.6608 H   0  0  0  0  0  0  0  0  0  0  0  0
  1  2  1  0
  2  3  2  0
  2  4  1  0
  4  5  1  0
  5  6  1  0
  6  7  1  0
  7  8  1  0
  8  9  1  0
  9 10  1  0
 10 11  1  0
 11 12  1  0
 12 13  1  0
 11 14  1  0
 14 15  1  0
 15 16  2  0
 16 17  1  0
 17 18  2  0
 18 19  1  0
 19 20  2  0
 14 21  1  0
 21 22  2  0
 22 23  1  0
 23 24  2  0
 24 25  1  0
 24 26  1  0
 26 27  2  0
 13  8  1  0
 20 15  1  0
 27 21  1  0
  1 28  1  0
  4 29  1  0
  4 30  1  0
  6 31  1  0
  6 32  1  0
  7 33  1  0
  7 34  1  0
  9 35  1  0
  9 36  1  0
 10 37  1  0
 10 38  1  0
 12 39  1  0
 12 40  1  0
 13 41  1  0
 13 42  1  0
 14 43  1  6
 16 44  1  0
 17 45  1  0
 18 46  1  0
 19 47  1  0
 20 48  1  0
 22 49  1  0
 23 50  1  0
 26 51  1  0
 27 52  1  0
M  END
$$$$
