@<TRIPOS>MOLECULE
*****
 52 54 0 0 0
SMALL
GASTEIGER

@<TRIPOS>ATOM
      1 O           5.3257    2.0661    0.2804 O.3     1  UNL1       -0.4790
      2 C           5.1455    0.8625   -0.3884 C.2     1  UNL1        0.3308
      3 O           4.8157    1.0665   -1.6029 O.2     1  UNL1       -0.2484
      4 C           5.3819   -0.3326    0.4776 C.3     1  UNL1        0.1443
      5 O           5.2084   -1.5292   -0.1665 O.3     1  UNL1       -0.3674
      6 C           3.9318   -1.7321   -0.6916 C.3     1  UNL1        0.0611
      7 C           2.8611   -1.7091    0.3355 C.3     1  UNL1        0.0225
      8 N           1.5268   -1.9172   -0.1133 N.3     1  UNL1       -0.2977
      9 C           0.6265   -1.8756    1.0248 C.3     1  UNL1        0.0118
     10 C           0.2530   -0.4584    1.3918 C.3     1  UNL1        0.0126
     11 N          -0.2403    0.3062    0.2675 N.3     1  UNL1       -0.2891
     12 C           0.6668    0.2598   -0.8593 C.3     1  UNL1        0.0126
     13 C           1.0735   -1.1462   -1.2117 C.3     1  UNL1        0.0118
     14 C          -1.5642   -0.1097   -0.1398 C.3     1  UNL1        0.0610
     15 C          -1.9873    0.7451   -1.2766 C.ar    1  UNL1       -0.0259
     16 C          -1.8193    2.1084   -1.3512 C.ar    1  UNL1       -0.0568
     17 C          -2.2572    2.8149   -2.4651 C.ar    1  UNL1       -0.0614
     18 C          -2.8666    2.1540   -3.5106 C.ar    1  UNL1       -0.0617
     19 C          -3.0723    0.7826   -3.5110 C.ar    1  UNL1       -0.0614
     20 C          -2.6104    0.1294   -2.3641 C.ar    1  UNL1       -0.0568
     21 C          -2.5626    0.0432    0.9406 C.ar    1  UNL1       -0.0258
     22 C          -3.5094   -0.9548    1.2039 C.ar    1  UNL1       -0.0554
     23 C          -4.4802   -0.9205    2.1827 C.ar    1  UNL1       -0.0431
     24 C          -4.5107    0.2098    2.9699 C.ar    1  UNL1        0.0410
     25 CL         -5.7590    0.2334    4.2144 Cl      1  UNL1       -0.0835
     26 C          -3.6151    1.2408    2.7791 C.ar    1  UNL1       -0.0431
     27 C          -2.6763    1.1250    1.7776 C.ar    1  UNL1       -0.0554
     28 H           5.5145    2.9536   -0.1686 H       1  UNL1        0.2951
     29 H           4.7764   -0.2524    1.3973 H       1  UNL1        0.0676
     30 H           6.4517   -0.3332    0.8417 H       1  UNL1        0.0676
     31 H           3.9522   -2.7442   -1.1456 H       1  UNL1        0.0573
     32 H           3.7751   -1.0246   -1.5522 H       1  UNL1        0.0573
     33 H           2.8700   -0.8101    0.9868 H       1  UNL1        0.0449
     34 H           3.0902   -2.5560    1.0474 H       1  UNL1        0.0449
     35 H          -0.2692   -2.4591    0.7705 H       1  UNL1        0.0439
     36 H           1.1735   -2.3104    1.8857 H       1  UNL1        0.0439
     37 H          -0.5123   -0.4896    2.1666 H       1  UNL1        0.0439
     38 H           1.1532    0.0505    1.7935 H       1  UNL1        0.0439
     39 H           1.5118    0.9495   -0.6885 H       1  UNL1        0.0439
     40 H           0.1130    0.6423   -1.7411 H       1  UNL1        0.0439
     41 H           0.1440   -1.6476   -1.6058 H       1  UNL1        0.0439
     42 H           1.8331   -1.1078   -2.0059 H       1  UNL1        0.0439
     43 H          -1.5732   -1.1898   -0.4221 H       1  UNL1        0.0562
     44 H          -1.3392    2.6123   -0.5273 H       1  UNL1        0.0621
     45 H          -2.1227    3.8855   -2.5179 H       1  UNL1        0.0618
     46 H          -3.2223    2.6858   -4.4023 H       1  UNL1        0.0618
     47 H          -3.5377    0.2083   -4.2880 H       1  UNL1        0.0618
     48 H          -2.7577   -0.9506   -2.3346 H       1  UNL1        0.0621
     49 H          -3.4722   -1.8511    0.5669 H       1  UNL1        0.0621
     50 H          -5.1525   -1.7616    2.2811 H       1  UNL1        0.0632
     51 H          -3.6858    2.0977    3.4229 H       1  UNL1        0.0632
     52 H          -1.9997    1.9403    1.6608 H       1  UNL1        0.0621
@<TRIPOS>BOND
     1     1     2    1
     2     2     3    2
     3     2     4    1
     4     4     5    1
     5     5     6    1
     6     6     7    1
     7     7     8    1
     8     8     9    1
     9     9    10    1
    10    10    11    1
    11    11    12    1
    12    12    13    1
    13    11    14    1
    14    14    15    1
    15    15    16   ar
    16    16    17   ar
    17    17    18   ar
    18    18    19   ar
    19    19    20   ar
    20    14    21    1
    21    21    22   ar
    22    22    23   ar
    23    23    24   ar
    24    24    25    1
    25    24    26   ar
    26    26    27   ar
    27    13     8    1
    28    20    15   ar
    29    27    21   ar
    30     1    28    1
    31     4    29    1
    32     4    30    1
    33     6    31    1
    34     6    32    1
    35     7    33    1
    36     7    34    1
    37     9    35    1
    38     9    36    1
    39    10    37    1
    40    10    38    1
    41    12    39    1
    42    12    40    1
    43    13    41    1
    44    13    42    1
    45    14    43    1
    46    16    44    1
    47    17    45    1
    48    18    46    1
    49    19    47    1
    50    20    48    1
    51    22    49    1
    52    23    50    1
    53    26    51    1
    54    27    52    1
