
     RDKit          3D

 35 35  0  0  0  0  0  0  0  0999 V2000
    3.5132   -1.0024   -1.1232 C   0  0  0  0  0  0  0  0  0  0  0  0
    3.0463   -0.4853    0.2182 C   0  0  0  0  0  0  0  0  0  0  0  0
    2.0300    0.6077    0.0971 C   0  0  0  0  0  0  0  0  0  0  0  0
    1.6507    1.0309    1.5093 C   0  0  0  0  0  0  0  0  0  0  0  0
    2.5924    1.8368   -0.5825 C   0  0  0  0  0  0  0  0  0  0  0  0
    0.8334    0.1806   -0.6840 C   0  0  0  0  0  0  0  0  0  0  0  0
    0.5072    0.7806   -1.7483 O   0  0  0  0  0  0  0  0  0  0  0  0
    0.0284   -0.9011   -0.2656 N   0  0  0  0  0  0  0  0  0  0  0  0
    0.3643   -1.5541    0.8638 O   0  0  0  0  0  0  0  0  0  0  0  0
   -1.1198   -1.2709   -1.0474 C   0  0  0  0  0  0  0  0  0  0  0  0
   -2.3688   -0.6116   -0.6555 C   0  0  0  0  0  0  0  0  0  0  0  0
   -3.1822   -1.1744    0.3016 C   0  0  0  0  0  0  0  0  0  0  0  0
   -4.3795   -0.5657    0.6894 C   0  0  0  0  0  0  0  0  0  0  0  0
   -4.7616    0.6309    0.1012 C   0  0  0  0  0  0  0  0  0  0  0  0
   -3.9520    1.2020   -0.8592 C   0  0  0  0  0  0  0  0  0  0  0  0
   -2.7723    0.5771   -1.2236 C   0  0  0  0  0  0  0  0  0  0  0  0
    4.1102   -1.9141   -0.9373 H   0  0  0  0  0  0  0  0  0  0  0  0
    4.1543   -0.2373   -1.5812 H   0  0  0  0  0  0  0  0  0  0  0  0
    2.6315   -1.2715   -1.7384 H   0  0  0  0  0  0  0  0  0  0  0  0
    3.9480   -0.0339    0.7053 H   0  0  0  0  0  0  0  0  0  0  0  0
    2.6815   -1.2578    0.8924 H   0  0  0  0  0  0  0  0  0  0  0  0
    0.8456    1.7879    1.5194 H   0  0  0  0  0  0  0  0  0  0  0  0
    2.5610    1.5299    1.9297 H   0  0  0  0  0  0  0  0  0  0  0  0
    1.4295    0.1258    2.0909 H   0  0  0  0  0  0  0  0  0  0  0  0
    3.3626    2.3186    0.0385 H   0  0  0  0  0  0  0  0  0  0  0  0
    1.7324    2.5391   -0.7253 H   0  0  0  0  0  0  0  0  0  0  0  0
    2.9429    1.5779   -1.5967 H   0  0  0  0  0  0  0  0  0  0  0  0
   -0.2715   -2.2586    1.0900 H   0  0  0  0  0  0  0  0  0  0  0  0
   -0.8897   -0.9848   -2.1149 H   0  0  0  0  0  0  0  0  0  0  0  0
   -1.2228   -2.3865   -1.0975 H   0  0  0  0  0  0  0  0  0  0  0  0
   -2.8693   -2.1065    0.7493 H   0  0  0  0  0  0  0  0  0  0  0  0
   -5.0012   -1.0252    1.4418 H   0  0  0  0  0  0  0  0  0  0  0  0
   -5.6988    1.0947    0.4139 H   0  0  0  0  0  0  0  0  0  0  0  0
   -4.2794    2.1340   -1.2969 H   0  0  0  0  0  0  0  0  0  0  0  0
   -2.1966    1.0874   -1.9832 H   0  0  0  0  0  0  0  0  0  0  0  0
  1  2  1  0
  2  3  1  0
  3  4  1  0
  3  5  1  0
  3  6  1  0
  6  7  2  0
  6  8  1  0
  8  9  1  0
  8 10  1  0
 10 11  1  0
 11 12  2  0
 12 13  1  0
 13 14  2  0
 14 15  1  0
 15 16  2  0
 16 11  1  0
  1 17  1  0
  1 18  1  0
  1 19  1  0
  2 20  1  0
  2 21  1  0
  4 22  1  0
  4 23  1  0
  4 24  1  0
  5 25  1  0
  5 26  1  0
  5 27  1  0
  9 28  1  0
 10 29  1  0
 10 30  1  0
 12 31  1  0
 13 32  1  0
 14 33  1  0
 15 34  1  0
 16 35  1  0
M  END
$$$$
