@<TRIPOS>MOLECULE
*****
 35 35 0 0 0
SMALL
GASTEIGER

@<TRIPOS>ATOM
      1 C           3.5132   -1.0024   -1.1232 C.3     1  UNL1       -0.0643
      2 C           3.0463   -0.4853    0.2182 C.3     1  UNL1       -0.0424
      3 C           2.0300    0.6077    0.0971 C.3     1  UNL1        0.0433
      4 C           1.6507    1.0309    1.5093 C.3     1  UNL1       -0.0514
      5 C           2.5924    1.8368   -0.5825 C.3     1  UNL1       -0.0514
      6 C           0.8334    0.1806   -0.6840 C.2     1  UNL1        0.2439
      7 O           0.5072    0.7806   -1.7483 O.2     1  UNL1       -0.2729
      8 N           0.0284   -0.9011   -0.2656 N.am    1  UNL1       -0.1790
      9 O           0.3643   -1.5541    0.8638 O.3     1  UNL1       -0.2922
     10 C          -1.1198   -1.2709   -1.0474 C.3     1  UNL1        0.0667
     11 C          -2.3688   -0.6116   -0.6555 C.ar    1  UNL1       -0.0277
     12 C          -3.1822   -1.1744    0.3016 C.ar    1  UNL1       -0.0570
     13 C          -4.3795   -0.5657    0.6894 C.ar    1  UNL1       -0.0615
     14 C          -4.7616    0.6309    0.1012 C.ar    1  UNL1       -0.0617
     15 C          -3.9520    1.2020   -0.8592 C.ar    1  UNL1       -0.0615
     16 C          -2.7723    0.5771   -1.2236 C.ar    1  UNL1       -0.0570
     17 H           4.1102   -1.9141   -0.9373 H       1  UNL1        0.0230
     18 H           4.1543   -0.2373   -1.5812 H       1  UNL1        0.0230
     19 H           2.6315   -1.2715   -1.7384 H       1  UNL1        0.0230
     20 H           3.9480   -0.0339    0.7053 H       1  UNL1        0.0272
     21 H           2.6815   -1.2578    0.8924 H       1  UNL1        0.0272
     22 H           0.8456    1.7879    1.5194 H       1  UNL1        0.0240
     23 H           2.5610    1.5299    1.9297 H       1  UNL1        0.0240
     24 H           1.4295    0.1258    2.0909 H       1  UNL1        0.0240
     25 H           3.3626    2.3186    0.0385 H       1  UNL1        0.0240
     26 H           1.7324    2.5391   -0.7253 H       1  UNL1        0.0240
     27 H           2.9429    1.5779   -1.5967 H       1  UNL1        0.0240
     28 H          -0.2715   -2.2586    1.0900 H       1  UNL1        0.2417
     29 H          -0.8897   -0.9848   -2.1149 H       1  UNL1        0.0539
     30 H          -1.2228   -2.3865   -1.0975 H       1  UNL1        0.0539
     31 H          -2.8693   -2.1065    0.7493 H       1  UNL1        0.0621
     32 H          -5.0012   -1.0252    1.4418 H       1  UNL1        0.0618
     33 H          -5.6988    1.0947    0.4139 H       1  UNL1        0.0618
     34 H          -4.2794    2.1340   -1.2969 H       1  UNL1        0.0618
     35 H          -2.1966    1.0874   -1.9832 H       1  UNL1        0.0621
@<TRIPOS>BOND
     1     1     2    1
     2     2     3    1
     3     3     4    1
     4     3     5    1
     5     3     6    1
     6     6     7    2
     7     6     8   am
     8     8     9    1
     9     8    10    1
    10    10    11    1
    11    11    12   ar
    12    12    13   ar
    13    13    14   ar
    14    14    15   ar
    15    15    16   ar
    16    16    11   ar
    17     1    17    1
    18     1    18    1
    19     1    19    1
    20     2    20    1
    21     2    21    1
    22     4    22    1
    23     4    23    1
    24     4    24    1
    25     5    25    1
    26     5    26    1
    27     5    27    1
    28     9    28    1
    29    10    29    1
    30    10    30    1
    31    12    31    1
    32    13    32    1
    33    14    33    1
    34    15    34    1
    35    16    35    1
