@<TRIPOS>MOLECULE
*****
 53 55 0 0 0
SMALL
GASTEIGER

@<TRIPOS>ATOM
      1 N           1.4321    1.1026    0.5768 N.pl3   1  UNL1       -0.2993
      2 C           0.2242    0.3712    0.4348 C.ar    1  UNL1        0.0326
      3 C           0.0536   -0.6180   -0.5057 C.ar    1  UNL1       -0.0371
      4 C          -1.1734   -1.2883   -0.5878 C.ar    1  UNL1       -0.0182
      5 C          -2.2455   -0.9829    0.2641 C.ar    1  UNL1        0.1207
      6 O          -3.2682   -1.8084   -0.0799 O.3     1  UNL1       -0.4894
      7 C          -4.5457   -1.8799    0.4574 C.3     1  UNL1        0.1166
      8 C          -5.3743   -0.6273    0.2913 C.3     1  UNL1        0.1017
      9 O          -5.4599   -0.4243   -1.1087 O.3     1  UNL1       -0.3872
     10 C          -6.7698   -0.8599    0.8432 C.3     1  UNL1        0.0276
     11 N          -7.6475    0.2382    0.6054 N.3     1  UNL1       -0.3058
     12 C          -8.0045    0.4611   -0.7639 C.3     1  UNL1       -0.0130
     13 C          -7.3887    1.4292    1.3441 C.3     1  UNL1       -0.0130
     14 C          -2.0060    0.0137    1.1791 C.ar    1  UNL1       -0.0182
     15 C          -0.8123    0.6879    1.2818 C.ar    1  UNL1       -0.0371
     16 C           2.6130    1.0575   -0.2089 C.ar    1  UNL1        0.1279
     17 C           3.7067    0.2411   -0.0287 C.ar    1  UNL1        0.0185
     18 C           4.7457    0.3798   -0.9210 C.ar    1  UNL1        0.1280
     19 N           4.6560    1.2967   -1.9244 N.ar    1  UNL1       -0.2205
     20 C           3.5843    2.0897   -2.0927 C.ar    1  UNL1        0.1201
     21 N           2.5620    1.9636   -1.2270 N.ar    1  UNL1       -0.2205
     22 N           5.8967   -0.4343   -0.7893 N.pl3   1  UNL1       -0.2948
     23 C           7.1280   -0.4081   -0.0825 C.ar    1  UNL1        0.1037
     24 C           7.4550   -0.9551    1.1454 C.ar    1  UNL1        0.1473
     25 F           6.4420   -1.6048    1.7297 F       1  UNL1       -0.2034
     26 C           8.7343   -0.7893    1.6315 C.ar    1  UNL1       -0.0244
     27 C           9.7160   -0.0995    0.9510 C.ar    1  UNL1       -0.0562
     28 C           9.3908    0.4484   -0.2772 C.ar    1  UNL1       -0.0244
     29 C           8.1005    0.2975   -0.7979 C.ar    1  UNL1        0.1473
     30 F           7.9408    0.8906   -2.0076 F       1  UNL1       -0.2034
     31 H           1.5780    1.7983    1.3331 H       1  UNL1        0.1536
     32 H           0.9259   -0.7847   -1.1134 H       1  UNL1        0.0637
     33 H          -1.0990   -2.0245   -1.3886 H       1  UNL1        0.0655
     34 H          -4.5170   -2.1460    1.5617 H       1  UNL1        0.0723
     35 H          -5.0957   -2.7385   -0.0243 H       1  UNL1        0.0723
     36 H          -4.9279    0.2192    0.7851 H       1  UNL1        0.0640
     37 H          -5.4265   -1.3000   -1.5453 H       1  UNL1        0.2100
     38 H          -7.1762   -1.7454    0.3375 H       1  UNL1        0.0453
     39 H          -6.6814   -0.9936    1.9368 H       1  UNL1        0.0453
     40 H          -8.2877   -0.4427   -1.3006 H       1  UNL1        0.0391
     41 H          -7.2640    1.0413   -1.3538 H       1  UNL1        0.0391
     42 H          -8.9149    1.1264   -0.7440 H       1  UNL1        0.0391
     43 H          -6.4151    1.4485    1.8529 H       1  UNL1        0.0391
     44 H          -7.4011    2.2853    0.6264 H       1  UNL1        0.0391
     45 H          -8.2158    1.6415    2.0743 H       1  UNL1        0.0391
     46 H          -2.8591    0.1846    1.8010 H       1  UNL1        0.0655
     47 H          -0.8050    1.4481    2.0672 H       1  UNL1        0.0637
     48 H           3.6723   -0.4495    0.8001 H       1  UNL1        0.0686
     49 H           3.6174    2.7847   -2.9252 H       1  UNL1        0.1048
     50 H           5.7746   -1.2949   -1.4004 H       1  UNL1        0.1537
     51 H           8.9396   -1.2403    2.6009 H       1  UNL1        0.0647
     52 H          10.7125    0.0074    1.3715 H       1  UNL1        0.0619
     53 H          10.1803    0.9863   -0.7925 H       1  UNL1        0.0647
@<TRIPOS>BOND
     1     1     2    1
     2     2     3   ar
     3     3     4   ar
     4     4     5   ar
     5     5     6    1
     6     6     7    1
     7     7     8    1
     8     8     9    1
     9     8    10    1
    10    10    11    1
    11    11    12    1
    12    11    13    1
    13     5    14   ar
    14    14    15   ar
    15     1    16    1
    16    16    17   ar
    17    17    18   ar
    18    18    19   ar
    19    19    20   ar
    20    20    21   ar
    21    18    22    1
    22    22    23    1
    23    23    24   ar
    24    24    25    1
    25    24    26   ar
    26    26    27   ar
    27    27    28   ar
    28    28    29   ar
    29    29    30    1
    30    15     2   ar
    31    21    16   ar
    32    29    23   ar
    33     1    31    1
    34     3    32    1
    35     4    33    1
    36     7    34    1
    37     7    35    1
    38     8    36    1
    39     9    37    1
    40    10    38    1
    41    10    39    1
    42    12    40    1
    43    12    41    1
    44    12    42    1
    45    13    43    1
    46    13    44    1
    47    13    45    1
    48    14    46    1
    49    15    47    1
    50    17    48    1
    51    20    49    1
    52    22    50    1
    53    26    51    1
    54    27    52    1
    55    28    53    1
