
     RDKit          3D

 53 55  0  0  0  0  0  0  0  0999 V2000
    1.4321    1.1026    0.5768 N   0  0  0  0  0  0  0  0  0  0  0  0
    0.2242    0.3712    0.4348 C   0  0  0  0  0  0  0  0  0  0  0  0
    0.0536   -0.6180   -0.5057 C   0  0  0  0  0  0  0  0  0  0  0  0
   -1.1734   -1.2883   -0.5878 C   0  0  0  0  0  0  0  0  0  0  0  0
   -2.2455   -0.9829    0.2641 C   0  0  0  0  0  0  0  0  0  0  0  0
   -3.2682   -1.8084   -0.0799 O   0  0  0  0  0  0  0  0  0  0  0  0
   -4.5457   -1.8799    0.4574 C   0  0  0  0  0  0  0  0  0  0  0  0
   -5.3743   -0.6273    0.2913 C   0  0  1  0  0  0  0  0  0  0  0  0
   -5.4599   -0.4243   -1.1087 O   0  0  0  0  0  0  0  0  0  0  0  0
   -6.7698   -0.8599    0.8432 C   0  0  0  0  0  0  0  0  0  0  0  0
   -7.6475    0.2382    0.6054 N   0  0  0  0  0  0  0  0  0  0  0  0
   -8.0045    0.4611   -0.7639 C   0  0  0  0  0  0  0  0  0  0  0  0
   -7.3887    1.4292    1.3441 C   0  0  0  0  0  0  0  0  0  0  0  0
   -2.0060    0.0137    1.1791 C   0  0  0  0  0  0  0  0  0  0  0  0
   -0.8123    0.6879    1.2818 C   0  0  0  0  0  0  0  0  0  0  0  0
    2.6130    1.0575   -0.2089 C   0  0  0  0  0  0  0  0  0  0  0  0
    3.7067    0.2411   -0.0287 C   0  0  0  0  0  0  0  0  0  0  0  0
    4.7457    0.3798   -0.9210 C   0  0  0  0  0  0  0  0  0  0  0  0
    4.6560    1.2967   -1.9244 N   0  0  0  0  0  0  0  0  0  0  0  0
    3.5843    2.0897   -2.0927 C   0  0  0  0  0  0  0  0  0  0  0  0
    2.5620    1.9636   -1.2270 N   0  0  0  0  0  0  0  0  0  0  0  0
    5.8967   -0.4343   -0.7893 N   0  0  0  0  0  0  0  0  0  0  0  0
    7.1280   -0.4081   -0.0825 C   0  0  0  0  0  0  0  0  0  0  0  0
    7.4550   -0.9551    1.1454 C   0  0  0  0  0  0  0  0  0  0  0  0
    6.4420   -1.6048    1.7297 F   0  0  0  0  0  0  0  0  0  0  0  0
    8.7343   -0.7893    1.6315 C   0  0  0  0  0  0  0  0  0  0  0  0
    9.7160   -0.0995    0.9510 C   0  0  0  0  0  0  0  0  0  0  0  0
    9.3908    0.4484   -0.2772 C   0  0  0  0  0  0  0  0  0  0  0  0
    8.1005    0.2975   -0.7979 C   0  0  0  0  0  0  0  0  0  0  0  0
    7.9408    0.8906   -2.0076 F   0  0  0  0  0  0  0  0  0  0  0  0
    1.5780    1.7983    1.3331 H   0  0  0  0  0  0  0  0  0  0  0  0
    0.9259   -0.7847   -1.1134 H   0  0  0  0  0  0  0  0  0  0  0  0
   -1.0990   -2.0245   -1.3886 H   0  0  0  0  0  0  0  0  0  0  0  0
   -4.5170   -2.1460    1.5617 H   0  0  0  0  0  0  0  0  0  0  0  0
   -5.0957   -2.7385   -0.0243 H   0  0  0  0  0  0  0  0  0  0  0  0
   -4.9279    0.2192    0.7851 H   0  0  0  0  0  0  0  0  0  0  0  0
   -5.4265   -1.3000   -1.5453 H   0  0  0  0  0  0  0  0  0  0  0  0
   -7.1762   -1.7454    0.3375 H   0  0  0  0  0  0  0  0  0  0  0  0
   -6.6814   -0.9936    1.9368 H   0  0  0  0  0  0  0  0  0  0  0  0
   -8.2877   -0.4427   -1.3006 H   0  0  0  0  0  0  0  0  0  0  0  0
   -7.2640    1.0413   -1.3538 H   0  0  0  0  0  0  0  0  0  0  0  0
   -8.9149    1.1264   -0.7440 H   0  0  0  0  0  0  0  0  0  0  0  0
   -6.4151    1.4485    1.8529 H   0  0  0  0  0  0  0  0  0  0  0  0
   -7.4011    2.2853    0.6264 H   0  0  0  0  0  0  0  0  0  0  0  0
   -8.2158    1.6415    2.0743 H   0  0  0  0  0  0  0  0  0  0  0  0
   -2.8591    0.1846    1.8010 H   0  0  0  0  0  0  0  0  0  0  0  0
   -0.8050    1.4481    2.0672 H   0  0  0  0  0  0  0  0  0  0  0  0
    3.6723   -0.4495    0.8001 H   0  0  0  0  0  0  0  0  0  0  0  0
    3.6174    2.7847   -2.9252 H   0  0  0  0  0  0  0  0  0  0  0  0
    5.7746   -1.2949   -1.4004 H   0  0  0  0  0  0  0  0  0  0  0  0
    8.9396   -1.2403    2.6009 H   0  0  0  0  0  0  0  0  0  0  0  0
   10.7125    0.0074    1.3715 H   0  0  0  0  0  0  0  0  0  0  0  0
   10.1803    0.9863   -0.7925 H   0  0  0  0  0  0  0  0  0  0  0  0
  1  2  1  0
  2  3  2  0
  3  4  1  0
  4  5  2  0
  5  6  1  0
  6  7  1  0
  7  8  1  0
  8  9  1  0
  8 10  1  0
 10 11  1  0
 11 12  1  0
 11 13  1  0
  5 14  1  0
 14 15  2  0
  1 16  1  0
 16 17  2  0
 17 18  1  0
 18 19  2  0
 19 20  1  0
 20 21  2  0
 18 22  1  0
 22 23  1  0
 23 24  2  0
 24 25  1  0
 24 26  1  0
 26 27  2  0
 27 28  1  0
 28 29  2  0
 29 30  1  0
 15  2  1  0
 21 16  1  0
 29 23  1  0
  1 31  1  0
  3 32  1  0
  4 33  1  0
  7 34  1  0
  7 35  1  0
  8 36  1  1
  9 37  1  0
 10 38  1  0
 10 39  1  0
 12 40  1  0
 12 41  1  0
 12 42  1  0
 13 43  1  0
 13 44  1  0
 13 45  1  0
 14 46  1  0
 15 47  1  0
 17 48  1  0
 20 49  1  0
 22 50  1  0
 26 51  1  0
 27 52  1  0
 28 53  1  0
M  END
$$$$
