@<TRIPOS>MOLECULE
*****
 53 58 0 0 0
SMALL
GASTEIGER

@<TRIPOS>ATOM
      1 N          -0.6206   -0.9975   -3.1396 N.pl3   1  UNL1       -0.3134
      2 C          -0.8681   -0.2024   -1.9989 C.2     1  UNL1        0.2763
      3 N          -1.1307   -0.7670   -0.8789 N.2     1  UNL1       -0.2205
      4 C          -1.4007   -0.0763    0.3543 C.3     1  UNL1        0.1264
      5 C          -1.7811    1.3481    0.0664 C.3     1  UNL1        0.0155
      6 C          -1.0778    2.0239   -1.0356 C.3     1  UNL1        0.0953
      7 O          -0.8215    1.1763   -2.1167 O.2     1  UNL1       -0.4658
      8 C          -0.2221   -0.1376    1.2443 C.ar    1  UNL1        0.0287
      9 C           1.0067    0.3371    0.7518 C.ar    1  UNL1       -0.0312
     10 C           2.1479    0.3466    1.5229 C.ar    1  UNL1        0.0343
     11 N           3.3856    0.8342    1.0020 N.am    1  UNL1       -0.2802
     12 C           4.3271    0.0152    0.3364 C.2     1  UNL1        0.2666
     13 O           4.0221   -1.2101    0.2149 O.2     1  UNL1       -0.2682
     14 C           5.5874    0.5249   -0.1911 C.ar    1  UNL1        0.1257
     15 C           6.4901   -0.2848   -0.8347 C.ar    1  UNL1       -0.0298
     16 C           7.6859    0.1791   -1.3397 C.ar    1  UNL1       -0.0397
     17 C           7.9543    1.5341   -1.1702 C.ar    1  UNL1        0.0591
     18 CL          9.4751    2.1880   -1.7980 Cl      1  UNL1       -0.0820
     19 C           7.0450    2.3471   -0.5225 C.ar    1  UNL1        0.0467
     20 N           5.8993    1.8141   -0.0586 N.ar    1  UNL1       -0.2489
     21 C           2.0425   -0.1324    2.8116 C.ar    1  UNL1       -0.0370
     22 C           0.8485   -0.6019    3.3088 C.ar    1  UNL1       -0.0172
     23 C          -0.3165   -0.6134    2.5245 C.ar    1  UNL1        0.1344
     24 O          -1.4976   -1.0983    3.0493 O.3     1  UNL1       -0.4538
     25 C          -2.6410   -1.1237    2.2921 C.ar    1  UNL1        0.1522
     26 C          -3.8282   -1.6287    2.8476 C.ar    1  UNL1        0.0705
     27 N          -4.9089   -1.6412    2.0824 N.ar    1  UNL1       -0.2559
     28 C          -4.9459   -1.2045    0.8134 C.ar    1  UNL1        0.0449
     29 C          -6.2137   -1.2492   -0.0010 C.3     1  UNL1        0.0014
     30 C          -6.0403   -1.6797   -1.4193 C.3     1  UNL1       -0.0442
     31 C          -6.3865   -0.2684   -1.0969 C.3     1  UNL1       -0.0442
     32 C          -3.7872   -0.7086    0.2644 C.ar    1  UNL1       -0.0308
     33 C          -2.6079   -0.6664    1.0209 C.ar    1  UNL1        0.0301
     34 H           0.3465   -1.4004   -3.2778 H       1  UNL1        0.1466
     35 H          -1.3604   -1.2110   -3.8670 H       1  UNL1        0.1466
     36 H          -2.8781    1.3394   -0.2022 H       1  UNL1        0.0328
     37 H          -1.7187    1.9308    1.0250 H       1  UNL1        0.0328
     38 H          -0.1517    2.5784   -0.7470 H       1  UNL1        0.0698
     39 H          -1.7590    2.8806   -1.3867 H       1  UNL1        0.0698
     40 H           1.1090    0.7003   -0.2553 H       1  UNL1        0.0641
     41 H           3.6489    1.8590    1.0995 H       1  UNL1        0.1552
     42 H           6.2689   -1.3345   -0.9593 H       1  UNL1        0.0641
     43 H           8.3639   -0.4961   -1.8383 H       1  UNL1        0.0633
     44 H           7.2837    3.3853   -0.4094 H       1  UNL1        0.0844
     45 H           2.9369   -0.1249    3.4184 H       1  UNL1        0.0637
     46 H           0.7513   -0.9853    4.3305 H       1  UNL1        0.0655
     47 H          -3.7786   -1.9765    3.8732 H       1  UNL1        0.0867
     48 H          -7.1056   -1.6614    0.5088 H       1  UNL1        0.0364
     49 H          -6.8532   -2.2572   -1.9269 H       1  UNL1        0.0272
     50 H          -5.0513   -1.8622   -1.8564 H       1  UNL1        0.0272
     51 H          -7.4323    0.0885   -1.3298 H       1  UNL1        0.0272
     52 H          -5.6158    0.5324   -1.1567 H       1  UNL1        0.0272
     53 H          -3.8258   -0.3617   -0.7576 H       1  UNL1        0.0640
@<TRIPOS>BOND
     1     1     2    1
     2     2     3    2
     3     3     4    1
     4     4     5    1
     5     5     6    1
     6     6     7    1
     7     4     8    1
     8     8     9   ar
     9     9    10   ar
    10    10    11    1
    11    11    12   am
    12    12    13    2
    13    12    14    1
    14    14    15   ar
    15    15    16   ar
    16    16    17   ar
    17    17    18    1
    18    17    19   ar
    19    19    20   ar
    20    10    21   ar
    21    21    22   ar
    22    22    23   ar
    23    23    24    1
    24    24    25    1
    25    25    26   ar
    26    26    27   ar
    27    27    28   ar
    28    28    29    1
    29    29    30    1
    30    30    31    1
    31    28    32   ar
    32    32    33   ar
    33     7     2    1
    34    23     8   ar
    35    33    25   ar
    36    33     4    1
    37    20    14   ar
    38    31    29    1
    39     1    34    1
    40     1    35    1
    41     5    36    1
    42     5    37    1
    43     6    38    1
    44     6    39    1
    45     9    40    1
    46    11    41    1
    47    15    42    1
    48    16    43    1
    49    19    44    1
    50    21    45    1
    51    22    46    1
    52    26    47    1
    53    29    48    1
    54    30    49    1
    55    30    50    1
    56    31    51    1
    57    31    52    1
    58    32    53    1
