
     RDKit          3D

 76 80  0  0  0  0  0  0  0  0999 V2000
   -3.9872    4.1047    4.1460 C   0  0  0  0  0  0  0  0  0  0  0  0
   -4.1981    3.1440    3.0261 C   0  0  0  0  0  0  0  0  0  0  0  0
   -4.0458    1.7833    3.1851 C   0  0  0  0  0  0  0  0  0  0  0  0
   -4.2431    0.8956    2.1441 C   0  0  0  0  0  0  0  0  0  0  0  0
   -4.6050    1.3365    0.8865 C   0  0  0  0  0  0  0  0  0  0  0  0
   -4.8096    0.4175   -0.1887 N   0  0  0  0  0  0  0  0  0  0  0  0
   -5.8740   -0.3529   -0.3366 N   0  0  0  0  0  0  0  0  0  0  0  0
   -5.7890   -1.1118   -1.4426 C   0  0  0  0  0  0  0  0  0  0  0  0
   -6.7938   -2.1072   -1.9455 C   0  0  0  0  0  0  0  0  0  0  0  0
   -7.9515   -2.1755   -0.9922 C   0  0  0  0  0  0  0  0  0  0  0  0
   -7.3193   -1.4918   -3.2513 C   0  0  0  0  0  0  0  0  0  0  0  0
   -6.1567   -3.4234   -2.2406 C   0  0  0  0  0  0  0  0  0  0  0  0
   -4.5809   -0.7836   -2.0190 C   0  0  0  0  0  0  0  0  0  0  0  0
   -3.9817    0.1731   -1.2230 C   0  0  0  0  0  0  0  0  0  0  0  0
   -2.7188    0.7671   -1.4828 N   0  0  0  0  0  0  0  0  0  0  0  0
   -1.4829    0.2465   -0.9873 C   0  0  0  0  0  0  0  0  0  0  0  0
   -1.5448   -0.7954   -0.2845 O   0  0  0  0  0  0  0  0  0  0  0  0
   -0.2368    0.8876   -1.2810 N   0  0  0  0  0  0  0  0  0  0  0  0
    0.9929    0.3576   -0.7727 C   0  0  0  0  0  0  0  0  0  0  0  0
    1.4909    0.7579    0.4533 C   0  0  0  0  0  0  0  0  0  0  0  0
    2.6920    0.2004    0.8758 C   0  0  0  0  0  0  0  0  0  0  0  0
    3.4181   -0.7132    0.1719 C   0  0  0  0  0  0  0  0  0  0  0  0
    4.5866   -1.2909    0.5271 O   0  0  0  0  0  0  0  0  0  0  0  0
    5.4128   -1.1742    1.6201 C   0  0  0  0  0  0  0  0  0  0  0  0
    6.0296    0.1667    1.8630 C   0  0  0  0  0  0  0  0  0  0  0  0
    6.8450    0.6645    0.7884 N   0  0  0  0  0  0  0  0  0  0  0  0
    7.2668    2.0228    1.1682 C   0  0  0  0  0  0  0  0  0  0  0  0
    8.2965    2.0385    2.2463 C   0  0  0  0  0  0  0  0  0  0  0  0
    8.9026    0.7932    2.4073 O   0  0  0  0  0  0  0  0  0  0  0  0
    9.2599    0.2910    1.1563 C   0  0  0  0  0  0  0  0  0  0  0  0
    7.9823   -0.1318    0.4585 C   0  0  0  0  0  0  0  0  0  0  0  0
    2.8923   -1.1085   -1.0750 C   0  0  0  0  0  0  0  0  0  0  0  0
    3.5841   -2.0361   -1.8443 C   0  0  0  0  0  0  0  0  0  0  0  0
    3.1162   -2.4612   -3.0808 C   0  0  0  0  0  0  0  0  0  0  0  0
    1.9238   -1.8968   -3.4817 C   0  0  0  0  0  0  0  0  0  0  0  0
    1.2249   -0.9858   -2.7488 C   0  0  0  0  0  0  0  0  0  0  0  0
    1.7161   -0.5762   -1.5118 C   0  0  0  0  0  0  0  0  0  0  0  0
   -4.7585    2.6986    0.7239 C   0  0  0  0  0  0  0  0  0  0  0  0
   -4.5620    3.5904    1.7634 C   0  0  0  0  0  0  0  0  0  0  0  0
   -4.6698    3.9029    5.0044 H   0  0  0  0  0  0  0  0  0  0  0  0
   -4.2223    5.1169    3.8027 H   0  0  0  0  0  0  0  0  0  0  0  0
   -2.9524    4.0121    4.5778 H   0  0  0  0  0  0  0  0  0  0  0  0
   -3.7645    1.4270    4.1571 H   0  0  0  0  0  0  0  0  0  0  0  0
   -4.1264   -0.1802    2.2583 H   0  0  0  0  0  0  0  0  0  0  0  0
   -8.8878   -2.2052   -1.5842 H   0  0  0  0  0  0  0  0  0  0  0  0
   -7.9871   -1.3015   -0.3134 H   0  0  0  0  0  0  0  0  0  0  0  0
   -7.9349   -3.1388   -0.4228 H   0  0  0  0  0  0  0  0  0  0  0  0
   -7.8013   -2.3109   -3.8051 H   0  0  0  0  0  0  0  0  0  0  0  0
   -6.5425   -0.9625   -3.8057 H   0  0  0  0  0  0  0  0  0  0  0  0
   -8.1372   -0.7597   -2.9881 H   0  0  0  0  0  0  0  0  0  0  0  0
   -5.6149   -3.7600   -1.3451 H   0  0  0  0  0  0  0  0  0  0  0  0
   -5.4308   -3.2687   -3.0632 H   0  0  0  0  0  0  0  0  0  0  0  0
   -6.9519   -4.1475   -2.4947 H   0  0  0  0  0  0  0  0  0  0  0  0
   -4.1600   -1.2027   -2.9472 H   0  0  0  0  0  0  0  0  0  0  0  0
   -2.6316    1.6411   -2.0680 H   0  0  0  0  0  0  0  0  0  0  0  0
   -0.2017    1.7438   -1.8646 H   0  0  0  0  0  0  0  0  0  0  0  0
    0.9423    1.4840    1.0429 H   0  0  0  0  0  0  0  0  0  0  0  0
    3.0424    0.5250    1.8410 H   0  0  0  0  0  0  0  0  0  0  0  0
    6.2294   -1.9353    1.5858 H   0  0  0  0  0  0  0  0  0  0  0  0
    4.8596   -1.4179    2.5859 H   0  0  0  0  0  0  0  0  0  0  0  0
    6.7275    0.0144    2.7533 H   0  0  0  0  0  0  0  0  0  0  0  0
    5.2797    0.8998    2.1649 H   0  0  0  0  0  0  0  0  0  0  0  0
    6.3335    2.5531    1.4455 H   0  0  0  0  0  0  0  0  0  0  0  0
    7.6838    2.4675    0.2460 H   0  0  0  0  0  0  0  0  0  0  0  0
    9.0996    2.7809    2.0426 H   0  0  0  0  0  0  0  0  0  0  0  0
    7.8451    2.3344    3.2258 H   0  0  0  0  0  0  0  0  0  0  0  0
    9.8279    1.0320    0.5625 H   0  0  0  0  0  0  0  0  0  0  0  0
    9.9379   -0.5657    1.3442 H   0  0  0  0  0  0  0  0  0  0  0  0
    8.1647   -0.0503   -0.6440 H   0  0  0  0  0  0  0  0  0  0  0  0
    7.7900   -1.2027    0.6434 H   0  0  0  0  0  0  0  0  0  0  0  0
    4.5195   -2.4553   -1.4911 H   0  0  0  0  0  0  0  0  0  0  0  0
    3.6472   -3.1810   -3.6839 H   0  0  0  0  0  0  0  0  0  0  0  0
    1.5468   -2.2280   -4.4587 H   0  0  0  0  0  0  0  0  0  0  0  0
    0.2797   -0.5409   -3.0721 H   0  0  0  0  0  0  0  0  0  0  0  0
   -5.0410    3.0574   -0.2502 H   0  0  0  0  0  0  0  0  0  0  0  0
   -4.6929    4.6604    1.5967 H   0  0  0  0  0  0  0  0  0  0  0  0
  1  2  1  0
  2  3  2  0
  3  4  1  0
  4  5  2  0
  5  6  1  0
  6  7  1  0
  7  8  2  0
  8  9  1  0
  9 10  1  0
  9 11  1  0
  9 12  1  0
  8 13  1  0
 13 14  2  0
 14 15  1  0
 15 16  1  0
 16 17  2  0
 16 18  1  0
 18 19  1  0
 19 20  2  0
 20 21  1  0
 21 22  2  0
 22 23  1  0
 23 24  1  0
 24 25  1  0
 25 26  1  0
 26 27  1  0
 27 28  1  0
 28 29  1  0
 29 30  1  0
 30 31  1  0
 22 32  1  0
 32 33  2  0
 33 34  1  0
 34 35  2  0
 35 36  1  0
 36 37  2  0
  5 38  1  0
 38 39  2  0
 39  2  1  0
 14  6  1  0
 37 19  1  0
 31 26  1  0
 37 32  1  0
  1 40  1  0
  1 41  1  0
  1 42  1  0
  3 43  1  0
  4 44  1  0
 10 45  1  0
 10 46  1  0
 10 47  1  0
 11 48  1  0
 11 49  1  0
 11 50  1  0
 12 51  1  0
 12 52  1  0
 12 53  1  0
 13 54  1  0
 15 55  1  0
 18 56  1  0
 20 57  1  0
 21 58  1  0
 24 59  1  0
 24 60  1  0
 25 61  1  0
 25 62  1  0
 27 63  1  0
 27 64  1  0
 28 65  1  0
 28 66  1  0
 30 67  1  0
 30 68  1  0
 31 69  1  0
 31 70  1  0
 33 71  1  0
 34 72  1  0
 35 73  1  0
 36 74  1  0
 38 75  1  0
 39 76  1  0
M  END
$$$$
