@<TRIPOS>MOLECULE
*****
 76 80 0 0 0
SMALL
GASTEIGER

@<TRIPOS>ATOM
      1 C          -3.9872    4.1047    4.1460 C.3     1  UNL1       -0.0397
      2 C          -4.1981    3.1440    3.0261 C.ar    1  UNL1       -0.0503
      3 C          -4.0458    1.7833    3.1851 C.ar    1  UNL1       -0.0568
      4 C          -4.2431    0.8956    2.1441 C.ar    1  UNL1       -0.0359
      5 C          -4.6050    1.3365    0.8865 C.ar    1  UNL1        0.0674
      6 N          -4.8096    0.4175   -0.1887 N.ar    1  UNL1       -0.2181
      7 N          -5.8740   -0.3529   -0.3366 N.ar    1  UNL1       -0.1691
      8 C          -5.7890   -1.1118   -1.4426 C.ar    1  UNL1        0.0706
      9 C          -6.7938   -2.1072   -1.9455 C.3     1  UNL1        0.0063
     10 C          -7.9515   -2.1755   -0.9922 C.3     1  UNL1       -0.0546
     11 C          -7.3193   -1.4918   -3.2513 C.3     1  UNL1       -0.0546
     12 C          -6.1567   -3.4234   -2.2406 C.3     1  UNL1       -0.0546
     13 C          -4.5809   -0.7836   -2.0190 C.ar    1  UNL1        0.0021
     14 C          -3.9817    0.1731   -1.2230 C.ar    1  UNL1        0.1299
     15 N          -2.7188    0.7671   -1.4828 N.am    1  UNL1       -0.2538
     16 C          -1.4829    0.2465   -0.9873 C.2     1  UNL1        0.3092
     17 O          -1.5448   -0.7954   -0.2845 O.2     1  UNL1       -0.2521
     18 N          -0.2368    0.8876   -1.2810 N.am    1  UNL1       -0.2686
     19 C           0.9929    0.3576   -0.7727 C.ar    1  UNL1        0.0427
     20 C           1.4909    0.7579    0.4533 C.ar    1  UNL1       -0.0364
     21 C           2.6920    0.2004    0.8758 C.ar    1  UNL1       -0.0176
     22 C           3.4181   -0.7132    0.1719 C.ar    1  UNL1        0.1283
     23 O           4.5866   -1.2909    0.5271 O.3     1  UNL1       -0.4901
     24 C           5.4128   -1.1742    1.6201 C.3     1  UNL1        0.1023
     25 C           6.0296    0.1667    1.8630 C.3     1  UNL1        0.0333
     26 N           6.8450    0.6645    0.7884 N.3     1  UNL1       -0.2948
     27 C           7.2668    2.0228    1.1682 C.3     1  UNL1        0.0225
     28 C           8.2965    2.0385    2.2463 C.3     1  UNL1        0.0604
     29 O           8.9026    0.7932    2.4073 O.3     1  UNL1       -0.3772
     30 C           9.2599    0.2910    1.1563 C.3     1  UNL1        0.0604
     31 C           7.9823   -0.1318    0.4585 C.3     1  UNL1        0.0225
     32 C           2.8923   -1.1085   -1.0750 C.ar    1  UNL1        0.0256
     33 C           3.5841   -2.0361   -1.8443 C.ar    1  UNL1       -0.0505
     34 C           3.1162   -2.4612   -3.0808 C.ar    1  UNL1       -0.0611
     35 C           1.9238   -1.8968   -3.4817 C.ar    1  UNL1       -0.0611
     36 C           1.2249   -0.9858   -2.7488 C.ar    1  UNL1       -0.0521
     37 C           1.7161   -0.5762   -1.5118 C.ar    1  UNL1        0.0069
     38 C          -4.7585    2.6986    0.7239 C.ar    1  UNL1       -0.0359
     39 C          -4.5620    3.5904    1.7634 C.ar    1  UNL1       -0.0568
     40 H          -4.6698    3.9029    5.0044 H       1  UNL1        0.0278
     41 H          -4.2223    5.1169    3.8027 H       1  UNL1        0.0278
     42 H          -2.9524    4.0121    4.5778 H       1  UNL1        0.0278
     43 H          -3.7645    1.4270    4.1571 H       1  UNL1        0.0621
     44 H          -4.1264   -0.1802    2.2583 H       1  UNL1        0.0639
     45 H          -8.8878   -2.2052   -1.5842 H       1  UNL1        0.0239
     46 H          -7.9871   -1.3015   -0.3134 H       1  UNL1        0.0239
     47 H          -7.9349   -3.1388   -0.4228 H       1  UNL1        0.0239
     48 H          -7.8013   -2.3109   -3.8051 H       1  UNL1        0.0239
     49 H          -6.5425   -0.9625   -3.8057 H       1  UNL1        0.0239
     50 H          -8.1372   -0.7597   -2.9881 H       1  UNL1        0.0239
     51 H          -5.6149   -3.7600   -1.3451 H       1  UNL1        0.0239
     52 H          -5.4308   -3.2687   -3.0632 H       1  UNL1        0.0239
     53 H          -6.9519   -4.1475   -2.4947 H       1  UNL1        0.0239
     54 H          -4.1600   -1.2027   -2.9472 H       1  UNL1        0.0671
     55 H          -2.6316    1.6411   -2.0680 H       1  UNL1        0.1578
     56 H          -0.2017    1.7438   -1.8646 H       1  UNL1        0.1564
     57 H           0.9423    1.4840    1.0429 H       1  UNL1        0.0637
     58 H           3.0424    0.5250    1.8410 H       1  UNL1        0.0655
     59 H           6.2294   -1.9353    1.5858 H       1  UNL1        0.0709
     60 H           4.8596   -1.4179    2.5859 H       1  UNL1        0.0709
     61 H           6.7275    0.0144    2.7533 H       1  UNL1        0.0460
     62 H           5.2797    0.8998    2.1649 H       1  UNL1        0.0460
     63 H           6.3335    2.5531    1.4455 H       1  UNL1        0.0449
     64 H           7.6838    2.4675    0.2460 H       1  UNL1        0.0449
     65 H           9.0996    2.7809    2.0426 H       1  UNL1        0.0572
     66 H           7.8451    2.3344    3.2258 H       1  UNL1        0.0572
     67 H           9.8279    1.0320    0.5625 H       1  UNL1        0.0572
     68 H           9.9379   -0.5657    1.3442 H       1  UNL1        0.0572
     69 H           8.1647   -0.0503   -0.6440 H       1  UNL1        0.0449
     70 H           7.7900   -1.2027    0.6434 H       1  UNL1        0.0449
     71 H           4.5195   -2.4553   -1.4911 H       1  UNL1        0.0625
     72 H           3.6472   -3.1810   -3.6839 H       1  UNL1        0.0618
     73 H           1.5468   -2.2280   -4.4587 H       1  UNL1        0.0618
     74 H           0.2797   -0.5409   -3.0721 H       1  UNL1        0.0624
     75 H          -5.0410    3.0574   -0.2502 H       1  UNL1        0.0639
     76 H          -4.6929    4.6604    1.5967 H       1  UNL1        0.0621
@<TRIPOS>BOND
     1     1     2    1
     2     2     3   ar
     3     3     4   ar
     4     4     5   ar
     5     5     6    1
     6     6     7   ar
     7     7     8   ar
     8     8     9    1
     9     9    10    1
    10     9    11    1
    11     9    12    1
    12     8    13   ar
    13    13    14   ar
    14    14    15    1
    15    15    16   am
    16    16    17    2
    17    16    18   am
    18    18    19    1
    19    19    20   ar
    20    20    21   ar
    21    21    22   ar
    22    22    23    1
    23    23    24    1
    24    24    25    1
    25    25    26    1
    26    26    27    1
    27    27    28    1
    28    28    29    1
    29    29    30    1
    30    30    31    1
    31    22    32   ar
    32    32    33   ar
    33    33    34   ar
    34    34    35   ar
    35    35    36   ar
    36    36    37   ar
    37     5    38   ar
    38    38    39   ar
    39    39     2   ar
    40    14     6   ar
    41    37    19   ar
    42    31    26    1
    43    37    32   ar
    44     1    40    1
    45     1    41    1
    46     1    42    1
    47     3    43    1
    48     4    44    1
    49    10    45    1
    50    10    46    1
    51    10    47    1
    52    11    48    1
    53    11    49    1
    54    11    50    1
    55    12    51    1
    56    12    52    1
    57    12    53    1
    58    13    54    1
    59    15    55    1
    60    18    56    1
    61    20    57    1
    62    21    58    1
    63    24    59    1
    64    24    60    1
    65    25    61    1
    66    25    62    1
    67    27    63    1
    68    27    64    1
    69    28    65    1
    70    28    66    1
    71    30    67    1
    72    30    68    1
    73    31    69    1
    74    31    70    1
    75    33    71    1
    76    34    72    1
    77    35    73    1
    78    36    74    1
    79    38    75    1
    80    39    76    1
