@<TRIPOS>MOLECULE
*****
 40 41 0 0 0
SMALL
GASTEIGER

@<TRIPOS>ATOM
      1 C          -3.5859   -1.9873   -1.1718 C.3     1  UNL1       -0.0130
      2 N          -2.8618   -1.2506   -0.1467 N.3     1  UNL1       -0.3062
      3 C          -3.6105   -1.3706    1.0933 C.3     1  UNL1       -0.0130
      4 C          -2.6729    0.1352   -0.5188 C.3     1  UNL1        0.0218
      5 C          -1.9315    0.9430    0.5018 C.3     1  UNL1        0.0616
      6 O          -0.6795    0.5333    0.7832 O.3     1  UNL1       -0.3661
      7 C           0.2633    0.5219   -0.2010 C.3     1  UNL1        0.1087
      8 C           1.0437   -0.7105   -0.3795 C.ar    1  UNL1       -0.0145
      9 C           0.6871   -2.0170   -0.3508 C.ar    1  UNL1       -0.0558
     10 C           1.5066   -3.1017   -0.5409 C.ar    1  UNL1       -0.0614
     11 C           2.8270   -2.9004   -0.7880 C.ar    1  UNL1       -0.0617
     12 C           3.3035   -1.6090   -0.8400 C.ar    1  UNL1       -0.0614
     13 C           2.4175   -0.5723   -0.6386 C.ar    1  UNL1       -0.0558
     14 C           1.2625    1.6763    0.0553 C.ar    1  UNL1       -0.0145
     15 C           1.6726    1.7636    1.3705 C.ar    1  UNL1       -0.0558
     16 C           2.5647    2.7435    1.7656 C.ar    1  UNL1       -0.0614
     17 C           3.0193    3.6153    0.8048 C.ar    1  UNL1       -0.0617
     18 C           2.6010    3.5165   -0.5062 C.ar    1  UNL1       -0.0614
     19 C           1.7164    2.5558   -0.9324 C.ar    1  UNL1       -0.0558
     20 H          -2.9291   -2.1547   -2.0679 H       1  UNL1        0.0391
     21 H          -3.8077   -2.9850   -0.7617 H       1  UNL1        0.0391
     22 H          -4.4714   -1.4271   -1.5266 H       1  UNL1        0.0391
     23 H          -4.4884   -0.6662    1.1013 H       1  UNL1        0.0391
     24 H          -2.9931   -1.1068    1.9720 H       1  UNL1        0.0391
     25 H          -4.0077   -2.4253    1.1465 H       1  UNL1        0.0391
     26 H          -3.6977    0.5768   -0.6745 H       1  UNL1        0.0449
     27 H          -2.1189    0.1328   -1.4870 H       1  UNL1        0.0449
     28 H          -2.0274    2.0192    0.2333 H       1  UNL1        0.0573
     29 H          -2.5197    0.8683    1.4719 H       1  UNL1        0.0573
     30 H          -0.2296    0.7854   -1.1583 H       1  UNL1        0.0697
     31 H          -0.3421   -2.2185   -0.1550 H       1  UNL1        0.0621
     32 H           1.1132   -4.0931   -0.4957 H       1  UNL1        0.0618
     33 H           3.4670   -3.7544   -0.9367 H       1  UNL1        0.0618
     34 H           4.3529   -1.4519   -1.0363 H       1  UNL1        0.0618
     35 H           2.8876    0.4062   -0.6987 H       1  UNL1        0.0621
     36 H           1.3285    1.0890    2.1432 H       1  UNL1        0.0621
     37 H           2.9571    2.9120    2.7585 H       1  UNL1        0.0618
     38 H           3.7284    4.4380    0.9822 H       1  UNL1        0.0618
     39 H           2.9280    4.1830   -1.3201 H       1  UNL1        0.0618
     40 H           1.3269    2.3870   -1.9132 H       1  UNL1        0.0621
@<TRIPOS>BOND
     1     1     2    1
     2     2     3    1
     3     2     4    1
     4     4     5    1
     5     5     6    1
     6     6     7    1
     7     7     8    1
     8     8     9   ar
     9     9    10   ar
    10    10    11   ar
    11    11    12   ar
    12    12    13   ar
    13     7    14    1
    14    14    15   ar
    15    15    16   ar
    16    16    17   ar
    17    17    18   ar
    18    18    19   ar
    19    13     8   ar
    20    19    14   ar
    21     1    20    1
    22     1    21    1
    23     1    22    1
    24     3    23    1
    25     3    24    1
    26     3    25    1
    27     4    26    1
    28     4    27    1
    29     5    28    1
    30     5    29    1
    31     7    30    1
    32     9    31    1
    33    10    32    1
    34    11    33    1
    35    12    34    1
    36    13    35    1
    37    15    36    1
    38    16    37    1
    39    17    38    1
    40    18    39    1
    41    19    40    1
