@<TRIPOS>MOLECULE
*****
 49 51 0 0 0
SMALL
GASTEIGER

@<TRIPOS>ATOM
      1 C           3.6083   -2.5686    3.5914 C.3     1  UNL1        0.0833
      2 O           2.8463   -1.8902    2.6470 O.3     1  UNL1       -0.4536
      3 C           2.9935   -1.9492    1.2744 C.2     1  UNL1        0.4027
      4 O           3.9315   -2.7168    0.8695 O.2     1  UNL1       -0.2263
      5 N           2.2195   -1.2639    0.3207 N.am    1  UNL1       -0.2656
      6 C           2.3302   -1.3403   -1.0939 C.3     1  UNL1        0.0196
      7 C           0.9753   -1.0107   -1.6222 C.3     1  UNL1       -0.0169
      8 C           0.1888   -0.4518   -0.5037 C.3     1  UNL1        0.0411
      9 N          -0.6083    0.6813   -0.8164 N.pl3   1  UNL1       -0.3209
     10 C          -2.0732    0.5662   -0.6495 C.3     1  UNL1        0.0379
     11 C          -2.4504   -0.6491    0.1279 C.ar    1  UNL1       -0.0246
     12 C          -2.9167   -1.7529   -0.5776 C.ar    1  UNL1       -0.0215
     13 C          -3.2724   -2.8912    0.0911 C.ar    1  UNL1        0.1237
     14 F          -3.7351   -3.9637   -0.6036 F       1  UNL1       -0.2055
     15 C          -3.1651   -2.9396    1.4609 C.ar    1  UNL1       -0.0262
     16 C          -2.6952   -1.8267    2.1642 C.ar    1  UNL1       -0.0558
     17 C          -2.3404   -0.6860    1.4875 C.ar    1  UNL1       -0.0456
     18 C          -1.8483    0.5270    2.2492 C.3     1  UNL1       -0.0394
     19 C          -0.1756    1.9268   -1.3480 C.ar    1  UNL1        0.0317
     20 C           1.1671    2.1768   -1.6044 C.ar    1  UNL1       -0.0393
     21 C           1.4824    3.3873   -2.1966 C.ar    1  UNL1       -0.0412
     22 C           0.5740    4.3447   -2.5417 C.ar    1  UNL1        0.0701
     23 C           0.9498    5.5894   -3.2235 C.1     1  UNL1        0.1006
     24 N           1.2562    6.5474   -3.7388 N.1     1  UNL1       -0.1908
     25 C          -0.7637    4.1035   -2.2859 C.ar    1  UNL1        0.0600
     26 CL         -1.9336    5.3178   -2.7335 Cl      1  UNL1       -0.0822
     27 C          -1.1003    2.9018   -1.6971 C.ar    1  UNL1       -0.0210
     28 C           1.1606   -0.3195    0.6329 C.3     1  UNL1        0.0364
     29 H           4.1411   -3.4702    3.1757 H       1  UNL1        0.0661
     30 H           2.9943   -2.9630    4.4326 H       1  UNL1        0.0661
     31 H           4.4150   -1.9427    4.0218 H       1  UNL1        0.0661
     32 H           2.6807   -2.3520   -1.4470 H       1  UNL1        0.0466
     33 H           3.0571   -0.5688   -1.4633 H       1  UNL1        0.0466
     34 H           1.0038   -0.3617   -2.5316 H       1  UNL1        0.0299
     35 H           0.4845   -1.9544   -1.9780 H       1  UNL1        0.0299
     36 H          -0.5356   -1.2587   -0.1526 H       1  UNL1        0.0516
     37 H          -2.5982    0.5304   -1.6186 H       1  UNL1        0.0513
     38 H          -2.4220    1.4441   -0.0812 H       1  UNL1        0.0513
     39 H          -2.9877   -1.6770   -1.6832 H       1  UNL1        0.0649
     40 H          -3.4414   -3.8328    2.0036 H       1  UNL1        0.0646
     41 H          -2.6079   -1.8536    3.2395 H       1  UNL1        0.0621
     42 H          -2.7711    1.1361    2.4230 H       1  UNL1        0.0278
     43 H          -1.4610    0.2417    3.2314 H       1  UNL1        0.0278
     44 H          -1.1649    1.1310    1.6474 H       1  UNL1        0.0278
     45 H           1.9408    1.4763   -1.3645 H       1  UNL1        0.0636
     46 H           2.5564    3.5641   -2.3992 H       1  UNL1        0.0631
     47 H          -2.1823    2.7799   -1.5279 H       1  UNL1        0.0651
     48 H           0.6940   -0.5771    1.6227 H       1  UNL1        0.0484
     49 H           1.5992    0.6585    0.7692 H       1  UNL1        0.0484
@<TRIPOS>BOND
     1     1     2    1
     2     2     3    1
     3     3     4    2
     4     3     5   am
     5     5     6    1
     6     6     7    1
     7     7     8    1
     8     8     9    1
     9     9    10    1
    10    10    11    1
    11    11    12   ar
    12    12    13   ar
    13    13    14    1
    14    13    15   ar
    15    15    16   ar
    16    16    17   ar
    17    17    18    1
    18     9    19    1
    19    19    20   ar
    20    20    21   ar
    21    21    22   ar
    22    22    23    1
    23    23    24    3
    24    22    25   ar
    25    25    26    1
    26    25    27   ar
    27     8    28    1
    28    28     5    1
    29    17    11   ar
    30    27    19   ar
    31     1    29    1
    32     1    30    1
    33     1    31    1
    34     6    32    1
    35     6    33    1
    36     7    34    1
    37     7    35    1
    38     8    36    1
    39    10    37    1
    40    10    38    1
    41    12    39    1
    42    15    40    1
    43    16    41    1
    44    18    42    1
    45    18    43    1
    46    18    44    1
    47    20    45    1
    48    21    46    1
    49    27    47    1
    50    28    48    1
    51    28    49    1
