
     RDKit          3D

 54 57  0  0  0  0  0  0  0  0999 V2000
    8.1160    3.2977   -1.1379 C   0  0  0  0  0  0  0  0  0  0  0  0
    7.0789    2.6641   -1.2749 C   0  0  0  0  0  0  0  0  0  0  0  0
    5.8621    1.9393   -1.4428 C   0  0  0  0  0  0  0  0  0  0  0  0
    5.1040    2.1039   -2.6066 C   0  0  0  0  0  0  0  0  0  0  0  0
    3.9629    1.3944   -2.7222 N   0  0  0  0  0  0  0  0  0  0  0  0
    3.5693    0.5702   -1.7723 C   0  0  0  0  0  0  0  0  0  0  0  0
    2.3534   -0.1942   -1.8768 N   0  0  0  0  0  0  0  0  0  0  0  0
    1.1603    0.3683   -1.3318 C   0  0  0  0  0  0  0  0  0  0  0  0
    1.0718    1.6945   -1.0076 C   0  0  0  0  0  0  0  0  0  0  0  0
   -0.0721    2.2346   -0.4491 C   0  0  0  0  0  0  0  0  0  0  0  0
   -1.1375    1.3896   -0.2235 C   0  0  0  0  0  0  0  0  0  0  0  0
   -2.2601    1.9367    0.3342 F   0  0  0  0  0  0  0  0  0  0  0  0
   -1.0460    0.0461   -0.5529 C   0  0  0  0  0  0  0  0  0  0  0  0
   -2.2344   -0.8144   -0.2501 C   0  0  2  0  0  0  0  0  0  0  0  0
   -1.9231   -2.2119   -0.7762 C   0  0  0  0  0  0  0  0  0  0  0  0
   -3.3552   -0.2677   -1.0989 C   0  0  0  0  0  0  0  0  0  0  0  0
   -4.9092   -0.2869   -0.2693 S   0  0  0  0  0  6  0  0  0  0  0  0
   -5.9946   -0.8580   -1.1474 O   0  0  0  0  0  0  0  0  0  0  0  0
   -5.3163    1.1503    0.0087 O   0  0  0  0  0  0  0  0  0  0  0  0
   -4.7654   -1.1568    1.2471 C   0  0  0  0  0  0  0  0  0  0  0  0
   -5.8377   -0.6196    2.1803 C   0  0  0  0  0  0  0  0  0  0  0  0
   -4.9671   -2.6502    1.1179 C   0  0  0  0  0  0  0  0  0  0  0  0
   -3.4514   -0.8772    1.8700 C   0  0  0  0  0  0  0  0  0  0  0  0
   -3.3979   -0.7641    3.3113 N   0  0  0  0  0  0  0  0  0  0  0  0
   -2.4291   -0.7472    1.1491 N   0  0  0  0  0  0  0  0  0  0  0  0
    0.0897   -0.4823   -1.1063 C   0  0  0  0  0  0  0  0  0  0  0  0
    4.2858    0.3730   -0.6010 C   0  0  0  0  0  0  0  0  0  0  0  0
    3.8717   -0.4598    0.3459 N   0  0  0  0  0  0  0  0  0  0  0  0
    4.5881   -0.6392    1.4918 C   0  0  0  0  0  0  0  0  0  0  0  0
    5.7540    0.0505    1.6700 C   0  0  0  0  0  0  0  0  0  0  0  0
    6.6827   -0.1744    3.1326 Cl  0  0  0  0  0  0  0  0  0  0  0  0
    6.2040    0.9259    0.6919 C   0  0  0  0  0  0  0  0  0  0  0  0
    5.4512    1.0747   -0.4440 C   0  0  0  0  0  0  0  0  0  0  0  0
    9.0342    3.8372   -1.0144 H   0  0  0  0  0  0  0  0  0  0  0  0
    5.3978    2.7588   -3.3857 H   0  0  0  0  0  0  0  0  0  0  0  0
    2.3815   -1.1175   -2.3379 H   0  0  0  0  0  0  0  0  0  0  0  0
    1.8960    2.3879   -1.1747 H   0  0  0  0  0  0  0  0  0  0  0  0
   -0.1252    3.2852   -0.2002 H   0  0  0  0  0  0  0  0  0  0  0  0
   -2.8187   -2.8582   -0.7782 H   0  0  0  0  0  0  0  0  0  0  0  0
   -1.0816   -2.6938   -0.2464 H   0  0  0  0  0  0  0  0  0  0  0  0
   -1.7011   -2.0544   -1.8765 H   0  0  0  0  0  0  0  0  0  0  0  0
   -3.4395   -0.8996   -2.0226 H   0  0  0  0  0  0  0  0  0  0  0  0
   -3.1298    0.7868   -1.4229 H   0  0  0  0  0  0  0  0  0  0  0  0
   -5.4227    0.1302    2.8582 H   0  0  0  0  0  0  0  0  0  0  0  0
   -6.6712   -0.2618    1.5759 H   0  0  0  0  0  0  0  0  0  0  0  0
   -6.2275   -1.4558    2.8181 H   0  0  0  0  0  0  0  0  0  0  0  0
   -5.6987   -3.0626    1.8375 H   0  0  0  0  0  0  0  0  0  0  0  0
   -3.9945   -3.1731    1.3248 H   0  0  0  0  0  0  0  0  0  0  0  0
   -5.2112   -2.8612    0.0605 H   0  0  0  0  0  0  0  0  0  0  0  0
   -3.5174    0.2123    3.6788 H   0  0  0  0  0  0  0  0  0  0  0  0
   -3.2559   -1.5537    3.9469 H   0  0  0  0  0  0  0  0  0  0  0  0
    0.1706   -1.5490   -1.3671 H   0  0  0  0  0  0  0  0  0  0  0  0
    4.1806   -1.3318    2.2061 H   0  0  0  0  0  0  0  0  0  0  0  0
    7.1256    1.4644    0.8421 H   0  0  0  0  0  0  0  0  0  0  0  0
  1  2  3  0
  2  3  1  0
  3  4  2  0
  4  5  1  0
  5  6  2  0
  6  7  1  0
  7  8  1  0
  8  9  2  0
  9 10  1  0
 10 11  2  0
 11 12  1  0
 11 13  1  0
 13 14  1  0
 14 15  1  6
 14 16  1  0
 16 17  1  0
 17 18  2  0
 17 19  2  0
 17 20  1  0
 20 21  1  0
 20 22  1  0
 20 23  1  0
 23 24  1  0
 23 25  2  0
 13 26  2  0
  6 27  1  0
 27 28  2  0
 28 29  1  0
 29 30  2  0
 30 31  1  0
 30 32  1  0
 32 33  2  0
 33  3  1  0
 26  8  1  0
 33 27  1  0
 25 14  1  0
  1 34  1  0
  4 35  1  0
  7 36  1  0
  9 37  1  0
 10 38  1  0
 15 39  1  0
 15 40  1  0
 15 41  1  0
 16 42  1  0
 16 43  1  0
 21 44  1  0
 21 45  1  0
 21 46  1  0
 22 47  1  0
 22 48  1  0
 22 49  1  0
 24 50  1  0
 24 51  1  0
 26 52  1  0
 29 53  1  0
 32 54  1  0
M  END
$$$$
