@<TRIPOS>MOLECULE
*****
 54 57 0 0 0
SMALL
GASTEIGER

@<TRIPOS>ATOM
      1 C           8.1160    3.2977   -1.1379 C.1     1  UNL1       -0.1138
      2 C           7.0789    2.6641   -1.2749 C.1     1  UNL1       -0.0675
      3 C           5.8621    1.9393   -1.4428 C.ar    1  UNL1        0.0521
      4 C           5.1040    2.1039   -2.6066 C.ar    1  UNL1        0.0458
      5 N           3.9629    1.3944   -2.7222 N.ar    1  UNL1       -0.2368
      6 C           3.5693    0.5702   -1.7723 C.ar    1  UNL1        0.1491
      7 N           2.3534   -0.1942   -1.8768 N.pl3   1  UNL1       -0.2977
      8 C           1.1603    0.3683   -1.3318 C.ar    1  UNL1        0.0330
      9 C           1.0718    1.6945   -1.0076 C.ar    1  UNL1       -0.0378
     10 C          -0.0721    2.2346   -0.4491 C.ar    1  UNL1       -0.0243
     11 C          -1.1375    1.3896   -0.2235 C.ar    1  UNL1        0.1311
     12 F          -2.2601    1.9367    0.3342 F       1  UNL1       -0.2050
     13 C          -1.0460    0.0461   -0.5529 C.ar    1  UNL1        0.0420
     14 C          -2.2344   -0.8144   -0.2501 C.3     1  UNL1        0.1959
     15 C          -1.9231   -2.2119   -0.7762 C.3     1  UNL1       -0.0112
     16 C          -3.3552   -0.2677   -1.0989 C.3     1  UNL1        0.1183
     17 S          -4.9092   -0.2869   -0.2693 S.O2    1  UNL1       -0.0101
     18 O          -5.9946   -0.8580   -1.1474 O.2     1  UNL1       -0.1731
     19 O          -5.3163    1.1503    0.0087 O.2     1  UNL1       -0.1731
     20 C          -4.7654   -1.1568    1.2471 C.3     1  UNL1        0.1831
     21 C          -5.8377   -0.6196    2.1803 C.3     1  UNL1       -0.0288
     22 C          -4.9671   -2.6502    1.1179 C.3     1  UNL1       -0.0288
     23 C          -3.4514   -0.8772    1.8700 C.2     1  UNL1        0.3067
     24 N          -3.3979   -0.7641    3.3113 N.pl3   1  UNL1       -0.2488
     25 N          -2.4291   -0.7472    1.1491 N.2     1  UNL1       -0.0727
     26 C           0.0897   -0.4823   -1.1063 C.ar    1  UNL1       -0.0301
     27 C           4.2858    0.3730   -0.6010 C.ar    1  UNL1        0.1121
     28 N           3.8717   -0.4598    0.3459 N.ar    1  UNL1       -0.2500
     29 C           4.5881   -0.6392    1.4918 C.ar    1  UNL1        0.0467
     30 C           5.7540    0.0505    1.6700 C.ar    1  UNL1        0.0597
     31 CL          6.6827   -0.1744    3.1326 Cl      1  UNL1       -0.0820
     32 C           6.2040    0.9259    0.6919 C.ar    1  UNL1       -0.0314
     33 C           5.4512    1.0747   -0.4440 C.ar    1  UNL1        0.0220
     34 H           9.0342    3.8372   -1.0144 H       1  UNL1        0.1232
     35 H           5.3978    2.7588   -3.3857 H       1  UNL1        0.0843
     36 H           2.3815   -1.1175   -2.3379 H       1  UNL1        0.1536
     37 H           1.8960    2.3879   -1.1747 H       1  UNL1        0.0637
     38 H          -0.1252    3.2852   -0.2002 H       1  UNL1        0.0647
     39 H          -2.8187   -2.8582   -0.7782 H       1  UNL1        0.0279
     40 H          -1.0816   -2.6938   -0.2464 H       1  UNL1        0.0279
     41 H          -1.7011   -2.0544   -1.8765 H       1  UNL1        0.0279
     42 H          -3.4395   -0.8996   -2.0226 H       1  UNL1        0.0550
     43 H          -3.1298    0.7868   -1.4229 H       1  UNL1        0.0550
     44 H          -5.4227    0.1302    2.8582 H       1  UNL1        0.0256
     45 H          -6.6712   -0.2618    1.5759 H       1  UNL1        0.0256
     46 H          -6.2275   -1.4558    2.8181 H       1  UNL1        0.0256
     47 H          -5.6987   -3.0626    1.8375 H       1  UNL1        0.0256
     48 H          -3.9945   -3.1731    1.3248 H       1  UNL1        0.0256
     49 H          -5.2112   -2.8612    0.0605 H       1  UNL1        0.0256
     50 H          -3.5174    0.2123    3.6788 H       1  UNL1        0.2881
     51 H          -3.2559   -1.5537    3.9469 H       1  UNL1        0.2881
     52 H           0.1706   -1.5490   -1.3671 H       1  UNL1        0.0641
     53 H           4.1806   -1.3318    2.2061 H       1  UNL1        0.0844
     54 H           7.1256    1.4644    0.8421 H       1  UNL1        0.0639
@<TRIPOS>BOND
     1     1     2    3
     2     2     3    1
     3     3     4   ar
     4     4     5   ar
     5     5     6   ar
     6     6     7    1
     7     7     8    1
     8     8     9   ar
     9     9    10   ar
    10    10    11   ar
    11    11    12    1
    12    11    13   ar
    13    13    14    1
    14    14    15    1
    15    14    16    1
    16    16    17    1
    17    17    18    2
    18    17    19    2
    19    17    20    1
    20    20    21    1
    21    20    22    1
    22    20    23    1
    23    23    24    1
    24    23    25    2
    25    13    26   ar
    26     6    27   ar
    27    27    28   ar
    28    28    29   ar
    29    29    30   ar
    30    30    31    1
    31    30    32   ar
    32    32    33   ar
    33    33     3   ar
    34    26     8   ar
    35    33    27   ar
    36    25    14    1
    37     1    34    1
    38     4    35    1
    39     7    36    1
    40     9    37    1
    41    10    38    1
    42    15    39    1
    43    15    40    1
    44    15    41    1
    45    16    42    1
    46    16    43    1
    47    21    44    1
    48    21    45    1
    49    21    46    1
    50    22    47    1
    51    22    48    1
    52    22    49    1
    53    24    50    1
    54    24    51    1
    55    26    52    1
    56    29    53    1
    57    32    54    1
