
     RDKit          3D

 43 45  0  0  0  0  0  0  0  0999 V2000
   -0.0209   -4.7352   -2.1910 C   0  0  0  0  0  0  0  0  0  0  0  0
   -1.1910   -3.4696   -1.6233 S   0  0  0  0  0  0  0  0  0  0  0  0
   -0.2956   -2.0818   -0.9460 C   0  0  0  0  0  0  0  0  0  0  0  0
    1.0412   -1.9769   -0.8628 N   0  0  0  0  0  0  0  0  0  0  0  0
    1.3751   -0.7999   -0.2990 C   0  0  0  0  0  0  0  0  0  0  0  0
    2.7445   -0.3667   -0.0601 C   0  0  0  0  0  0  0  0  0  0  0  0
    3.0707    0.4914    0.9712 C   0  0  0  0  0  0  0  0  0  0  0  0
    4.3752    0.8891    1.1795 C   0  0  0  0  0  0  0  0  0  0  0  0
    5.3827    0.4327    0.3548 C   0  0  0  0  0  0  0  0  0  0  0  0
    6.7066    0.8422    0.5737 O   0  0  0  0  0  0  0  0  0  0  0  0
    7.1615    2.0122   -0.0771 C   0  0  0  0  0  0  0  0  0  0  0  0
    6.4554    3.1298    0.2479 F   0  0  0  0  0  0  0  0  0  0  0  0
    8.5074    2.1579    0.2023 F   0  0  0  0  0  0  0  0  0  0  0  0
    7.0369    1.7842   -1.4467 F   0  0  0  0  0  0  0  0  0  0  0  0
    5.0841   -0.4178   -0.6732 C   0  0  0  0  0  0  0  0  0  0  0  0
    3.7804   -0.8161   -0.8824 C   0  0  0  0  0  0  0  0  0  0  0  0
    0.2060   -0.2070   -0.0486 N   0  0  0  0  0  0  0  0  0  0  0  0
   -0.8310   -0.9403   -0.4207 N   0  0  0  0  0  0  0  0  0  0  0  0
   -2.2238   -0.7020   -0.3430 C   0  0  0  0  0  0  0  0  0  0  0  0
   -2.9878   -1.5702   -0.7939 O   0  0  0  0  0  0  0  0  0  0  0  0
   -2.7516    0.4842    0.2250 N   0  0  0  0  0  0  0  0  0  0  0  0
   -1.8157    1.4296    0.8694 C   0  0  0  0  0  0  0  0  0  0  0  0
   -4.1287    0.8146    0.2668 C   0  0  0  0  0  0  0  0  0  0  0  0
   -5.1702   -0.0549    0.0584 C   0  0  0  0  0  0  0  0  0  0  0  0
   -6.5119    0.3126    0.0650 C   0  0  0  0  0  0  0  0  0  0  0  0
   -6.8408    1.6103    0.2906 C   0  0  0  0  0  0  0  0  0  0  0  0
   -5.8540    2.5293    0.5059 C   0  0  0  0  0  0  0  0  0  0  0  0
   -4.5211    2.1395    0.4941 C   0  0  0  0  0  0  0  0  0  0  0  0
    0.6493   -5.0618   -1.3524 H   0  0  0  0  0  0  0  0  0  0  0  0
   -0.5664   -5.5768   -2.6165 H   0  0  0  0  0  0  0  0  0  0  0  0
    0.6386   -4.3018   -2.9987 H   0  0  0  0  0  0  0  0  0  0  0  0
    2.2900    0.8725    1.6457 H   0  0  0  0  0  0  0  0  0  0  0  0
    4.6389    1.5645    1.9895 H   0  0  0  0  0  0  0  0  0  0  0  0
    5.8574   -0.7864   -1.3299 H   0  0  0  0  0  0  0  0  0  0  0  0
    3.5272   -1.4933   -1.6973 H   0  0  0  0  0  0  0  0  0  0  0  0
   -2.3970    2.0244    1.6182 H   0  0  0  0  0  0  0  0  0  0  0  0
   -1.3621    2.0312    0.0718 H   0  0  0  0  0  0  0  0  0  0  0  0
   -1.0735    0.8487    1.4640 H   0  0  0  0  0  0  0  0  0  0  0  0
   -4.9800   -1.0970   -0.1138 H   0  0  0  0  0  0  0  0  0  0  0  0
   -7.2993   -0.4014   -0.1035 H   0  0  0  0  0  0  0  0  0  0  0  0
   -7.8735    1.9699    0.3103 H   0  0  0  0  0  0  0  0  0  0  0  0
   -6.0550    3.5840    0.6925 H   0  0  0  0  0  0  0  0  0  0  0  0
   -3.7782    2.9022    0.6527 H   0  0  0  0  0  0  0  0  0  0  0  0
  1  2  1  0
  2  3  1  0
  3  4  2  0
  4  5  1  0
  5  6  1  0
  6  7  2  0
  7  8  1  0
  8  9  2  0
  9 10  1  0
 10 11  1  0
 11 12  1  0
 11 13  1  0
 11 14  1  0
  9 15  1  0
 15 16  2  0
  5 17  2  0
 17 18  1  0
 18 19  1  0
 19 20  2  0
 19 21  1  0
 21 22  1  0
 21 23  1  0
 23 24  2  0
 24 25  1  0
 25 26  2  0
 26 27  1  0
 27 28  2  0
 18  3  1  0
 28 23  1  0
 16  6  1  0
  1 29  1  0
  1 30  1  0
  1 31  1  0
  7 32  1  0
  8 33  1  0
 15 34  1  0
 16 35  1  0
 22 36  1  0
 22 37  1  0
 22 38  1  0
 24 39  1  0
 25 40  1  0
 26 41  1  0
 27 42  1  0
 28 43  1  0
M  END
$$$$
