@<TRIPOS>MOLECULE
*****
 43 45 0 0 0
SMALL
GASTEIGER

@<TRIPOS>ATOM
      1 C          -0.0209   -4.7352   -2.1910 C.3     1  UNL1       -0.0106
      2 S          -1.1910   -3.4696   -1.6233 S.3     1  UNL1       -0.0892
      3 C          -0.2956   -2.0818   -0.9460 C.ar    1  UNL1        0.1960
      4 N           1.0412   -1.9769   -0.8628 N.ar    1  UNL1       -0.2003
      5 C           1.3751   -0.7999   -0.2990 C.ar    1  UNL1        0.1829
      6 C           2.7445   -0.3667   -0.0601 C.ar    1  UNL1        0.0211
      7 C           3.0707    0.4914    0.9712 C.ar    1  UNL1       -0.0475
      8 C           4.3752    0.8891    1.1795 C.ar    1  UNL1       -0.0190
      9 C           5.3827    0.4327    0.3548 C.ar    1  UNL1        0.1300
     10 O           6.7066    0.8422    0.5737 O.3     1  UNL1       -0.4057
     11 C           7.1615    2.0122   -0.0771 C.3     1  UNL1        0.5752
     12 F           6.4554    3.1298    0.2479 F       1  UNL1       -0.1328
     13 F           8.5074    2.1579    0.2023 F       1  UNL1       -0.1328
     14 F           7.0369    1.7842   -1.4467 F       1  UNL1       -0.1328
     15 C           5.0841   -0.4178   -0.6732 C.ar    1  UNL1       -0.0190
     16 C           3.7804   -0.8161   -0.8824 C.ar    1  UNL1       -0.0475
     17 N           0.2060   -0.2070   -0.0486 N.ar    1  UNL1       -0.1403
     18 N          -0.8310   -0.9403   -0.4207 N.ar    1  UNL1       -0.1571
     19 C          -2.2238   -0.7020   -0.3430 C.2     1  UNL1        0.3437
     20 O          -2.9878   -1.5702   -0.7939 O.2     1  UNL1       -0.2471
     21 N          -2.7516    0.4842    0.2250 N.am    1  UNL1       -0.2549
     22 C          -1.8157    1.4296    0.8694 C.3     1  UNL1        0.0100
     23 C          -4.1287    0.8146    0.2668 C.ar    1  UNL1        0.0377
     24 C          -5.1702   -0.0549    0.0584 C.ar    1  UNL1       -0.0402
     25 C          -6.5119    0.3126    0.0650 C.ar    1  UNL1       -0.0600
     26 C          -6.8408    1.6103    0.2906 C.ar    1  UNL1       -0.0616
     27 C          -5.8540    2.5293    0.5059 C.ar    1  UNL1       -0.0600
     28 C          -4.5211    2.1395    0.4941 C.ar    1  UNL1       -0.0402
     29 H           0.6493   -5.0618   -1.3524 H       1  UNL1        0.0345
     30 H          -0.5664   -5.5768   -2.6165 H       1  UNL1        0.0345
     31 H           0.6386   -4.3018   -2.9987 H       1  UNL1        0.0345
     32 H           2.2900    0.8725    1.6457 H       1  UNL1        0.0626
     33 H           4.6389    1.5645    1.9895 H       1  UNL1        0.0654
     34 H           5.8574   -0.7864   -1.3299 H       1  UNL1        0.0654
     35 H           3.5272   -1.4933   -1.6973 H       1  UNL1        0.0626
     36 H          -2.3970    2.0244    1.6182 H       1  UNL1        0.0433
     37 H          -1.3621    2.0312    0.0718 H       1  UNL1        0.0433
     38 H          -1.0735    0.8487    1.4640 H       1  UNL1        0.0433
     39 H          -4.9800   -1.0970   -0.1138 H       1  UNL1        0.0636
     40 H          -7.2993   -0.4014   -0.1035 H       1  UNL1        0.0618
     41 H          -7.8735    1.9699    0.3103 H       1  UNL1        0.0618
     42 H          -6.0550    3.5840    0.6925 H       1  UNL1        0.0618
     43 H          -3.7782    2.9022    0.6527 H       1  UNL1        0.0636
@<TRIPOS>BOND
     1     1     2    1
     2     2     3    1
     3     3     4   ar
     4     4     5   ar
     5     5     6    1
     6     6     7   ar
     7     7     8   ar
     8     8     9   ar
     9     9    10    1
    10    10    11    1
    11    11    12    1
    12    11    13    1
    13    11    14    1
    14     9    15   ar
    15    15    16   ar
    16     5    17   ar
    17    17    18   ar
    18    18    19   am
    19    19    20    2
    20    19    21   am
    21    21    22    1
    22    21    23    1
    23    23    24   ar
    24    24    25   ar
    25    25    26   ar
    26    26    27   ar
    27    27    28   ar
    28    18     3   ar
    29    28    23   ar
    30    16     6   ar
    31     1    29    1
    32     1    30    1
    33     1    31    1
    34     7    32    1
    35     8    33    1
    36    15    34    1
    37    16    35    1
    38    22    36    1
    39    22    37    1
    40    22    38    1
    41    24    39    1
    42    25    40    1
    43    26    41    1
    44    27    42    1
    45    28    43    1
