@<TRIPOS>MOLECULE
*****
 42 43 0 0 0
SMALL
GASTEIGER

@<TRIPOS>ATOM
      1 C          -2.6996    3.9326    0.0177 C.3     1  UNL1        0.0580
      2 O          -2.2719    2.6501   -0.3269 O.3     1  UNL1       -0.3027
      3 N          -3.2480    1.7944   -0.0348 N.3     1  UNL1       -0.1971
      4 C          -2.8334    0.4243    0.1442 C.3     1  UNL1        0.0491
      5 C          -2.1723   -0.1718   -1.0808 C.3     1  UNL1       -0.0083
      6 C          -1.3961   -1.3241   -0.4742 C.3     1  UNL1        0.1113
      7 N          -1.0760   -0.8671    0.7982 N.3     1  UNL1       -0.1631
      8 C          -1.7822    0.2718    1.2113 C.3     1  UNL1        0.0389
      9 S           0.2916   -1.3490    1.5882 S.O2    1  UNL1        0.0616
     10 O           0.2957   -0.7885    2.9834 O.2     1  UNL1       -0.1528
     11 O           0.2268   -2.8599    1.7676 O.2     1  UNL1       -0.1528
     12 C           1.8037   -0.9390    0.8082 C.ar    1  UNL1        0.1057
     13 C           2.4762   -1.7243   -0.1054 C.ar    1  UNL1       -0.0319
     14 C           3.6679   -1.3043   -0.6635 C.ar    1  UNL1       -0.0181
     15 C           4.2295   -0.0891   -0.3309 C.ar    1  UNL1        0.1202
     16 O           5.4083    0.3987   -0.8406 O.3     1  UNL1       -0.4951
     17 C           5.9777    1.6372   -0.4996 C.3     1  UNL1        0.0788
     18 C           3.5594    0.7011    0.5839 C.ar    1  UNL1       -0.0181
     19 C           2.3571    0.2913    1.1552 C.ar    1  UNL1       -0.0319
     20 C          -2.3619   -2.4700   -0.3136 C.2     1  UNL1        0.2544
     21 O          -2.1826   -2.1845    0.9090 O.2     1  UNL1       -0.2719
     22 N          -2.9975   -3.2872   -1.2961 N.am    1  UNL1       -0.1961
     23 O          -3.7639   -4.1627   -0.5863 O.3     1  UNL1       -0.2951
     24 H          -2.5019    4.0822    1.1020 H       1  UNL1        0.0544
     25 H          -2.2081    4.7124   -0.5988 H       1  UNL1        0.0544
     26 H          -3.7940    4.0643   -0.1322 H       1  UNL1        0.0544
     27 H          -4.1170    1.8726   -0.5687 H       1  UNL1        0.1541
     28 H          -3.7525   -0.1512    0.3596 H       1  UNL1        0.0497
     29 H          -1.4158    0.5467   -1.4930 H       1  UNL1        0.0302
     30 H          -2.9068   -0.4955   -1.8374 H       1  UNL1        0.0302
     31 H          -0.5632   -1.6534   -1.1153 H       1  UNL1        0.0577
     32 H          -2.2845    0.0681    2.1809 H       1  UNL1        0.0460
     33 H          -1.1811    1.2021    1.2526 H       1  UNL1        0.0460
     34 H           2.0085   -2.6716   -0.3446 H       1  UNL1        0.0638
     35 H           4.1819   -1.9313   -1.3775 H       1  UNL1        0.0655
     36 H           5.5416    2.4877   -1.0809 H       1  UNL1        0.0660
     37 H           5.9721    1.8347    0.6075 H       1  UNL1        0.0660
     38 H           7.0472    1.6087   -0.7954 H       1  UNL1        0.0660
     39 H           3.9558    1.6730    0.8856 H       1  UNL1        0.0655
     40 H           1.8651    0.9449    1.8699 H       1  UNL1        0.0638
     41 H          -2.6681   -2.9480   -2.2392 H       1  UNL1        0.1822
     42 H          -4.6878   -3.8264   -0.5411 H       1  UNL1        0.2414
@<TRIPOS>BOND
     1     1     2    1
     2     2     3    1
     3     3     4    1
     4     4     5    1
     5     5     6    1
     6     6     7    1
     7     7     8    1
     8     7     9    1
     9     9    10    2
    10     9    11    2
    11     9    12    1
    12    12    13   ar
    13    13    14   ar
    14    14    15   ar
    15    15    16    1
    16    16    17    1
    17    15    18   ar
    18    18    19   ar
    19     6    20    1
    20    20    21    2
    21    20    22   am
    22    22    23    1
    23     8     4    1
    24    19    12   ar
    25     1    24    1
    26     1    25    1
    27     1    26    1
    28     3    27    1
    29     4    28    1
    30     5    29    1
    31     5    30    1
    32     6    31    1
    33     8    32    1
    34     8    33    1
    35    13    34    1
    36    14    35    1
    37    17    36    1
    38    17    37    1
    39    17    38    1
    40    18    39    1
    41    19    40    1
    42    22    41    1
    43    23    42    1
