
     RDKit          3D

 58 62  0  0  0  0  0  0  0  0999 V2000
    1.4104   -1.8901    1.6490 O   0  0  0  0  0  0  0  0  0  0  0  0
    1.7079   -0.6718    1.7517 C   0  0  0  0  0  0  0  0  0  0  0  0
    2.9807   -0.2676    2.4071 C   0  0  0  0  0  0  0  0  0  0  0  0
    3.7659   -1.4730    2.8784 C   0  0  0  0  0  0  0  0  0  0  0  0
    4.1740   -2.5466    1.4807 S   0  0  0  0  0  0  0  0  0  0  0  0
    5.2999   -1.7060    0.3871 C   0  0  0  0  0  0  0  0  0  0  0  0
    5.6909   -0.4646    0.6955 N   0  0  0  0  0  0  0  0  0  0  0  0
    6.5337    0.1982   -0.0996 C   0  0  0  0  0  0  0  0  0  0  0  0
    6.9251    1.4803    0.2380 C   0  0  0  0  0  0  0  0  0  0  0  0
    7.7998    2.1874   -0.5734 C   0  0  0  0  0  0  0  0  0  0  0  0
    8.2855    1.6072   -1.7296 C   0  0  0  0  0  0  0  0  0  0  0  0
    7.9113    0.3294   -2.0900 C   0  0  0  0  0  0  0  0  0  0  0  0
    7.0296   -0.3592   -1.2548 C   0  0  0  0  0  0  0  0  0  0  0  0
    6.6204   -1.6426   -1.5659 C   0  0  0  0  0  0  0  0  0  0  0  0
    7.0640   -2.1673   -2.6183 O   0  0  0  0  0  0  0  0  0  0  0  0
    5.7662   -2.2811   -0.7358 N   0  0  0  0  0  0  0  0  0  0  0  0
    0.7894    0.2602    1.2239 N   0  0  0  0  0  0  0  0  0  0  0  0
   -0.4399   -0.1299    0.5911 C   0  0  1  0  0  0  0  0  0  0  0  0
   -1.6259    0.3396    1.4078 C   0  0  0  0  0  0  0  0  0  0  0  0
   -2.2983    1.4706    0.6638 C   0  0  0  0  0  0  0  0  0  0  0  0
   -2.8658    0.9667   -0.6376 C   0  0  2  0  0  0  0  0  0  0  0  0
   -4.1528    0.2638   -0.3615 C   0  0  0  0  0  0  0  0  0  0  0  0
   -4.3481   -0.8494    0.3437 N   0  0  0  0  0  0  0  0  0  0  0  0
   -5.6380   -1.1270    0.3389 N   0  0  0  0  0  0  0  0  0  0  0  0
   -6.2704   -0.1750   -0.3804 C   0  0  0  0  0  0  0  0  0  0  0  0
   -7.7086   -0.1072   -0.6343 C   0  0  0  0  0  0  0  0  0  0  0  0
   -8.5861   -1.0455   -0.1454 C   0  0  0  0  0  0  0  0  0  0  0  0
   -9.9272   -0.9155   -0.4254 C   0  0  0  0  0  0  0  0  0  0  0  0
  -10.3847    0.1068   -1.1632 N   0  0  0  0  0  0  0  0  0  0  0  0
   -9.5508    1.0450   -1.6583 C   0  0  0  0  0  0  0  0  0  0  0  0
   -8.2221    0.9253   -1.3868 C   0  0  0  0  0  0  0  0  0  0  0  0
   -5.3376    0.6428   -0.7836 O   0  0  0  0  0  0  0  0  0  0  0  0
   -1.9299    0.0322   -1.3352 C   0  0  0  0  0  0  0  0  0  0  0  0
   -0.5213    0.3033   -0.8490 C   0  0  0  0  0  0  0  0  0  0  0  0
    2.8308    0.4628    3.2270 H   0  0  0  0  0  0  0  0  0  0  0  0
    3.5962    0.2346    1.6317 H   0  0  0  0  0  0  0  0  0  0  0  0
    3.0931   -2.0478    3.5667 H   0  0  0  0  0  0  0  0  0  0  0  0
    4.6644   -1.1543    3.4137 H   0  0  0  0  0  0  0  0  0  0  0  0
    6.5314    1.9120    1.1477 H   0  0  0  0  0  0  0  0  0  0  0  0
    8.0651    3.1782   -0.2568 H   0  0  0  0  0  0  0  0  0  0  0  0
    8.9622    2.1872   -2.3333 H   0  0  0  0  0  0  0  0  0  0  0  0
    8.2887   -0.1460   -3.0060 H   0  0  0  0  0  0  0  0  0  0  0  0
    5.4567   -3.2503   -0.9697 H   0  0  0  0  0  0  0  0  0  0  0  0
    1.0336    1.2769    1.3077 H   0  0  0  0  0  0  0  0  0  0  0  0
   -0.4859   -1.2541    0.6162 H   0  0  0  0  0  0  0  0  0  0  0  0
   -2.3604   -0.4703    1.5937 H   0  0  0  0  0  0  0  0  0  0  0  0
   -1.2744    0.6693    2.4042 H   0  0  0  0  0  0  0  0  0  0  0  0
   -3.1638    1.8065    1.2995 H   0  0  0  0  0  0  0  0  0  0  0  0
   -1.5784    2.2954    0.5068 H   0  0  0  0  0  0  0  0  0  0  0  0
   -3.0634    1.8607   -1.2644 H   0  0  0  0  0  0  0  0  0  0  0  0
   -8.2204   -1.8825    0.4577 H   0  0  0  0  0  0  0  0  0  0  0  0
  -10.6299   -1.6451   -0.0484 H   0  0  0  0  0  0  0  0  0  0  0  0
   -9.8896    1.8800   -2.2559 H   0  0  0  0  0  0  0  0  0  0  0  0
   -7.5129    1.6712   -1.7738 H   0  0  0  0  0  0  0  0  0  0  0  0
   -2.1696   -1.0107   -1.0049 H   0  0  0  0  0  0  0  0  0  0  0  0
   -2.0030    0.0888   -2.4447 H   0  0  0  0  0  0  0  0  0  0  0  0
    0.1433   -0.3717   -1.4418 H   0  0  0  0  0  0  0  0  0  0  0  0
   -0.2610    1.3699   -0.9739 H   0  0  0  0  0  0  0  0  0  0  0  0
  1  2  2  0
  2  3  1  0
  3  4  1  0
  4  5  1  0
  5  6  1  0
  6  7  2  0
  7  8  1  0
  8  9  2  0
  9 10  1  0
 10 11  2  0
 11 12  1  0
 12 13  2  0
 13 14  1  0
 14 15  2  0
 14 16  1  0
  2 17  1  0
 17 18  1  0
 18 19  1  0
 19 20  1  0
 20 21  1  0
 21 22  1  0
 22 23  2  0
 23 24  1  0
 24 25  2  0
 25 26  1  0
 26 27  2  0
 27 28  1  0
 28 29  2  0
 29 30  1  0
 30 31  2  0
 25 32  1  0
 21 33  1  0
 33 34  1  0
 16  6  1  0
 34 18  1  0
 13  8  1  0
 32 22  1  0
 31 26  1  0
  3 35  1  0
  3 36  1  0
  4 37  1  0
  4 38  1  0
  9 39  1  0
 10 40  1  0
 11 41  1  0
 12 42  1  0
 16 43  1  0
 17 44  1  0
 18 45  1  6
 19 46  1  0
 19 47  1  0
 20 48  1  0
 20 49  1  0
 21 50  1  6
 27 51  1  0
 28 52  1  0
 30 53  1  0
 31 54  1  0
 33 55  1  0
 33 56  1  0
 34 57  1  0
 34 58  1  0
M  END
$$$$
