@<TRIPOS>MOLECULE
*****
 58 62 0 0 0
SMALL
GASTEIGER

@<TRIPOS>ATOM
      1 O           1.4104   -1.8901    1.6490 O.2     1  UNL1       -0.2758
      2 C           1.7079   -0.6718    1.7517 C.2     1  UNL1        0.2140
      3 C           2.9807   -0.2676    2.4071 C.3     1  UNL1        0.0334
      4 C           3.7659   -1.4730    2.8784 C.3     1  UNL1        0.0093
      5 S           4.1740   -2.5466    1.4807 S.3     1  UNL1       -0.0873
      6 C           5.2999   -1.7060    0.3871 C.ar    1  UNL1        0.1695
      7 N           5.6909   -0.4646    0.6955 N.ar    1  UNL1       -0.2232
      8 C           6.5337    0.1982   -0.0996 C.ar    1  UNL1        0.0790
      9 C           6.9251    1.4803    0.2380 C.ar    1  UNL1       -0.0355
     10 C           7.7998    2.1874   -0.5734 C.ar    1  UNL1       -0.0597
     11 C           8.2855    1.6072   -1.7296 C.ar    1  UNL1       -0.0609
     12 C           7.9113    0.3294   -2.0900 C.ar    1  UNL1       -0.0474
     13 C           7.0296   -0.3592   -1.2548 C.ar    1  UNL1        0.0647
     14 C           6.6204   -1.6426   -1.5659 C.ar    1  UNL1        0.2598
     15 O           7.0640   -2.1673   -2.6183 O.2     1  UNL1       -0.2671
     16 N           5.7662   -2.2811   -0.7358 N.ar    1  UNL1       -0.3015
     17 N           0.7894    0.2602    1.2239 N.am    1  UNL1       -0.3124
     18 C          -0.4399   -0.1299    0.5911 C.3     1  UNL1        0.0232
     19 C          -1.6259    0.3396    1.4078 C.3     1  UNL1       -0.0338
     20 C          -2.2983    1.4706    0.6638 C.3     1  UNL1       -0.0401
     21 C          -2.8658    0.9667   -0.6376 C.3     1  UNL1        0.0373
     22 C          -4.1528    0.2638   -0.3615 C.ar    1  UNL1        0.2208
     23 N          -4.3481   -0.8494    0.3437 N.ar    1  UNL1       -0.1118
     24 N          -5.6380   -1.1270    0.3389 N.ar    1  UNL1       -0.1073
     25 C          -6.2704   -0.1750   -0.3804 C.ar    1  UNL1        0.2484
     26 C          -7.7086   -0.1072   -0.6343 C.ar    1  UNL1        0.0413
     27 C          -8.5861   -1.0455   -0.1454 C.ar    1  UNL1       -0.0313
     28 C          -9.9272   -0.9155   -0.4254 C.ar    1  UNL1        0.0283
     29 N         -10.3847    0.1068   -1.1632 N.ar    1  UNL1       -0.2632
     30 C          -9.5508    1.0450   -1.6583 C.ar    1  UNL1        0.0283
     31 C          -8.2221    0.9253   -1.3868 C.ar    1  UNL1       -0.0313
     32 O          -5.3376    0.6428   -0.7836 O.2     1  UNL1       -0.4199
     33 C          -1.9299    0.0322   -1.3352 C.3     1  UNL1       -0.0401
     34 C          -0.5213    0.3033   -0.8490 C.3     1  UNL1       -0.0338
     35 H           2.8308    0.4628    3.2270 H       1  UNL1        0.0366
     36 H           3.5962    0.2346    1.6317 H       1  UNL1        0.0366
     37 H           3.0931   -2.0478    3.5667 H       1  UNL1        0.0385
     38 H           4.6644   -1.1543    3.4137 H       1  UNL1        0.0385
     39 H           6.5314    1.9120    1.1477 H       1  UNL1        0.0639
     40 H           8.0651    3.1782   -0.2568 H       1  UNL1        0.0618
     41 H           8.9622    2.1872   -2.3333 H       1  UNL1        0.0618
     42 H           8.2887   -0.1460   -3.0060 H       1  UNL1        0.0626
     43 H           5.4567   -3.2503   -0.9697 H       1  UNL1        0.1709
     44 H           1.0336    1.2769    1.3077 H       1  UNL1        0.1490
     45 H          -0.4859   -1.2541    0.6162 H       1  UNL1        0.0498
     46 H          -2.3604   -0.4703    1.5937 H       1  UNL1        0.0283
     47 H          -1.2744    0.6693    2.4042 H       1  UNL1        0.0283
     48 H          -3.1638    1.8065    1.2995 H       1  UNL1        0.0273
     49 H          -1.5784    2.2954    0.5068 H       1  UNL1        0.0273
     50 H          -3.0634    1.8607   -1.2644 H       1  UNL1        0.0396
     51 H          -8.2204   -1.8825    0.4577 H       1  UNL1        0.0640
     52 H         -10.6299   -1.6451   -0.0484 H       1  UNL1        0.0830
     53 H          -9.8896    1.8800   -2.2559 H       1  UNL1        0.0830
     54 H          -7.5129    1.6712   -1.7738 H       1  UNL1        0.0640
     55 H          -2.1696   -1.0107   -1.0049 H       1  UNL1        0.0273
     56 H          -2.0030    0.0888   -2.4447 H       1  UNL1        0.0273
     57 H           0.1433   -0.3717   -1.4418 H       1  UNL1        0.0283
     58 H          -0.2610    1.3699   -0.9739 H       1  UNL1        0.0283
@<TRIPOS>BOND
     1     1     2    2
     2     2     3    1
     3     3     4    1
     4     4     5    1
     5     5     6    1
     6     6     7   ar
     7     7     8   ar
     8     8     9   ar
     9     9    10   ar
    10    10    11   ar
    11    11    12   ar
    12    12    13   ar
    13    13    14   ar
    14    14    15    2
    15    14    16   ar
    16     2    17   am
    17    17    18    1
    18    18    19    1
    19    19    20    1
    20    20    21    1
    21    21    22    1
    22    22    23   ar
    23    23    24   ar
    24    24    25   ar
    25    25    26    1
    26    26    27   ar
    27    27    28   ar
    28    28    29   ar
    29    29    30   ar
    30    30    31   ar
    31    25    32   ar
    32    21    33    1
    33    33    34    1
    34    16     6   ar
    35    34    18    1
    36    13     8   ar
    37    32    22   ar
    38    31    26   ar
    39     3    35    1
    40     3    36    1
    41     4    37    1
    42     4    38    1
    43     9    39    1
    44    10    40    1
    45    11    41    1
    46    12    42    1
    47    16    43    1
    48    17    44    1
    49    18    45    1
    50    19    46    1
    51    19    47    1
    52    20    48    1
    53    20    49    1
    54    21    50    1
    55    27    51    1
    56    28    52    1
    57    30    53    1
    58    31    54    1
    59    33    55    1
    60    33    56    1
    61    34    57    1
    62    34    58    1
