
     RDKit          3D

 72 77  0  0  0  0  0  0  0  0999 V2000
   -3.2518   -1.5822    2.2642 O   0  0  0  0  0  0  0  0  0  0  0  0
   -3.9248   -1.3529    1.2164 C   0  0  0  0  0  0  0  0  0  0  0  0
   -3.7116   -0.1095    0.5964 N   0  0  0  0  0  0  0  0  0  0  0  0
   -2.8223    0.9064    1.0438 C   0  0  2  0  0  0  0  0  0  0  0  0
   -3.4825    2.1574    1.5237 C   0  0  0  0  0  0  0  0  0  0  0  0
   -2.1570    2.9863    1.6895 C   0  0  0  0  0  0  0  0  0  0  0  0
   -1.8343    2.8865    0.1776 C   0  0  0  0  0  0  0  0  0  0  0  0
   -3.0355    3.5216   -0.3909 C   0  0  0  0  0  0  0  0  0  0  0  0
   -3.4837    3.1404   -1.7371 C   0  0  0  0  0  0  0  0  0  0  0  0
   -4.9821    3.0469   -1.6256 C   0  0  0  0  0  0  0  0  0  0  0  0
   -5.3126    2.7724   -0.1794 C   0  0  0  0  0  0  0  0  0  0  0  0
   -4.1287    3.0645    0.5785 C   0  0  0  0  0  0  0  0  0  0  0  0
   -1.8010    1.3679    0.0823 C   0  0  1  0  0  0  0  0  0  0  0  0
   -0.4751    1.0196    0.3516 O   0  0  0  0  0  0  0  0  0  0  0  0
    0.4072    0.4129   -0.5196 C   0  0  0  0  0  0  0  0  0  0  0  0
   -0.1250    0.1870   -1.6412 O   0  0  0  0  0  0  0  0  0  0  0  0
    1.7691    0.0753   -0.2004 C   0  0  0  0  0  0  0  0  0  0  0  0
    2.3021    0.3398    1.0336 C   0  0  0  0  0  0  0  0  0  0  0  0
    3.6044    0.0349    1.3594 C   0  0  0  0  0  0  0  0  0  0  0  0
    4.1600    0.2980    2.6120 O   0  0  0  0  0  0  0  0  0  0  0  0
    4.4479   -0.5682    0.4215 C   0  0  0  0  0  0  0  0  0  0  0  0
    5.7803   -0.9806    0.8119 C   0  0  0  0  0  0  0  0  0  0  0  0
    5.9944   -1.2192    2.0728 O   0  0  0  0  0  0  0  0  0  0  0  0
    6.9496   -1.1823   -0.0216 C   0  0  0  0  0  0  0  0  0  0  0  0
    7.7681   -2.2811    0.3135 C   0  0  0  0  0  0  0  0  0  0  0  0
    7.3813   -3.1063    1.3907 O   0  0  0  0  0  0  0  0  0  0  0  0
    8.9063   -2.5374   -0.3895 C   0  0  0  0  0  0  0  0  0  0  0  0
    9.3000   -1.7475   -1.4403 C   0  0  0  0  0  0  0  0  0  0  0  0
    8.5065   -0.6729   -1.7678 C   0  0  0  0  0  0  0  0  0  0  0  0
    7.3322   -0.3827   -1.0605 C   0  0  0  0  0  0  0  0  0  0  0  0
    6.6887    0.9004   -1.3590 C   0  0  0  0  0  0  0  0  0  0  0  0
    5.8179    1.4566   -0.6841 O   0  0  0  0  0  0  0  0  0  0  0  0
    7.0789    1.5902   -2.5243 O   0  0  0  0  0  0  0  0  0  0  0  0
    3.9166   -0.8389   -0.8221 C   0  0  0  0  0  0  0  0  0  0  0  0
    4.7135   -1.4458   -1.7902 O   0  0  0  0  0  0  0  0  0  0  0  0
    2.5848   -0.5147   -1.1214 C   0  0  0  0  0  0  0  0  0  0  0  0
   -4.8704   -2.3317    0.6852 C   0  0  0  0  0  0  0  0  0  0  0  0
   -5.7156   -2.0889   -0.3713 C   0  0  0  0  0  0  0  0  0  0  0  0
   -6.5966   -3.0787   -0.8281 C   0  0  0  0  0  0  0  0  0  0  0  0
   -6.6587   -4.3252   -0.2504 C   0  0  0  0  0  0  0  0  0  0  0  0
   -7.5276   -5.3137   -0.6957 O   0  0  0  0  0  0  0  0  0  0  0  0
   -5.8005   -4.5669    0.8194 C   0  0  0  0  0  0  0  0  0  0  0  0
   -4.9341   -3.5909    1.2673 C   0  0  0  0  0  0  0  0  0  0  0  0
   -4.2408    0.0786   -0.2786 H   0  0  0  0  0  0  0  0  0  0  0  0
   -2.3576    0.4792    1.9951 H   0  0  0  0  0  0  0  0  0  0  0  0
   -3.9599    2.0619    2.5137 H   0  0  0  0  0  0  0  0  0  0  0  0
   -2.3850    4.0060    1.9860 H   0  0  0  0  0  0  0  0  0  0  0  0
   -1.4480    2.4329    2.2997 H   0  0  0  0  0  0  0  0  0  0  0  0
   -0.8746    3.3521   -0.0484 H   0  0  0  0  0  0  0  0  0  0  0  0
   -2.8752    4.6228   -0.3523 H   0  0  0  0  0  0  0  0  0  0  0  0
   -3.2417    3.9755   -2.4611 H   0  0  0  0  0  0  0  0  0  0  0  0
   -3.0306    2.2498   -2.2005 H   0  0  0  0  0  0  0  0  0  0  0  0
   -5.3938    2.2534   -2.2992 H   0  0  0  0  0  0  0  0  0  0  0  0
   -5.4038    4.0483   -1.9379 H   0  0  0  0  0  0  0  0  0  0  0  0
   -6.1932    3.4686    0.0734 H   0  0  0  0  0  0  0  0  0  0  0  0
   -5.7815    1.7764   -0.1465 H   0  0  0  0  0  0  0  0  0  0  0  0
   -4.3340    4.0122    1.1887 H   0  0  0  0  0  0  0  0  0  0  0  0
   -2.0309    1.0833   -0.9337 H   0  0  0  0  0  0  0  0  0  0  0  0
    1.7123    0.8117    1.8346 H   0  0  0  0  0  0  0  0  0  0  0  0
    4.3985    1.2403    2.8996 H   0  0  0  0  0  0  0  0  0  0  0  0
    8.0186   -3.3674    2.1236 H   0  0  0  0  0  0  0  0  0  0  0  0
    9.5337   -3.4001   -0.1146 H   0  0  0  0  0  0  0  0  0  0  0  0
   10.2172   -1.9557   -2.0085 H   0  0  0  0  0  0  0  0  0  0  0  0
    8.8012   -0.0376   -2.5935 H   0  0  0  0  0  0  0  0  0  0  0  0
    6.3910    2.1898   -3.0001 H   0  0  0  0  0  0  0  0  0  0  0  0
    5.0112   -2.3954   -1.6124 H   0  0  0  0  0  0  0  0  0  0  0  0
    2.2521   -0.7632   -2.1278 H   0  0  0  0  0  0  0  0  0  0  0  0
   -5.7080   -1.1398   -0.8517 H   0  0  0  0  0  0  0  0  0  0  0  0
   -7.2542   -2.8647   -1.6620 H   0  0  0  0  0  0  0  0  0  0  0  0
   -8.5059   -5.2451   -0.4230 H   0  0  0  0  0  0  0  0  0  0  0  0
   -5.8401   -5.5448    1.2802 H   0  0  0  0  0  0  0  0  0  0  0  0
   -4.2552   -3.7753    2.1078 H   0  0  0  0  0  0  0  0  0  0  0  0
  1  2  2  0
  2  3  1  0
  3  4  1  0
  4  5  1  0
  5  6  1  0
  6  7  1  0
  7  8  1  0
  8  9  1  0
  9 10  1  0
 10 11  1  0
 11 12  1  0
  7 13  1  0
 13 14  1  0
 14 15  1  0
 15 16  2  0
 15 17  1  0
 17 18  2  0
 18 19  1  0
 19 20  1  0
 19 21  2  0
 21 22  1  0
 22 23  2  0
 22 24  1  0
 24 25  2  0
 25 26  1  0
 25 27  1  0
 27 28  2  0
 28 29  1  0
 29 30  2  0
 30 31  1  0
 31 32  2  0
 31 33  1  0
 21 34  1  0
 34 35  1  0
 34 36  2  0
  2 37  1  0
 37 38  2  0
 38 39  1  0
 39 40  2  0
 40 41  1  0
 40 42  1  0
 42 43  2  0
 13  4  1  0
 36 17  1  0
 43 37  1  0
 12  5  1  0
 30 24  1  0
 12  8  1  0
  3 44  1  0
  4 45  1  1
  5 46  1  0
  6 47  1  0
  6 48  1  0
  7 49  1  0
  8 50  1  0
  9 51  1  0
  9 52  1  0
 10 53  1  0
 10 54  1  0
 11 55  1  0
 11 56  1  0
 12 57  1  0
 13 58  1  6
 18 59  1  0
 20 60  1  0
 26 61  1  0
 27 62  1  0
 28 63  1  0
 29 64  1  0
 33 65  1  0
 35 66  1  0
 36 67  1  0
 38 68  1  0
 39 69  1  0
 41 70  1  0
 42 71  1  0
 43 72  1  0
M  END
$$$$
