@<TRIPOS>MOLECULE
*****
 72 77 0 0 0
SMALL
GASTEIGER

@<TRIPOS>ATOM
      1 O          -3.2518   -1.5822    2.2642 O.2     1  UNL1       -0.2702
      2 C          -3.9248   -1.3529    1.2164 C.2     1  UNL1        0.2444
      3 N          -3.7116   -0.1095    0.5964 N.am    1  UNL1       -0.3047
      4 C          -2.8223    0.9064    1.0438 C.3     1  UNL1        0.0637
      5 C          -3.4825    2.1574    1.5237 C.3     1  UNL1       -0.0157
      6 C          -2.1570    2.9863    1.6895 C.3     1  UNL1       -0.0416
      7 C          -1.8343    2.8865    0.1776 C.3     1  UNL1        0.0014
      8 C          -3.0355    3.5216   -0.3909 C.3     1  UNL1       -0.0316
      9 C          -3.4837    3.1404   -1.7371 C.3     1  UNL1       -0.0496
     10 C          -4.9821    3.0469   -1.6256 C.3     1  UNL1       -0.0525
     11 C          -5.3126    2.7724   -0.1794 C.3     1  UNL1       -0.0496
     12 C          -4.1287    3.0645    0.5785 C.3     1  UNL1       -0.0332
     13 C          -1.8010    1.3679    0.0823 C.3     1  UNL1        0.1249
     14 O          -0.4751    1.0196    0.3516 O.3     1  UNL1       -0.4557
     15 C           0.4072    0.4129   -0.5196 C.2     1  UNL1        0.3397
     16 O          -0.1250    0.1870   -1.6412 O.2     1  UNL1       -0.2449
     17 C           1.7691    0.0753   -0.2004 C.ar    1  UNL1        0.0659
     18 C           2.3021    0.3398    1.0336 C.ar    1  UNL1       -0.0053
     19 C           3.6044    0.0349    1.3594 C.ar    1  UNL1        0.1320
     20 O           4.1600    0.2980    2.6120 O.3     1  UNL1       -0.5059
     21 C           4.4479   -0.5682    0.4215 C.ar    1  UNL1        0.1050
     22 C           5.7803   -0.9806    0.8119 C.2     1  UNL1        0.2044
     23 O           5.9944   -1.2192    2.0728 O.2     1  UNL1       -0.2863
     24 C           6.9496   -1.1823   -0.0216 C.ar    1  UNL1        0.0778
     25 C           7.7681   -2.2811    0.3135 C.ar    1  UNL1        0.1285
     26 O           7.3813   -3.1063    1.3907 O.3     1  UNL1       -0.5060
     27 C           8.9063   -2.5374   -0.3895 C.ar    1  UNL1       -0.0194
     28 C           9.3000   -1.7475   -1.4403 C.ar    1  UNL1       -0.0575
     29 C           8.5065   -0.6729   -1.7678 C.ar    1  UNL1       -0.0468
     30 C           7.3322   -0.3827   -1.0605 C.ar    1  UNL1        0.0731
     31 C           6.6887    0.9004   -1.3590 C.2     1  UNL1        0.3376
     32 O           5.8179    1.4566   -0.6841 O.2     1  UNL1       -0.2451
     33 O           7.0789    1.5902   -2.5243 O.3     1  UNL1       -0.4771
     34 C           3.9166   -0.8389   -0.8221 C.ar    1  UNL1        0.1320
     35 O           4.7135   -1.4458   -1.7902 O.3     1  UNL1       -0.5059
     36 C           2.5848   -0.5147   -1.1214 C.ar    1  UNL1       -0.0053
     37 C          -4.8704   -2.3317    0.6852 C.ar    1  UNL1        0.0369
     38 C          -5.7156   -2.0889   -0.3713 C.ar    1  UNL1       -0.0462
     39 C          -6.5966   -3.0787   -0.8281 C.ar    1  UNL1       -0.0195
     40 C          -6.6587   -4.3252   -0.2504 C.ar    1  UNL1        0.1169
     41 O          -7.5276   -5.3137   -0.6957 O.3     1  UNL1       -0.5068
     42 C          -5.8005   -4.5669    0.8194 C.ar    1  UNL1       -0.0195
     43 C          -4.9341   -3.5909    1.2673 C.ar    1  UNL1       -0.0462
     44 H          -4.2408    0.0786   -0.2786 H       1  UNL1        0.1494
     45 H          -2.3576    0.4792    1.9951 H       1  UNL1        0.0538
     46 H          -3.9599    2.0619    2.5137 H       1  UNL1        0.0323
     47 H          -2.3850    4.0060    1.9860 H       1  UNL1        0.0273
     48 H          -1.4480    2.4329    2.2997 H       1  UNL1        0.0273
     49 H          -0.8746    3.3521   -0.0484 H       1  UNL1        0.0340
     50 H          -2.8752    4.6228   -0.3523 H       1  UNL1        0.0307
     51 H          -3.2417    3.9755   -2.4611 H       1  UNL1        0.0268
     52 H          -3.0306    2.2498   -2.2005 H       1  UNL1        0.0268
     53 H          -5.3938    2.2534   -2.2992 H       1  UNL1        0.0265
     54 H          -5.4038    4.0483   -1.9379 H       1  UNL1        0.0265
     55 H          -6.1932    3.4686    0.0734 H       1  UNL1        0.0268
     56 H          -5.7815    1.7764   -0.1465 H       1  UNL1        0.0268
     57 H          -4.3340    4.0122    1.1887 H       1  UNL1        0.0307
     58 H          -2.0309    1.0833   -0.9337 H       1  UNL1        0.0756
     59 H           1.7123    0.8117    1.8346 H       1  UNL1        0.0662
     60 H           4.3985    1.2403    2.8996 H       1  UNL1        0.2922
     61 H           8.0186   -3.3674    2.1236 H       1  UNL1        0.2922
     62 H           9.5337   -3.4001   -0.1146 H       1  UNL1        0.0654
     63 H          10.2172   -1.9557   -2.0085 H       1  UNL1        0.0619
     64 H           8.8012   -0.0376   -2.5935 H       1  UNL1        0.0626
     65 H           6.3910    2.1898   -3.0001 H       1  UNL1        0.2954
     66 H           5.0112   -2.3954   -1.6124 H       1  UNL1        0.2922
     67 H           2.2521   -0.7632   -2.1278 H       1  UNL1        0.0662
     68 H          -5.7080   -1.1398   -0.8517 H       1  UNL1        0.0626
     69 H          -7.2542   -2.8647   -1.6620 H       1  UNL1        0.0654
     70 H          -8.5059   -5.2451   -0.4230 H       1  UNL1        0.2921
     71 H          -5.8401   -5.5448    1.2802 H       1  UNL1        0.0654
     72 H          -4.2552   -3.7753    2.1078 H       1  UNL1        0.0626
@<TRIPOS>BOND
     1     1     2    2
     2     2     3   am
     3     3     4    1
     4     4     5    1
     5     5     6    1
     6     6     7    1
     7     7     8    1
     8     8     9    1
     9     9    10    1
    10    10    11    1
    11    11    12    1
    12     7    13    1
    13    13    14    1
    14    14    15    1
    15    15    16    2
    16    15    17    1
    17    17    18   ar
    18    18    19   ar
    19    19    20    1
    20    19    21   ar
    21    21    22    1
    22    22    23    2
    23    22    24    1
    24    24    25   ar
    25    25    26    1
    26    25    27   ar
    27    27    28   ar
    28    28    29   ar
    29    29    30   ar
    30    30    31    1
    31    31    32    2
    32    31    33    1
    33    21    34   ar
    34    34    35    1
    35    34    36   ar
    36     2    37    1
    37    37    38   ar
    38    38    39   ar
    39    39    40   ar
    40    40    41    1
    41    40    42   ar
    42    42    43   ar
    43    13     4    1
    44    36    17   ar
    45    43    37   ar
    46    12     5    1
    47    30    24   ar
    48    12     8    1
    49     3    44    1
    50     4    45    1
    51     5    46    1
    52     6    47    1
    53     6    48    1
    54     7    49    1
    55     8    50    1
    56     9    51    1
    57     9    52    1
    58    10    53    1
    59    10    54    1
    60    11    55    1
    61    11    56    1
    62    12    57    1
    63    13    58    1
    64    18    59    1
    65    20    60    1
    66    26    61    1
    67    27    62    1
    68    28    63    1
    69    29    64    1
    70    33    65    1
    71    35    66    1
    72    36    67    1
    73    38    68    1
    74    39    69    1
    75    41    70    1
    76    42    71    1
    77    43    72    1
