@<TRIPOS>MOLECULE
*****
 49 49 0 0 0
SMALL
GASTEIGER

@<TRIPOS>ATOM
      1 C           2.4091    2.5769    2.2253 C.3     1  UNL1        0.0790
      2 O           3.0373    2.6524    0.9672 O.3     1  UNL1       -0.4914
      3 C           3.4570    1.5533    0.2518 C.ar    1  UNL1        0.1616
      4 C           4.0645    1.7995   -0.9825 C.ar    1  UNL1        0.1585
      5 O           4.2518    3.0692   -1.4930 O.3     1  UNL1       -0.5033
      6 C           4.4953    0.7176   -1.7211 C.ar    1  UNL1       -0.0162
      7 C           4.3024   -0.5614   -1.1989 C.ar    1  UNL1       -0.0534
      8 C           3.6970   -0.8294    0.0333 C.ar    1  UNL1       -0.0266
      9 C           3.5850   -2.2480    0.4138 C.3     1  UNL1        0.0369
     10 N           2.3760   -2.8763   -0.0490 N.am    1  UNL1       -0.3112
     11 C           1.0923   -2.6931    0.5496 C.2     1  UNL1        0.2133
     12 O           0.9630   -1.9425    1.5497 O.2     1  UNL1       -0.2758
     13 C          -0.0645   -3.3898   -0.0171 C.3     1  UNL1        0.0240
     14 C          -1.3438   -3.1300    0.6972 C.3     1  UNL1       -0.0445
     15 C          -1.7953   -1.7103    0.7461 C.3     1  UNL1       -0.0492
     16 C          -2.0277   -1.0747   -0.5844 C.3     1  UNL1       -0.0347
     17 C          -2.4752    0.3408   -0.3047 C.2     1  UNL1       -0.0877
     18 C          -3.6382    0.8823   -0.6692 C.2     1  UNL1       -0.0854
     19 C          -4.0848    2.2912   -0.3911 C.3     1  UNL1       -0.0286
     20 C          -4.3081    3.0975   -1.6282 C.3     1  UNL1       -0.0592
     21 C          -5.3590    2.1770    0.4322 C.3     1  UNL1       -0.0592
     22 C           3.2801    0.2768    0.7420 C.ar    1  UNL1       -0.0116
     23 H           3.0235    1.9319    2.9147 H       1  UNL1        0.0660
     24 H           2.3964    3.5848    2.6925 H       1  UNL1        0.0660
     25 H           1.3905    2.1798    2.1705 H       1  UNL1        0.0660
     26 H           5.1414    3.3479   -1.9363 H       1  UNL1        0.2923
     27 H           4.9757    0.8307   -2.6881 H       1  UNL1        0.0655
     28 H           4.6581   -1.3777   -1.8164 H       1  UNL1        0.0622
     29 H           3.6965   -2.3597    1.5331 H       1  UNL1        0.0512
     30 H           4.4544   -2.7960   -0.0021 H       1  UNL1        0.0512
     31 H           2.4224   -3.5118   -0.8775 H       1  UNL1        0.1490
     32 H          -0.0826   -3.2122   -1.1000 H       1  UNL1        0.0358
     33 H           0.1472   -4.4864    0.0932 H       1  UNL1        0.0358
     34 H          -2.1619   -3.7758    0.3166 H       1  UNL1        0.0270
     35 H          -1.1899   -3.4865    1.7534 H       1  UNL1        0.0270
     36 H          -1.1878   -1.0555    1.3788 H       1  UNL1        0.0268
     37 H          -2.8062   -1.7368    1.2534 H       1  UNL1        0.0268
     38 H          -1.0584   -0.9402   -1.1488 H       1  UNL1        0.0307
     39 H          -2.7269   -1.6058   -1.2271 H       1  UNL1        0.0307
     40 H          -1.7998    0.9896    0.2418 H       1  UNL1        0.0569
     41 H          -4.3051    0.2343   -1.2115 H       1  UNL1        0.0572
     42 H          -3.3343    2.8231    0.2369 H       1  UNL1        0.0338
     43 H          -3.7458    4.0689   -1.5956 H       1  UNL1        0.0235
     44 H          -5.3834    3.4137   -1.6444 H       1  UNL1        0.0235
     45 H          -4.1577    2.5483   -2.5796 H       1  UNL1        0.0235
     46 H          -5.3345    2.8415    1.3223 H       1  UNL1        0.0235
     47 H          -6.2471    2.4520   -0.1681 H       1  UNL1        0.0235
     48 H          -5.5121    1.1474    0.8244 H       1  UNL1        0.0235
     49 H           2.8134    0.0712    1.6949 H       1  UNL1        0.0658
@<TRIPOS>BOND
     1     1     2    1
     2     2     3    1
     3     3     4   ar
     4     4     5    1
     5     4     6   ar
     6     6     7   ar
     7     7     8   ar
     8     8     9    1
     9     9    10    1
    10    10    11   am
    11    11    12    2
    12    11    13    1
    13    13    14    1
    14    14    15    1
    15    15    16    1
    16    16    17    1
    17    17    18    2
    18    18    19    1
    19    19    20    1
    20    19    21    1
    21     8    22   ar
    22    22     3   ar
    23     1    23    1
    24     1    24    1
    25     1    25    1
    26     5    26    1
    27     6    27    1
    28     7    28    1
    29     9    29    1
    30     9    30    1
    31    10    31    1
    32    13    32    1
    33    13    33    1
    34    14    34    1
    35    14    35    1
    36    15    36    1
    37    15    37    1
    38    16    38    1
    39    16    39    1
    40    17    40    1
    41    18    41    1
    42    19    42    1
    43    20    43    1
    44    20    44    1
    45    20    45    1
    46    21    46    1
    47    21    47    1
    48    21    48    1
    49    22    49    1
