
     RDKit          3D

 49 49  0  0  0  0  0  0  0  0999 V2000
    2.4091    2.5769    2.2253 C   0  0  0  0  0  0  0  0  0  0  0  0
    3.0373    2.6524    0.9672 O   0  0  0  0  0  0  0  0  0  0  0  0
    3.4570    1.5533    0.2518 C   0  0  0  0  0  0  0  0  0  0  0  0
    4.0645    1.7995   -0.9825 C   0  0  0  0  0  0  0  0  0  0  0  0
    4.2518    3.0692   -1.4930 O   0  0  0  0  0  0  0  0  0  0  0  0
    4.4953    0.7176   -1.7211 C   0  0  0  0  0  0  0  0  0  0  0  0
    4.3024   -0.5614   -1.1989 C   0  0  0  0  0  0  0  0  0  0  0  0
    3.6970   -0.8294    0.0333 C   0  0  0  0  0  0  0  0  0  0  0  0
    3.5850   -2.2480    0.4138 C   0  0  0  0  0  0  0  0  0  0  0  0
    2.3760   -2.8763   -0.0490 N   0  0  0  0  0  0  0  0  0  0  0  0
    1.0923   -2.6931    0.5496 C   0  0  0  0  0  0  0  0  0  0  0  0
    0.9630   -1.9425    1.5497 O   0  0  0  0  0  0  0  0  0  0  0  0
   -0.0645   -3.3898   -0.0171 C   0  0  0  0  0  0  0  0  0  0  0  0
   -1.3438   -3.1300    0.6972 C   0  0  0  0  0  0  0  0  0  0  0  0
   -1.7953   -1.7103    0.7461 C   0  0  0  0  0  0  0  0  0  0  0  0
   -2.0277   -1.0747   -0.5844 C   0  0  0  0  0  0  0  0  0  0  0  0
   -2.4752    0.3408   -0.3047 C   0  0  0  0  0  0  0  0  0  0  0  0
   -3.6382    0.8823   -0.6692 C   0  0  0  0  0  0  0  0  0  0  0  0
   -4.0848    2.2912   -0.3911 C   0  0  0  0  0  0  0  0  0  0  0  0
   -4.3081    3.0975   -1.6282 C   0  0  0  0  0  0  0  0  0  0  0  0
   -5.3590    2.1770    0.4322 C   0  0  0  0  0  0  0  0  0  0  0  0
    3.2801    0.2768    0.7420 C   0  0  0  0  0  0  0  0  0  0  0  0
    3.0235    1.9319    2.9147 H   0  0  0  0  0  0  0  0  0  0  0  0
    2.3964    3.5848    2.6925 H   0  0  0  0  0  0  0  0  0  0  0  0
    1.3905    2.1798    2.1705 H   0  0  0  0  0  0  0  0  0  0  0  0
    5.1414    3.3479   -1.9363 H   0  0  0  0  0  0  0  0  0  0  0  0
    4.9757    0.8307   -2.6881 H   0  0  0  0  0  0  0  0  0  0  0  0
    4.6581   -1.3777   -1.8164 H   0  0  0  0  0  0  0  0  0  0  0  0
    3.6965   -2.3597    1.5331 H   0  0  0  0  0  0  0  0  0  0  0  0
    4.4544   -2.7960   -0.0021 H   0  0  0  0  0  0  0  0  0  0  0  0
    2.4224   -3.5118   -0.8775 H   0  0  0  0  0  0  0  0  0  0  0  0
   -0.0826   -3.2122   -1.1000 H   0  0  0  0  0  0  0  0  0  0  0  0
    0.1472   -4.4864    0.0932 H   0  0  0  0  0  0  0  0  0  0  0  0
   -2.1619   -3.7758    0.3166 H   0  0  0  0  0  0  0  0  0  0  0  0
   -1.1899   -3.4865    1.7534 H   0  0  0  0  0  0  0  0  0  0  0  0
   -1.1878   -1.0555    1.3788 H   0  0  0  0  0  0  0  0  0  0  0  0
   -2.8062   -1.7368    1.2534 H   0  0  0  0  0  0  0  0  0  0  0  0
   -1.0584   -0.9402   -1.1488 H   0  0  0  0  0  0  0  0  0  0  0  0
   -2.7269   -1.6058   -1.2271 H   0  0  0  0  0  0  0  0  0  0  0  0
   -1.7998    0.9896    0.2418 H   0  0  0  0  0  0  0  0  0  0  0  0
   -4.3051    0.2343   -1.2115 H   0  0  0  0  0  0  0  0  0  0  0  0
   -3.3343    2.8231    0.2369 H   0  0  0  0  0  0  0  0  0  0  0  0
   -3.7458    4.0689   -1.5956 H   0  0  0  0  0  0  0  0  0  0  0  0
   -5.3834    3.4137   -1.6444 H   0  0  0  0  0  0  0  0  0  0  0  0
   -4.1577    2.5483   -2.5796 H   0  0  0  0  0  0  0  0  0  0  0  0
   -5.3345    2.8415    1.3223 H   0  0  0  0  0  0  0  0  0  0  0  0
   -6.2471    2.4520   -0.1681 H   0  0  0  0  0  0  0  0  0  0  0  0
   -5.5121    1.1474    0.8244 H   0  0  0  0  0  0  0  0  0  0  0  0
    2.8134    0.0712    1.6949 H   0  0  0  0  0  0  0  0  0  0  0  0
  1  2  1  0
  2  3  1  0
  3  4  2  0
  4  5  1  0
  4  6  1  0
  6  7  2  0
  7  8  1  0
  8  9  1  0
  9 10  1  0
 10 11  1  0
 11 12  2  0
 11 13  1  0
 13 14  1  0
 14 15  1  0
 15 16  1  0
 16 17  1  0
 17 18  2  0
 18 19  1  0
 19 20  1  0
 19 21  1  0
  8 22  2  0
 22  3  1  0
  1 23  1  0
  1 24  1  0
  1 25  1  0
  5 26  1  0
  6 27  1  0
  7 28  1  0
  9 29  1  0
  9 30  1  0
 10 31  1  0
 13 32  1  0
 13 33  1  0
 14 34  1  0
 14 35  1  0
 15 36  1  0
 15 37  1  0
 16 38  1  0
 16 39  1  0
 17 40  1  0
 18 41  1  0
 19 42  1  0
 20 43  1  0
 20 44  1  0
 20 45  1  0
 21 46  1  0
 21 47  1  0
 21 48  1  0
 22 49  1  0
M  END
$$$$
