@<TRIPOS>MOLECULE
*****
 74 76 0 0 0
SMALL
GASTEIGER

@<TRIPOS>ATOM
      1 C           6.1704    1.7109    0.3626 C.3     1  UNL1        0.0811
      2 C           6.1237    1.6974    1.8552 C.3     1  UNL1       -0.0364
      3 O           7.4421    1.5058   -0.1110 O.3     1  UNL1       -0.3894
      4 C           5.1861    0.7280   -0.2764 C.3     1  UNL1        0.1155
      5 O           3.9718    1.0142    0.2555 O.3     1  UNL1       -0.3412
      6 C           2.8520    0.6016   -0.4219 C.3     1  UNL1        0.1776
      7 O           2.4662   -0.7065   -0.1854 O.3     1  UNL1       -0.3422
      8 C           1.2177   -0.8265    0.4245 C.3     1  UNL1        0.1051
      9 C           1.3934   -1.5672    1.7089 C.3     1  UNL1        0.0355
     10 N           2.0154   -0.6480    2.6589 N.3     1  UNL1       -0.3250
     11 C           0.1201   -2.0418    2.3428 C.3     1  UNL1       -0.0175
     12 C          -0.8433   -2.6348    1.3292 C.3     1  UNL1        0.0355
     13 N          -2.0342   -3.0683    1.9865 N.3     1  UNL1       -0.3250
     14 C          -1.1040   -1.5308    0.3124 C.3     1  UNL1        0.1051
     15 O          -2.2115   -1.7494   -0.4670 O.3     1  UNL1       -0.3413
     16 C          -3.0920   -0.6817   -0.3049 C.3     1  UNL1        0.1870
     17 O          -3.2770   -0.1108   -1.5487 O.3     1  UNL1       -0.3459
     18 C          -4.0640    1.0375   -1.5281 C.3     1  UNL1        0.0808
     19 C          -5.4429    0.7444   -0.9678 C.3     1  UNL1        0.1043
     20 C          -6.2230   -0.1651   -1.9052 C.3     1  UNL1       -0.0323
     21 O          -6.1653    1.9136   -0.8587 O.3     1  UNL1       -0.3849
     22 C          -5.2711    0.1424    0.3889 C.3     1  UNL1        0.0692
     23 N          -4.5853    1.0661    1.2473 N.3     1  UNL1       -0.3115
     24 C          -5.2721    2.3054    1.4452 C.3     1  UNL1       -0.0154
     25 C          -4.4345   -1.1106    0.2344 C.3     1  UNL1        0.1239
     26 O          -5.0152   -1.9702   -0.6831 O.3     1  UNL1       -0.3851
     27 C           0.1962   -1.4644   -0.4914 C.3     1  UNL1        0.1104
     28 O          -0.0044   -0.6708   -1.5937 O.3     1  UNL1       -0.3865
     29 C           2.8988    0.8465   -1.9137 C.3     1  UNL1        0.0853
     30 N           3.0967   -0.4039   -2.6314 N.3     1  UNL1       -0.3211
     31 C           4.1163    1.7077   -2.2411 C.3     1  UNL1        0.1033
     32 O           3.9701    2.9293   -1.6258 O.3     1  UNL1       -0.3874
     33 C           5.3014    0.9294   -1.7620 C.3     1  UNL1        0.1112
     34 O           5.3644   -0.2694   -2.4660 O.3     1  UNL1       -0.3865
     35 H           5.8494    2.7280   -0.0093 H       1  UNL1        0.0617
     36 H           6.4130    2.7337    2.1966 H       1  UNL1        0.0255
     37 H           6.9193    1.0312    2.2405 H       1  UNL1        0.0255
     38 H           5.1208    1.4791    2.2469 H       1  UNL1        0.0255
     39 H           7.9484    0.8523    0.4478 H       1  UNL1        0.2099
     40 H           5.5877   -0.2837   -0.0346 H       1  UNL1        0.0650
     41 H           2.0289    1.2589   -0.0476 H       1  UNL1        0.0927
     42 H           0.8485    0.2318    0.5637 H       1  UNL1        0.0639
     43 H           2.0734   -2.4114    1.5450 H       1  UNL1        0.0485
     44 H           1.7597   -0.9676    3.6338 H       1  UNL1        0.1185
     45 H           3.0429   -0.7034    2.5192 H       1  UNL1        0.1185
     46 H          -0.4079   -1.2447    2.9089 H       1  UNL1        0.0297
     47 H           0.3703   -2.8326    3.0799 H       1  UNL1        0.0297
     48 H          -0.3170   -3.4457    0.8213 H       1  UNL1        0.0485
     49 H          -2.6818   -3.4221    1.2212 H       1  UNL1        0.1185
     50 H          -1.7925   -3.9308    2.5247 H       1  UNL1        0.1185
     51 H          -1.1423   -0.5721    0.8936 H       1  UNL1        0.0639
     52 H          -2.6305    0.0460    0.4212 H       1  UNL1        0.0937
     53 H          -4.2073    1.3367   -2.5848 H       1  UNL1        0.0590
     54 H          -3.6204    1.8749   -0.9598 H       1  UNL1        0.0590
     55 H          -6.9196   -0.7817   -1.3274 H       1  UNL1        0.0258
     56 H          -6.8817    0.4589   -2.5772 H       1  UNL1        0.0258
     57 H          -5.5391   -0.7037   -2.5727 H       1  UNL1        0.0258
     58 H          -7.1490    1.7681   -0.8652 H       1  UNL1        0.2103
     59 H          -6.2480   -0.0925    0.8758 H       1  UNL1        0.0517
     60 H          -4.4057    0.6199    2.1939 H       1  UNL1        0.1221
     61 H          -6.3804    2.1466    1.4490 H       1  UNL1        0.0388
     62 H          -4.9752    3.1129    0.7443 H       1  UNL1        0.0388
     63 H          -5.0003    2.7034    2.4663 H       1  UNL1        0.0388
     64 H          -4.3562   -1.5523    1.2501 H       1  UNL1        0.0661
     65 H          -5.1007   -2.8925   -0.3463 H       1  UNL1        0.2101
     66 H           0.4606   -2.5170   -0.7115 H       1  UNL1        0.0646
     67 H          -0.0777   -1.2889   -2.3810 H       1  UNL1        0.2100
     68 H           2.0213    1.3986   -2.3040 H       1  UNL1        0.0535
     69 H           2.2694   -0.5396   -3.2524 H       1  UNL1        0.1187
     70 H           3.1418   -1.2369   -1.9931 H       1  UNL1        0.1187
     71 H           4.1543    1.8895   -3.3268 H       1  UNL1        0.0637
     72 H           3.0516    3.0285   -1.2554 H       1  UNL1        0.2100
     73 H           6.2047    1.5061   -2.0497 H       1  UNL1        0.0646
     74 H           5.7046   -0.0463   -3.3723 H       1  UNL1        0.2100
@<TRIPOS>BOND
     1     1     2    1
     2     1     3    1
     3     1     4    1
     4     4     5    1
     5     5     6    1
     6     6     7    1
     7     7     8    1
     8     8     9    1
     9     9    10    1
    10     9    11    1
    11    11    12    1
    12    12    13    1
    13    12    14    1
    14    14    15    1
    15    15    16    1
    16    16    17    1
    17    17    18    1
    18    18    19    1
    19    19    20    1
    20    19    21    1
    21    19    22    1
    22    22    23    1
    23    23    24    1
    24    22    25    1
    25    25    26    1
    26    14    27    1
    27    27    28    1
    28     6    29    1
    29    29    30    1
    30    29    31    1
    31    31    32    1
    32    31    33    1
    33    33    34    1
    34    33     4    1
    35    27     8    1
    36    25    16    1
    37     1    35    1
    38     2    36    1
    39     2    37    1
    40     2    38    1
    41     3    39    1
    42     4    40    1
    43     6    41    1
    44     8    42    1
    45     9    43    1
    46    10    44    1
    47    10    45    1
    48    11    46    1
    49    11    47    1
    50    12    48    1
    51    13    49    1
    52    13    50    1
    53    14    51    1
    54    16    52    1
    55    18    53    1
    56    18    54    1
    57    20    55    1
    58    20    56    1
    59    20    57    1
    60    21    58    1
    61    22    59    1
    62    23    60    1
    63    24    61    1
    64    24    62    1
    65    24    63    1
    66    25    64    1
    67    26    65    1
    68    27    66    1
    69    28    67    1
    70    29    68    1
    71    30    69    1
    72    30    70    1
    73    31    71    1
    74    32    72    1
    75    33    73    1
    76    34    74    1
