@<TRIPOS>MOLECULE
*****
 53 55 0 0 0
SMALL
GASTEIGER

@<TRIPOS>ATOM
      1 C           7.0431    0.8481    0.1061 C.3     1  UNL1       -0.0652
      2 C           5.7252    1.2945   -0.4890 C.3     1  UNL1       -0.0545
      3 C           5.1414    0.2890   -1.4157 C.3     1  UNL1       -0.0370
      4 C           4.8152   -1.0428   -0.8539 C.3     1  UNL1        0.0202
      5 N           3.8403   -1.0449    0.2185 N.am    1  UNL1       -0.2641
      6 C           4.0895   -0.9384    1.6076 C.2     1  UNL1        0.2913
      7 O           5.2355   -0.8229    2.1832 O.2     1  UNL1       -0.2661
      8 C           2.7971   -0.9847    2.2690 C.2     1  UNL1        0.2496
      9 O           2.5710   -0.9209    3.5001 O.2     1  UNL1       -0.2817
     10 C           1.7927   -1.1209    1.2285 C.ar    1  UNL1        0.0502
     11 C           0.3943   -1.2152    1.2608 C.ar    1  UNL1       -0.0226
     12 C          -0.3719   -1.3403    0.1394 C.ar    1  UNL1        0.1063
     13 S          -2.1120   -1.4516    0.2657 S.O2    1  UNL1        0.0611
     14 O          -2.4170   -2.0169    1.6443 O.2     1  UNL1       -0.1528
     15 O          -2.7146   -2.3577   -0.7354 O.2     1  UNL1       -0.1528
     16 N          -2.8318    0.1062    0.1959 N.3     1  UNL1       -0.1735
     17 C          -2.4141    0.9623    1.2757 C.3     1  UNL1        0.0209
     18 C          -3.4275    0.7934    2.3848 C.3     1  UNL1       -0.0371
     19 C          -4.5247   -0.0412    1.8238 C.3     1  UNL1       -0.0344
     20 C          -4.2699   -0.0193    0.2894 C.3     1  UNL1        0.0340
     21 C          -4.9730    1.2060   -0.1784 C.3     1  UNL1       -0.0122
     22 C          -4.7714    1.7071   -1.5419 C.3     1  UNL1        0.0488
     23 O          -5.1072    0.9456   -2.5801 O.3     1  UNL1       -0.3829
     24 C          -4.5601   -0.2136   -2.9264 C.3     1  UNL1        0.0364
     25 C           0.2760   -1.3741   -1.0771 C.ar    1  UNL1       -0.0335
     26 C           1.6532   -1.2836   -1.1464 C.ar    1  UNL1       -0.0377
     27 C           2.4352   -1.1552    0.0102 C.ar    1  UNL1        0.0477
     28 H           7.0708   -0.2642    0.2167 H       1  UNL1        0.0230
     29 H           7.8663    1.1913   -0.5179 H       1  UNL1        0.0230
     30 H           7.1789    1.2929    1.1137 H       1  UNL1        0.0230
     31 H           5.0189    1.6493    0.2905 H       1  UNL1        0.0263
     32 H           5.9516    2.2054   -1.1015 H       1  UNL1        0.0263
     33 H           5.9189    0.1115   -2.2182 H       1  UNL1        0.0280
     34 H           4.2808    0.7168   -1.9821 H       1  UNL1        0.0280
     35 H           5.7025   -1.5942   -0.4978 H       1  UNL1        0.0469
     36 H           4.4133   -1.6602   -1.7078 H       1  UNL1        0.0469
     37 H          -0.0730   -1.1859    2.2201 H       1  UNL1        0.0645
     38 H          -1.4250    0.7221    1.6892 H       1  UNL1        0.0444
     39 H          -2.4971    2.0134    0.9291 H       1  UNL1        0.0444
     40 H          -2.9796    0.3405    3.3017 H       1  UNL1        0.0279
     41 H          -3.8475    1.7766    2.7202 H       1  UNL1        0.0279
     42 H          -4.4731   -1.0588    2.2168 H       1  UNL1        0.0281
     43 H          -5.5297    0.3682    2.0495 H       1  UNL1        0.0281
     44 H          -4.6787   -0.9805   -0.0301 H       1  UNL1        0.0480
     45 H          -4.6655    2.0221    0.5561 H       1  UNL1        0.0303
     46 H          -6.0874    1.0282    0.0245 H       1  UNL1        0.0303
     47 H          -5.4302    2.6597   -1.6152 H       1  UNL1        0.0560
     48 H          -3.7279    2.1698   -1.6588 H       1  UNL1        0.0560
     49 H          -5.0702   -0.5677   -3.8991 H       1  UNL1        0.0523
     50 H          -3.4954   -0.0695   -3.2837 H       1  UNL1        0.0523
     51 H          -4.6243   -1.0292   -2.1967 H       1  UNL1        0.0523
     52 H          -0.2977   -1.4717   -1.9789 H       1  UNL1        0.0638
     53 H           2.1856   -1.3084   -2.0992 H       1  UNL1        0.0637
@<TRIPOS>BOND
     1     1     2    1
     2     2     3    1
     3     3     4    1
     4     4     5    1
     5     5     6   am
     6     6     7    2
     7     6     8    1
     8     8     9    2
     9     8    10    1
    10    10    11   ar
    11    11    12   ar
    12    12    13    1
    13    13    14    2
    14    13    15    2
    15    13    16    1
    16    16    17    1
    17    17    18    1
    18    18    19    1
    19    19    20    1
    20    20    21    1
    21    21    22    1
    22    22    23    1
    23    23    24    1
    24    12    25   ar
    25    25    26   ar
    26    26    27   ar
    27    27     5    1
    28    27    10   ar
    29    20    16    1
    30     1    28    1
    31     1    29    1
    32     1    30    1
    33     2    31    1
    34     2    32    1
    35     3    33    1
    36     3    34    1
    37     4    35    1
    38     4    36    1
    39    11    37    1
    40    17    38    1
    41    17    39    1
    42    18    40    1
    43    18    41    1
    44    19    42    1
    45    19    43    1
    46    20    44    1
    47    21    45    1
    48    21    46    1
    49    22    47    1
    50    22    48    1
    51    24    49    1
    52    24    50    1
    53    24    51    1
    54    25    52    1
    55    26    53    1
