
     RDKit          3D

 53 55  0  0  0  0  0  0  0  0999 V2000
    7.0431    0.8481    0.1061 C   0  0  0  0  0  0  0  0  0  0  0  0
    5.7252    1.2945   -0.4890 C   0  0  0  0  0  0  0  0  0  0  0  0
    5.1414    0.2890   -1.4157 C   0  0  0  0  0  0  0  0  0  0  0  0
    4.8152   -1.0428   -0.8539 C   0  0  0  0  0  0  0  0  0  0  0  0
    3.8403   -1.0449    0.2185 N   0  0  0  0  0  0  0  0  0  0  0  0
    4.0895   -0.9384    1.6076 C   0  0  0  0  0  0  0  0  0  0  0  0
    5.2355   -0.8229    2.1832 O   0  0  0  0  0  0  0  0  0  0  0  0
    2.7971   -0.9847    2.2690 C   0  0  0  0  0  0  0  0  0  0  0  0
    2.5710   -0.9209    3.5001 O   0  0  0  0  0  0  0  0  0  0  0  0
    1.7927   -1.1209    1.2285 C   0  0  0  0  0  0  0  0  0  0  0  0
    0.3943   -1.2152    1.2608 C   0  0  0  0  0  0  0  0  0  0  0  0
   -0.3719   -1.3403    0.1394 C   0  0  0  0  0  0  0  0  0  0  0  0
   -2.1120   -1.4516    0.2657 S   0  0  0  0  0  6  0  0  0  0  0  0
   -2.4170   -2.0169    1.6443 O   0  0  0  0  0  0  0  0  0  0  0  0
   -2.7146   -2.3577   -0.7354 O   0  0  0  0  0  0  0  0  0  0  0  0
   -2.8318    0.1062    0.1959 N   0  0  0  0  0  0  0  0  0  0  0  0
   -2.4141    0.9623    1.2757 C   0  0  0  0  0  0  0  0  0  0  0  0
   -3.4275    0.7934    2.3848 C   0  0  0  0  0  0  0  0  0  0  0  0
   -4.5247   -0.0412    1.8238 C   0  0  0  0  0  0  0  0  0  0  0  0
   -4.2699   -0.0193    0.2894 C   0  0  1  0  0  0  0  0  0  0  0  0
   -4.9730    1.2060   -0.1784 C   0  0  0  0  0  0  0  0  0  0  0  0
   -4.7714    1.7071   -1.5419 C   0  0  0  0  0  0  0  0  0  0  0  0
   -5.1072    0.9456   -2.5801 O   0  0  0  0  0  0  0  0  0  0  0  0
   -4.5601   -0.2136   -2.9264 C   0  0  0  0  0  0  0  0  0  0  0  0
    0.2760   -1.3741   -1.0771 C   0  0  0  0  0  0  0  0  0  0  0  0
    1.6532   -1.2836   -1.1464 C   0  0  0  0  0  0  0  0  0  0  0  0
    2.4352   -1.1552    0.0102 C   0  0  0  0  0  0  0  0  0  0  0  0
    7.0708   -0.2642    0.2167 H   0  0  0  0  0  0  0  0  0  0  0  0
    7.8663    1.1913   -0.5179 H   0  0  0  0  0  0  0  0  0  0  0  0
    7.1789    1.2929    1.1137 H   0  0  0  0  0  0  0  0  0  0  0  0
    5.0189    1.6493    0.2905 H   0  0  0  0  0  0  0  0  0  0  0  0
    5.9516    2.2054   -1.1015 H   0  0  0  0  0  0  0  0  0  0  0  0
    5.9189    0.1115   -2.2182 H   0  0  0  0  0  0  0  0  0  0  0  0
    4.2808    0.7168   -1.9821 H   0  0  0  0  0  0  0  0  0  0  0  0
    5.7025   -1.5942   -0.4978 H   0  0  0  0  0  0  0  0  0  0  0  0
    4.4133   -1.6602   -1.7078 H   0  0  0  0  0  0  0  0  0  0  0  0
   -0.0730   -1.1859    2.2201 H   0  0  0  0  0  0  0  0  0  0  0  0
   -1.4250    0.7221    1.6892 H   0  0  0  0  0  0  0  0  0  0  0  0
   -2.4971    2.0134    0.9291 H   0  0  0  0  0  0  0  0  0  0  0  0
   -2.9796    0.3405    3.3017 H   0  0  0  0  0  0  0  0  0  0  0  0
   -3.8475    1.7766    2.7202 H   0  0  0  0  0  0  0  0  0  0  0  0
   -4.4731   -1.0588    2.2168 H   0  0  0  0  0  0  0  0  0  0  0  0
   -5.5297    0.3682    2.0495 H   0  0  0  0  0  0  0  0  0  0  0  0
   -4.6787   -0.9805   -0.0301 H   0  0  0  0  0  0  0  0  0  0  0  0
   -4.6655    2.0221    0.5561 H   0  0  0  0  0  0  0  0  0  0  0  0
   -6.0874    1.0282    0.0245 H   0  0  0  0  0  0  0  0  0  0  0  0
   -5.4302    2.6597   -1.6152 H   0  0  0  0  0  0  0  0  0  0  0  0
   -3.7279    2.1698   -1.6588 H   0  0  0  0  0  0  0  0  0  0  0  0
   -5.0702   -0.5677   -3.8991 H   0  0  0  0  0  0  0  0  0  0  0  0
   -3.4954   -0.0695   -3.2837 H   0  0  0  0  0  0  0  0  0  0  0  0
   -4.6243   -1.0292   -2.1967 H   0  0  0  0  0  0  0  0  0  0  0  0
   -0.2977   -1.4717   -1.9789 H   0  0  0  0  0  0  0  0  0  0  0  0
    2.1856   -1.3084   -2.0992 H   0  0  0  0  0  0  0  0  0  0  0  0
  1  2  1  0
  2  3  1  0
  3  4  1  0
  4  5  1  0
  5  6  1  0
  6  7  2  0
  6  8  1  0
  8  9  2  0
  8 10  1  0
 10 11  2  0
 11 12  1  0
 12 13  1  0
 13 14  2  0
 13 15  2  0
 13 16  1  0
 16 17  1  0
 17 18  1  0
 18 19  1  0
 19 20  1  0
 20 21  1  0
 21 22  1  0
 22 23  1  0
 23 24  1  0
 12 25  2  0
 25 26  1  0
 26 27  2  0
 27  5  1  0
 27 10  1  0
 20 16  1  0
  1 28  1  0
  1 29  1  0
  1 30  1  0
  2 31  1  0
  2 32  1  0
  3 33  1  0
  3 34  1  0
  4 35  1  0
  4 36  1  0
 11 37  1  0
 17 38  1  0
 17 39  1  0
 18 40  1  0
 18 41  1  0
 19 42  1  0
 19 43  1  0
 20 44  1  6
 21 45  1  0
 21 46  1  0
 22 47  1  0
 22 48  1  0
 24 49  1  0
 24 50  1  0
 24 51  1  0
 25 52  1  0
 26 53  1  0
M  END
$$$$
