
     RDKit          3D

 49 50  0  0  0  0  0  0  0  0999 V2000
    0.8962   -0.3614   -0.3994 C   0  0  2  0  0  0  0  0  0  0  0  0
    1.5815   -1.4864   -1.1664 C   0  0  0  0  0  0  0  0  0  0  0  0
    3.0143   -1.1784   -0.8171 C   0  0  0  0  0  0  0  0  0  0  0  0
    3.0016   -0.6310    0.4707 C   0  0  0  0  0  0  0  0  0  0  0  0
    1.5753   -0.5809    0.9600 C   0  0  0  0  0  0  0  0  0  0  0  0
    4.1746   -0.2354    1.0934 C   0  0  0  0  0  0  0  0  0  0  0  0
    5.3696   -0.3878    0.4244 C   0  0  0  0  0  0  0  0  0  0  0  0
    5.4173   -0.9245   -0.8474 C   0  0  0  0  0  0  0  0  0  0  0  0
    4.2337   -1.3162   -1.4581 C   0  0  0  0  0  0  0  0  0  0  0  0
    6.8811    0.1064    1.1901 S   0  0  0  0  0  0  0  0  0  0  0  0
    7.2057    1.7644    0.8006 N   0  0  0  0  0  0  0  0  0  0  0  0
    6.6892    0.0756    2.6931 O   0  0  0  0  0  0  0  0  0  0  0  0
    8.0106   -0.8022    0.8589 O   0  0  0  0  0  0  0  0  0  0  0  0
   -0.5119   -0.5357   -0.2576 N   0  0  0  0  0  0  0  0  0  0  0  0
   -1.4770    0.4823   -0.5453 C   0  0  0  0  0  0  0  0  0  0  0  0
   -0.8125    1.5030   -0.9297 O   0  0  0  0  0  0  0  0  0  0  0  0
   -2.9086    0.1058   -0.3336 C   0  0  0  0  0  0  0  0  0  0  0  0
   -3.8394    1.2357   -0.6611 C   0  0  0  0  0  0  0  0  0  0  0  0
   -3.5132    2.4040    0.2292 C   0  0  0  0  0  0  0  0  0  0  0  0
   -4.4789    3.5295   -0.1337 C   0  0  0  0  0  0  0  0  0  0  0  0
   -3.1980   -1.1267   -1.1694 C   0  0  0  0  0  0  0  0  0  0  0  0
   -4.6415   -1.5431   -0.9840 C   0  0  0  0  0  0  0  0  0  0  0  0
   -4.9675   -1.8712    0.4409 C   0  0  0  0  0  0  0  0  0  0  0  0
    1.2161    0.6420   -0.7576 H   0  0  0  0  0  0  0  0  0  0  0  0
    1.3932   -1.4596   -2.2435 H   0  0  0  0  0  0  0  0  0  0  0  0
    1.2493   -2.4211   -0.6575 H   0  0  0  0  0  0  0  0  0  0  0  0
    1.2621   -1.5656    1.3448 H   0  0  0  0  0  0  0  0  0  0  0  0
    1.4009    0.2623    1.6347 H   0  0  0  0  0  0  0  0  0  0  0  0
    4.1597    0.1931    2.1027 H   0  0  0  0  0  0  0  0  0  0  0  0
    6.3716   -1.0266   -1.3356 H   0  0  0  0  0  0  0  0  0  0  0  0
    4.2360   -1.7438   -2.4622 H   0  0  0  0  0  0  0  0  0  0  0  0
    8.2159    1.8376    0.5963 H   0  0  0  0  0  0  0  0  0  0  0  0
    6.6061    2.0174   -0.0235 H   0  0  0  0  0  0  0  0  0  0  0  0
   -0.7031   -1.5232    0.0878 H   0  0  0  0  0  0  0  0  0  0  0  0
   -3.0853   -0.1786    0.7250 H   0  0  0  0  0  0  0  0  0  0  0  0
   -3.8771    1.5100   -1.7134 H   0  0  0  0  0  0  0  0  0  0  0  0
   -4.8610    0.8804   -0.3408 H   0  0  0  0  0  0  0  0  0  0  0  0
   -3.7013    2.1617    1.2871 H   0  0  0  0  0  0  0  0  0  0  0  0
   -2.4968    2.7748    0.0750 H   0  0  0  0  0  0  0  0  0  0  0  0
   -4.8298    3.4513   -1.1739 H   0  0  0  0  0  0  0  0  0  0  0  0
   -5.3299    3.5566    0.5602 H   0  0  0  0  0  0  0  0  0  0  0  0
   -3.9502    4.5097    0.0078 H   0  0  0  0  0  0  0  0  0  0  0  0
   -3.0346   -0.9532   -2.2505 H   0  0  0  0  0  0  0  0  0  0  0  0
   -2.5549   -1.9309   -0.7613 H   0  0  0  0  0  0  0  0  0  0  0  0
   -5.3418   -0.7993   -1.3943 H   0  0  0  0  0  0  0  0  0  0  0  0
   -4.7613   -2.4813   -1.5808 H   0  0  0  0  0  0  0  0  0  0  0  0
   -4.0807   -2.1483    1.0271 H   0  0  0  0  0  0  0  0  0  0  0  0
   -5.5514   -1.0431    0.9197 H   0  0  0  0  0  0  0  0  0  0  0  0
   -5.6538   -2.7484    0.4785 H   0  0  0  0  0  0  0  0  0  0  0  0
  1  2  1  0
  2  3  1  0
  3  4  2  0
  4  5  1  0
  4  6  1  0
  6  7  2  0
  7  8  1  0
  8  9  2  0
  7 10  1  0
 10 11  1  0
 10 12  2  0
 10 13  2  0
  1 14  1  0
 14 15  1  0
 15 16  2  0
 15 17  1  0
 17 18  1  0
 18 19  1  0
 19 20  1  0
 17 21  1  0
 21 22  1  0
 22 23  1  0
  5  1  1  0
  9  3  1  0
  1 24  1  6
  2 25  1  0
  2 26  1  0
  5 27  1  0
  5 28  1  0
  6 29  1  0
  8 30  1  0
  9 31  1  0
 11 32  1  0
 11 33  1  0
 14 34  1  0
 17 35  1  0
 18 36  1  0
 18 37  1  0
 19 38  1  0
 19 39  1  0
 20 40  1  0
 20 41  1  0
 20 42  1  0
 21 43  1  0
 21 44  1  0
 22 45  1  0
 22 46  1  0
 23 47  1  0
 23 48  1  0
 23 49  1  0
M  END
$$$$
