@<TRIPOS>MOLECULE
*****
 49 50 0 0 0
SMALL
GASTEIGER

@<TRIPOS>ATOM
      1 C           0.8962   -0.3614   -0.3994 C.3     1  UNL1        0.0311
      2 C           1.5815   -1.4864   -1.1664 C.3     1  UNL1       -0.0086
      3 C           3.0143   -1.1784   -0.8171 C.ar    1  UNL1       -0.0423
      4 C           3.0016   -0.6310    0.4707 C.ar    1  UNL1       -0.0405
      5 C           1.5753   -0.5809    0.9600 C.3     1  UNL1       -0.0086
      6 C           4.1746   -0.2354    1.0934 C.ar    1  UNL1       -0.0319
      7 C           5.3696   -0.3878    0.4244 C.ar    1  UNL1        0.1053
      8 C           5.4173   -0.9245   -0.8474 C.ar    1  UNL1       -0.0351
      9 C           4.2337   -1.3162   -1.4581 C.ar    1  UNL1       -0.0564
     10 S           6.8811    0.1064    1.1901 S.O2    1  UNL1        0.0560
     11 N           7.2057    1.7644    0.8006 N.3     1  UNL1       -0.2035
     12 O           6.6892    0.0756    2.6931 O.2     1  UNL1       -0.1533
     13 O           8.0106   -0.8022    0.8589 O.2     1  UNL1       -0.1533
     14 N          -0.5119   -0.5357   -0.2576 N.am    1  UNL1       -0.3116
     15 C          -1.4770    0.4823   -0.5453 C.2     1  UNL1        0.2163
     16 O          -0.8125    1.5030   -0.9297 O.2     1  UNL1       -0.2755
     17 C          -2.9086    0.1058   -0.3336 C.3     1  UNL1        0.0355
     18 C          -3.8394    1.2357   -0.6611 C.3     1  UNL1       -0.0422
     19 C          -3.5132    2.4040    0.2292 C.3     1  UNL1       -0.0552
     20 C          -4.4789    3.5295   -0.1337 C.3     1  UNL1       -0.0653
     21 C          -3.1980   -1.1267   -1.1694 C.3     1  UNL1       -0.0422
     22 C          -4.6415   -1.5431   -0.9840 C.3     1  UNL1       -0.0552
     23 C          -4.9675   -1.8712    0.4409 C.3     1  UNL1       -0.0653
     24 H           1.2161    0.6420   -0.7576 H       1  UNL1        0.0505
     25 H           1.3932   -1.4596   -2.2435 H       1  UNL1        0.0331
     26 H           1.2493   -2.4211   -0.6575 H       1  UNL1        0.0331
     27 H           1.2621   -1.5656    1.3448 H       1  UNL1        0.0331
     28 H           1.4009    0.2623    1.6347 H       1  UNL1        0.0331
     29 H           4.1597    0.1931    2.1027 H       1  UNL1        0.0640
     30 H           6.3716   -1.0266   -1.3356 H       1  UNL1        0.0637
     31 H           4.2360   -1.7438   -2.4622 H       1  UNL1        0.0621
     32 H           8.2159    1.8376    0.5963 H       1  UNL1        0.1442
     33 H           6.6061    2.0174   -0.0235 H       1  UNL1        0.1442
     34 H          -0.7031   -1.5232    0.0878 H       1  UNL1        0.1490
     35 H          -3.0853   -0.1786    0.7250 H       1  UNL1        0.0394
     36 H          -3.8771    1.5100   -1.7134 H       1  UNL1        0.0272
     37 H          -4.8610    0.8804   -0.3408 H       1  UNL1        0.0272
     38 H          -3.7013    2.1617    1.2871 H       1  UNL1        0.0263
     39 H          -2.4968    2.7748    0.0750 H       1  UNL1        0.0263
     40 H          -4.8298    3.4513   -1.1739 H       1  UNL1        0.0230
     41 H          -5.3299    3.5566    0.5602 H       1  UNL1        0.0230
     42 H          -3.9502    4.5097    0.0078 H       1  UNL1        0.0230
     43 H          -3.0346   -0.9532   -2.2505 H       1  UNL1        0.0272
     44 H          -2.5549   -1.9309   -0.7613 H       1  UNL1        0.0272
     45 H          -5.3418   -0.7993   -1.3943 H       1  UNL1        0.0263
     46 H          -4.7613   -2.4813   -1.5808 H       1  UNL1        0.0263
     47 H          -4.0807   -2.1483    1.0271 H       1  UNL1        0.0230
     48 H          -5.5514   -1.0431    0.9197 H       1  UNL1        0.0230
     49 H          -5.6538   -2.7484    0.4785 H       1  UNL1        0.0230
@<TRIPOS>BOND
     1     1     2    1
     2     2     3    1
     3     3     4   ar
     4     4     5    1
     5     4     6   ar
     6     6     7   ar
     7     7     8   ar
     8     8     9   ar
     9     7    10    1
    10    10    11    1
    11    10    12    2
    12    10    13    2
    13     1    14    1
    14    14    15   am
    15    15    16    2
    16    15    17    1
    17    17    18    1
    18    18    19    1
    19    19    20    1
    20    17    21    1
    21    21    22    1
    22    22    23    1
    23     5     1    1
    24     9     3   ar
    25     1    24    1
    26     2    25    1
    27     2    26    1
    28     5    27    1
    29     5    28    1
    30     6    29    1
    31     8    30    1
    32     9    31    1
    33    11    32    1
    34    11    33    1
    35    14    34    1
    36    17    35    1
    37    18    36    1
    38    18    37    1
    39    19    38    1
    40    19    39    1
    41    20    40    1
    42    20    41    1
    43    20    42    1
    44    21    43    1
    45    21    44    1
    46    22    45    1
    47    22    46    1
    48    23    47    1
    49    23    48    1
    50    23    49    1
