
     RDKit          3D

 14 15  0  0  0  0  0  0  0  0999 V2000
   -0.3016    3.0535   -0.0827 S   0  0  0  0  0  0  0  0  0  0  0  0
    0.3560    1.5375   -0.0558 C   0  0  0  0  0  0  0  0  0  0  0  0
    1.7150    1.4048   -0.0899 N   0  0  0  0  0  0  0  0  0  0  0  0
    2.1976    0.1281   -0.0654 C   0  0  0  0  0  0  0  0  0  0  0  0
    1.4471   -0.9854   -0.0111 N   0  0  0  0  0  0  0  0  0  0  0  0
    0.1232   -0.8149    0.0209 C   0  0  0  0  0  0  0  0  0  0  0  0
   -0.4614    0.4358   -0.0001 C   0  0  0  0  0  0  0  0  0  0  0  0
   -1.7985    0.2912    0.0417 N   0  0  0  0  0  0  0  0  0  0  0  0
   -2.0462   -1.0479    0.0886 C   0  0  0  0  0  0  0  0  0  0  0  0
   -0.8774   -1.7137    0.0757 N   0  0  0  0  0  0  0  0  0  0  0  0
    3.2760    0.0497   -0.0932 H   0  0  0  0  0  0  0  0  0  0  0  0
    1.9190   -1.9029    0.0030 H   0  0  0  0  0  0  0  0  0  0  0  0
   -2.5215    1.0650    0.0388 H   0  0  0  0  0  0  0  0  0  0  0  0
   -3.0273   -1.5010    0.1295 H   0  0  0  0  0  0  0  0  0  0  0  0
  1  2  2  0
  2  3  1  0
  3  4  2  0
  4  5  1  0
  5  6  1  0
  6  7  2  0
  7  8  1  0
  8  9  1  0
  9 10  2  0
  7  2  1  0
 10  6  1  0
  4 11  1  0
  5 12  1  0
  8 13  1  0
  9 14  1  0
M  END
$$$$
