@<TRIPOS>MOLECULE
*****
 14 15 0 0 0
SMALL
GASTEIGER

@<TRIPOS>ATOM
      1 S          -0.3016    3.0535   -0.0827 S.2     1  UNL1       -0.0284
      2 C           0.3560    1.5375   -0.0558 C.ar    1  UNL1        0.1361
      3 N           1.7150    1.4048   -0.0899 N.ar    1  UNL1       -0.2281
      4 C           2.1976    0.1281   -0.0654 C.ar    1  UNL1        0.0962
      5 N           1.4471   -0.9854   -0.0111 N.ar    1  UNL1       -0.3292
      6 C           0.1232   -0.8149    0.0209 C.ar    1  UNL1        0.1598
      7 C          -0.4614    0.4358   -0.0001 C.ar    1  UNL1        0.1162
      8 N          -1.7985    0.2912    0.0417 N.ar    1  UNL1       -0.3411
      9 C          -2.0462   -1.0479    0.0886 C.ar    1  UNL1        0.0962
     10 N          -0.8774   -1.7137    0.0757 N.ar    1  UNL1       -0.2183
     11 H           3.2760    0.0497   -0.0932 H       1  UNL1        0.1027
     12 H           1.9190   -1.9029    0.0030 H       1  UNL1        0.1682
     13 H          -2.5215    1.0650    0.0388 H       1  UNL1        0.1669
     14 H          -3.0273   -1.5010    0.1295 H       1  UNL1        0.1027
@<TRIPOS>BOND
     1     1     2    2
     2     2     3   ar
     3     3     4   ar
     4     4     5   ar
     5     5     6   ar
     6     6     7   ar
     7     7     8   ar
     8     8     9   ar
     9     9    10   ar
    10     7     2   ar
    11    10     6   ar
    12     4    11    1
    13     5    12    1
    14     8    13    1
    15     9    14    1
