@<TRIPOS>MOLECULE
*****
 51 53 0 0 0
SMALL
GASTEIGER

@<TRIPOS>ATOM
      1 C          -0.3787    0.0589   -3.5705 C.3     1  UNL1       -0.0375
      2 C           0.7095   -0.1566   -2.6016 C.ar    1  UNL1       -0.0199
      3 C           1.9366   -0.5560   -3.1634 C.ar    1  UNL1       -0.0546
      4 C           2.9950   -0.7046   -2.2824 C.ar    1  UNL1       -0.0354
      5 C           2.8723   -0.4796   -0.9365 C.ar    1  UNL1        0.0719
      6 C           3.9817   -0.6340   -0.0128 C.ar    1  UNL1        0.0007
      7 C           5.2319   -1.0143   -0.4086 C.ar    1  UNL1       -0.0525
      8 C           6.2629   -1.1452    0.5375 C.ar    1  UNL1       -0.0608
      9 C           6.0642   -0.9017    1.8753 C.ar    1  UNL1       -0.0564
     10 C           4.8021   -0.5171    2.2799 C.ar    1  UNL1       -0.0216
     11 C           4.6015   -0.2569    3.7308 C.3     1  UNL1        0.0693
     12 O           4.8755    1.0935    3.9557 O.3     1  UNL1       -0.3904
     13 C           3.7973   -0.3899    1.3550 C.ar    1  UNL1       -0.0472
     14 N           1.6798   -0.1034   -0.4652 N.ar    1  UNL1       -0.2418
     15 C           0.5674    0.0675   -1.2791 C.ar    1  UNL1        0.1292
     16 C          -0.6740    0.4076   -0.6322 C.2     1  UNL1        0.2669
     17 O          -0.6458    1.0664    0.4860 O.2     1  UNL1       -0.2682
     18 N          -1.9638    0.1015   -1.0667 N.am    1  UNL1       -0.2798
     19 C          -3.1365    0.4940   -0.3603 C.ar    1  UNL1        0.0403
     20 C          -3.7283    1.6916   -0.6387 C.ar    1  UNL1       -0.0289
     21 C          -3.1581    2.5728   -1.6632 C.3     1  UNL1       -0.0379
     22 C          -4.8873    2.0985    0.0473 C.ar    1  UNL1       -0.0563
     23 C          -5.4218    1.2569    1.0175 C.ar    1  UNL1       -0.0472
     24 C          -4.8128    0.0577    1.2829 C.ar    1  UNL1        0.0635
     25 C          -5.3672   -0.8154    2.2898 C.2     1  UNL1        0.3371
     26 O          -4.8850   -1.9333    2.6075 O.2     1  UNL1       -0.2451
     27 O          -6.5103   -0.4359    2.9801 O.3     1  UNL1       -0.4771
     28 C          -3.6766   -0.3205    0.5972 C.ar    1  UNL1       -0.0150
     29 C          -3.0053   -1.6384    0.8868 C.3     1  UNL1       -0.0372
     30 H           0.1133    0.3781   -4.5442 H       1  UNL1        0.0278
     31 H          -1.0376    0.9256   -3.3136 H       1  UNL1        0.0278
     32 H          -0.9508   -0.8337   -3.8281 H       1  UNL1        0.0278
     33 H           2.0232   -0.7298   -4.2170 H       1  UNL1        0.0622
     34 H           3.9612   -1.0171   -2.7104 H       1  UNL1        0.0639
     35 H           5.4484   -1.2205   -1.4553 H       1  UNL1        0.0624
     36 H           7.2459   -1.4473    0.2042 H       1  UNL1        0.0618
     37 H           6.8562   -1.0019    2.6048 H       1  UNL1        0.0621
     38 H           5.1946   -0.9264    4.3657 H       1  UNL1        0.0607
     39 H           3.4966   -0.3759    3.9097 H       1  UNL1        0.0607
     40 H           5.0559    1.5901    3.1266 H       1  UNL1        0.2098
     41 H           2.8107   -0.0912    1.6577 H       1  UNL1        0.0628
     42 H          -2.1145   -0.4647   -1.9223 H       1  UNL1        0.1552
     43 H          -3.8486    3.4355   -1.8612 H       1  UNL1        0.0278
     44 H          -2.1811    3.0320   -1.3579 H       1  UNL1        0.0278
     45 H          -3.0471    2.0697   -2.6590 H       1  UNL1        0.0278
     46 H          -5.3756    3.0310   -0.1471 H       1  UNL1        0.0621
     47 H          -6.3136    1.5769    1.5410 H       1  UNL1        0.0626
     48 H          -6.8859   -0.9951    3.7286 H       1  UNL1        0.2954
     49 H          -3.7386   -2.4348    0.6428 H       1  UNL1        0.0278
     50 H          -2.1662   -1.7952    0.1644 H       1  UNL1        0.0278
     51 H          -2.6725   -1.6692    1.9250 H       1  UNL1        0.0278
@<TRIPOS>BOND
     1     1     2    1
     2     2     3   ar
     3     3     4   ar
     4     4     5   ar
     5     5     6    1
     6     6     7   ar
     7     7     8   ar
     8     8     9   ar
     9     9    10   ar
    10    10    11    1
    11    11    12    1
    12    10    13   ar
    13     5    14   ar
    14    14    15   ar
    15    15    16    1
    16    16    17    2
    17    16    18   am
    18    18    19    1
    19    19    20   ar
    20    20    21    1
    21    20    22   ar
    22    22    23   ar
    23    23    24   ar
    24    24    25    1
    25    25    26    2
    26    25    27    1
    27    24    28   ar
    28    28    29    1
    29    15     2   ar
    30    28    19   ar
    31    13     6   ar
    32     1    30    1
    33     1    31    1
    34     1    32    1
    35     3    33    1
    36     4    34    1
    37     7    35    1
    38     8    36    1
    39     9    37    1
    40    11    38    1
    41    11    39    1
    42    12    40    1
    43    13    41    1
    44    18    42    1
    45    21    43    1
    46    21    44    1
    47    21    45    1
    48    22    46    1
    49    23    47    1
    50    27    48    1
    51    29    49    1
    52    29    50    1
    53    29    51    1
