
     RDKit          3D

 51 53  0  0  0  0  0  0  0  0999 V2000
   -0.3787    0.0589   -3.5705 C   0  0  0  0  0  0  0  0  0  0  0  0
    0.7095   -0.1566   -2.6016 C   0  0  0  0  0  0  0  0  0  0  0  0
    1.9366   -0.5560   -3.1634 C   0  0  0  0  0  0  0  0  0  0  0  0
    2.9950   -0.7046   -2.2824 C   0  0  0  0  0  0  0  0  0  0  0  0
    2.8723   -0.4796   -0.9365 C   0  0  0  0  0  0  0  0  0  0  0  0
    3.9817   -0.6340   -0.0128 C   0  0  0  0  0  0  0  0  0  0  0  0
    5.2319   -1.0143   -0.4086 C   0  0  0  0  0  0  0  0  0  0  0  0
    6.2629   -1.1452    0.5375 C   0  0  0  0  0  0  0  0  0  0  0  0
    6.0642   -0.9017    1.8753 C   0  0  0  0  0  0  0  0  0  0  0  0
    4.8021   -0.5171    2.2799 C   0  0  0  0  0  0  0  0  0  0  0  0
    4.6015   -0.2569    3.7308 C   0  0  0  0  0  0  0  0  0  0  0  0
    4.8755    1.0935    3.9557 O   0  0  0  0  0  0  0  0  0  0  0  0
    3.7973   -0.3899    1.3550 C   0  0  0  0  0  0  0  0  0  0  0  0
    1.6798   -0.1034   -0.4652 N   0  0  0  0  0  0  0  0  0  0  0  0
    0.5674    0.0675   -1.2791 C   0  0  0  0  0  0  0  0  0  0  0  0
   -0.6740    0.4076   -0.6322 C   0  0  0  0  0  0  0  0  0  0  0  0
   -0.6458    1.0664    0.4860 O   0  0  0  0  0  0  0  0  0  0  0  0
   -1.9638    0.1015   -1.0667 N   0  0  0  0  0  0  0  0  0  0  0  0
   -3.1365    0.4940   -0.3603 C   0  0  0  0  0  0  0  0  0  0  0  0
   -3.7283    1.6916   -0.6387 C   0  0  0  0  0  0  0  0  0  0  0  0
   -3.1581    2.5728   -1.6632 C   0  0  0  0  0  0  0  0  0  0  0  0
   -4.8873    2.0985    0.0473 C   0  0  0  0  0  0  0  0  0  0  0  0
   -5.4218    1.2569    1.0175 C   0  0  0  0  0  0  0  0  0  0  0  0
   -4.8128    0.0577    1.2829 C   0  0  0  0  0  0  0  0  0  0  0  0
   -5.3672   -0.8154    2.2898 C   0  0  0  0  0  0  0  0  0  0  0  0
   -4.8850   -1.9333    2.6075 O   0  0  0  0  0  0  0  0  0  0  0  0
   -6.5103   -0.4359    2.9801 O   0  0  0  0  0  0  0  0  0  0  0  0
   -3.6766   -0.3205    0.5972 C   0  0  0  0  0  0  0  0  0  0  0  0
   -3.0053   -1.6384    0.8868 C   0  0  0  0  0  0  0  0  0  0  0  0
    0.1133    0.3781   -4.5442 H   0  0  0  0  0  0  0  0  0  0  0  0
   -1.0376    0.9256   -3.3136 H   0  0  0  0  0  0  0  0  0  0  0  0
   -0.9508   -0.8337   -3.8281 H   0  0  0  0  0  0  0  0  0  0  0  0
    2.0232   -0.7298   -4.2170 H   0  0  0  0  0  0  0  0  0  0  0  0
    3.9612   -1.0171   -2.7104 H   0  0  0  0  0  0  0  0  0  0  0  0
    5.4484   -1.2205   -1.4553 H   0  0  0  0  0  0  0  0  0  0  0  0
    7.2459   -1.4473    0.2042 H   0  0  0  0  0  0  0  0  0  0  0  0
    6.8562   -1.0019    2.6048 H   0  0  0  0  0  0  0  0  0  0  0  0
    5.1946   -0.9264    4.3657 H   0  0  0  0  0  0  0  0  0  0  0  0
    3.4966   -0.3759    3.9097 H   0  0  0  0  0  0  0  0  0  0  0  0
    5.0559    1.5901    3.1266 H   0  0  0  0  0  0  0  0  0  0  0  0
    2.8107   -0.0912    1.6577 H   0  0  0  0  0  0  0  0  0  0  0  0
   -2.1145   -0.4647   -1.9223 H   0  0  0  0  0  0  0  0  0  0  0  0
   -3.8486    3.4355   -1.8612 H   0  0  0  0  0  0  0  0  0  0  0  0
   -2.1811    3.0320   -1.3579 H   0  0  0  0  0  0  0  0  0  0  0  0
   -3.0471    2.0697   -2.6590 H   0  0  0  0  0  0  0  0  0  0  0  0
   -5.3756    3.0310   -0.1471 H   0  0  0  0  0  0  0  0  0  0  0  0
   -6.3136    1.5769    1.5410 H   0  0  0  0  0  0  0  0  0  0  0  0
   -6.8859   -0.9951    3.7286 H   0  0  0  0  0  0  0  0  0  0  0  0
   -3.7386   -2.4348    0.6428 H   0  0  0  0  0  0  0  0  0  0  0  0
   -2.1662   -1.7952    0.1644 H   0  0  0  0  0  0  0  0  0  0  0  0
   -2.6725   -1.6692    1.9250 H   0  0  0  0  0  0  0  0  0  0  0  0
  1  2  1  0
  2  3  2  0
  3  4  1  0
  4  5  2  0
  5  6  1  0
  6  7  2  0
  7  8  1  0
  8  9  2  0
  9 10  1  0
 10 11  1  0
 11 12  1  0
 10 13  2  0
  5 14  1  0
 14 15  2  0
 15 16  1  0
 16 17  2  0
 16 18  1  0
 18 19  1  0
 19 20  2  0
 20 21  1  0
 20 22  1  0
 22 23  2  0
 23 24  1  0
 24 25  1  0
 25 26  2  0
 25 27  1  0
 24 28  2  0
 28 29  1  0
 15  2  1  0
 28 19  1  0
 13  6  1  0
  1 30  1  0
  1 31  1  0
  1 32  1  0
  3 33  1  0
  4 34  1  0
  7 35  1  0
  8 36  1  0
  9 37  1  0
 11 38  1  0
 11 39  1  0
 12 40  1  0
 13 41  1  0
 18 42  1  0
 21 43  1  0
 21 44  1  0
 21 45  1  0
 22 46  1  0
 23 47  1  0
 27 48  1  0
 29 49  1  0
 29 50  1  0
 29 51  1  0
M  END
$$$$
