@<TRIPOS>MOLECULE
*****
 79 81 0 0 0
SMALL
GASTEIGER

@<TRIPOS>ATOM
      1 C          -4.9487   -1.5753   -1.0073 C.3     1  UNL1       -0.0153
      2 N          -5.0273   -0.1158   -1.0135 N.3     1  UNL1       -0.3099
      3 C          -3.8390    0.4812   -1.6475 C.3     1  UNL1        0.0876
      4 C          -4.1587    1.9693   -1.6178 C.3     1  UNL1        0.1035
      5 O          -3.0130    2.7332   -1.8116 O.3     1  UNL1       -0.3874
      6 C          -4.5795    2.2175   -0.1671 C.3     1  UNL1        0.1109
      7 O          -5.8395    1.6796   -0.0052 O.3     1  UNL1       -0.3865
      8 C          -3.6338    1.4662    0.7514 C.3     1  UNL1        0.1129
      9 C          -3.3188    2.3754    1.9135 C.3     1  UNL1        0.0730
     10 O          -4.4103    2.7301    2.6726 O.3     1  UNL1       -0.3924
     11 O          -2.4376    1.2050    0.0928 O.3     1  UNL1       -0.3415
     12 C          -2.5854    0.2647   -0.9084 C.3     1  UNL1        0.1780
     13 O          -2.2520   -1.0066   -0.5016 O.3     1  UNL1       -0.3380
     14 C          -1.0739   -1.5159   -0.9406 C.3     1  UNL1        0.1499
     15 C          -0.1783   -1.5607    0.3244 C.3     1  UNL1        0.1895
     16 O           1.1446   -1.5917    0.0984 O.3     1  UNL1       -0.3392
     17 C           1.9145   -0.5450    0.4571 C.3     1  UNL1        0.1258
     18 C           2.8581   -1.0248    1.5410 C.3     1  UNL1        0.1138
     19 O           2.9134   -0.1639    2.6315 O.3     1  UNL1       -0.3864
     20 C           4.2409   -1.3592    1.0182 C.3     1  UNL1        0.1193
     21 O           4.1145   -2.2999   -0.0016 O.3     1  UNL1       -0.3856
     22 C           4.9802   -0.1692    0.4721 C.3     1  UNL1        0.1329
     23 N           5.7753    0.4868    1.5042 N.pl3   1  UNL1       -0.2682
     24 C           6.5787    1.6457    1.2944 C.cat   1  UNL1        0.3766
     25 N           6.7457    2.5435    2.3784 N.pl3   1  UNL1       -0.2893
     26 N           7.0806    1.7465    0.0979 N.pl3   1  UNL1       -0.1298
     27 C           3.9647    0.8090   -0.0462 C.3     1  UNL1        0.1266
     28 O           4.5485    1.4713   -1.1499 O.3     1  UNL1       -0.3847
     29 C           2.7489    0.1041   -0.6104 C.3     1  UNL1        0.1333
     30 N           2.0227    1.1039   -1.3821 N.pl3   1  UNL1       -0.2682
     31 C           1.4185    2.2644   -0.8340 C.cat   1  UNL1        0.3766
     32 N           0.6510    3.1680   -1.6304 N.pl3   1  UNL1       -0.2893
     33 N           1.5691    2.5094    0.4248 N.pl3   1  UNL1       -0.1298
     34 O          -0.7627   -2.5581    1.0423 O.3     1  UNL1       -0.3423
     35 C          -0.9269   -3.6124    0.1503 C.3     1  UNL1        0.0969
     36 C          -2.0980   -4.4752    0.4768 C.3     1  UNL1       -0.0354
     37 C          -1.0550   -3.0004   -1.2227 C.3     1  UNL1        0.1770
     38 O          -2.1695   -3.3900   -1.9218 O.3     1  UNL1       -0.3763
     39 C           0.1668   -3.4098   -1.9668 C.2     1  UNL1        0.1570
     40 O          -0.7636   -3.8077   -2.6734 O.2     1  UNL1       -0.2978
     41 H          -5.9727   -2.0223   -0.9900 H       1  UNL1        0.0388
     42 H          -4.3543   -1.9304   -0.1506 H       1  UNL1        0.0388
     43 H          -4.4128   -1.8406   -1.9371 H       1  UNL1        0.0388
     44 H          -5.8768    0.0514   -1.6387 H       1  UNL1        0.1221
     45 H          -3.7909    0.1562   -2.7206 H       1  UNL1        0.0537
     46 H          -4.9529    2.1620   -2.3403 H       1  UNL1        0.0637
     47 H          -3.1709    3.5800   -2.3015 H       1  UNL1        0.2100
     48 H          -4.6088    3.2754    0.1094 H       1  UNL1        0.0646
     49 H          -6.4811    2.3396    0.3733 H       1  UNL1        0.2100
     50 H          -4.0427    0.5323    1.1556 H       1  UNL1        0.0647
     51 H          -2.8108    3.2961    1.5588 H       1  UNL1        0.0584
     52 H          -2.5903    1.8972    2.6209 H       1  UNL1        0.0584
     53 H          -5.0770    2.0242    2.7822 H       1  UNL1        0.2095
     54 H          -1.6734    0.5024   -1.5690 H       1  UNL1        0.0927
     55 H          -0.4786   -0.8988   -1.6304 H       1  UNL1        0.0682
     56 H          -0.3910   -0.5912    0.8276 H       1  UNL1        0.0938
     57 H           1.2280    0.2175    0.9259 H       1  UNL1        0.0659
     58 H           2.4857   -1.9994    1.9775 H       1  UNL1        0.0647
     59 H           3.3819   -0.6703    3.3415 H       1  UNL1        0.2100
     60 H           4.7890   -1.8477    1.8556 H       1  UNL1        0.0656
     61 H           3.7735   -3.1764    0.3353 H       1  UNL1        0.2100
     62 H           5.6988   -0.4734   -0.3143 H       1  UNL1        0.0746
     63 H           5.7365    0.0504    2.4772 H       1  UNL1        0.2583
     64 H           6.3363    3.3997    2.8416 H       1  UNL1        0.2546
     65 H           7.4550    2.5905    3.1409 H       1  UNL1        0.2546
     66 H           7.6860    2.5613   -0.1592 H       1  UNL1        0.3062
     67 H           3.7379    1.5975    0.6828 H       1  UNL1        0.0665
     68 H           3.8539    1.7562   -1.8103 H       1  UNL1        0.2101
     69 H           3.1657   -0.6409   -1.3234 H       1  UNL1        0.0746
     70 H           1.9102    0.9996   -2.4331 H       1  UNL1        0.2583
     71 H           1.1400    4.0955   -1.5806 H       1  UNL1        0.2546
     72 H          -0.1842    3.3190   -2.2412 H       1  UNL1        0.2546
     73 H           1.1531    3.3442    0.8949 H       1  UNL1        0.3062
     74 H          -0.0082   -4.2443    0.2646 H       1  UNL1        0.0628
     75 H          -2.2950   -5.2091   -0.3135 H       1  UNL1        0.0256
     76 H          -1.9711   -4.9759    1.4762 H       1  UNL1        0.0256
     77 H          -3.0049   -3.8483    0.6027 H       1  UNL1        0.0256
     78 H          -2.9415   -3.6353   -1.3933 H       1  UNL1        0.2109
     79 H           1.1932   -3.5370   -2.2035 H       1  UNL1        0.1059
@<TRIPOS>BOND
     1     1     2    1
     2     2     3    1
     3     3     4    1
     4     4     5    1
     5     4     6    1
     6     6     7    1
     7     6     8    1
     8     8     9    1
     9     9    10    1
    10     8    11    1
    11    11    12    1
    12    12    13    1
    13    13    14    1
    14    14    15    1
    15    15    16    1
    16    16    17    1
    17    17    18    1
    18    18    19    1
    19    18    20    1
    20    20    21    1
    21    20    22    1
    22    22    23    1
    23    23    24    1
    24    24    25    1
    25    24    26    2
    26    22    27    1
    27    27    28    1
    28    27    29    1
    29    29    30    1
    30    30    31    1
    31    31    32    1
    32    31    33    2
    33    15    34    1
    34    34    35    1
    35    35    36    1
    36    35    37    1
    37    37    38    1
    38    37    39    1
    39    39    40    2
    40    12     3    1
    41    37    14    1
    42    29    17    1
    43     1    41    1
    44     1    42    1
    45     1    43    1
    46     2    44    1
    47     3    45    1
    48     4    46    1
    49     5    47    1
    50     6    48    1
    51     7    49    1
    52     8    50    1
    53     9    51    1
    54     9    52    1
    55    10    53    1
    56    12    54    1
    57    14    55    1
    58    15    56    1
    59    17    57    1
    60    18    58    1
    61    19    59    1
    62    20    60    1
    63    21    61    1
    64    22    62    1
    65    23    63    1
    66    25    64    1
    67    25    65    1
    68    26    66    1
    69    27    67    1
    70    28    68    1
    71    29    69    1
    72    30    70    1
    73    32    71    1
    74    32    72    1
    75    33    73    1
    76    35    74    1
    77    36    75    1
    78    36    76    1
    79    36    77    1
    80    38    78    1
    81    39    79    1
