@<TRIPOS>MOLECULE
*****
 59 64 0 0 0
SMALL
GASTEIGER

@<TRIPOS>ATOM
      1 C          -8.6872    1.8847    1.4951 C.ar    1  UNL1       -0.0597
      2 C          -7.7762    0.8964    1.8155 C.ar    1  UNL1       -0.0611
      3 C          -7.0114    0.2552    0.8543 C.ar    1  UNL1       -0.0520
      4 C          -7.1817    0.6299   -0.4442 C.ar    1  UNL1        0.0082
      5 C          -6.4430    0.0224   -1.4432 C.ar    1  UNL1       -0.0022
      6 C          -5.4711   -1.0246   -1.1377 C.ar    1  UNL1        0.0467
      7 C          -5.6399   -2.3919   -1.0732 C.ar    1  UNL1        0.0597
      8 N          -4.4535   -2.9360   -0.7562 N.ar    1  UNL1       -0.1727
      9 N          -3.5143   -2.0137   -0.6080 N.ar    1  UNL1       -0.2206
     10 C          -2.1891   -2.0846   -0.2938 C.ar    1  UNL1        0.0406
     11 C          -1.4284   -0.9433   -0.2026 C.ar    1  UNL1        0.0199
     12 C           0.0091   -0.9874    0.1386 C.ar    1  UNL1        0.0034
     13 C           0.8182   -2.0393   -0.2231 C.ar    1  UNL1       -0.0475
     14 C           2.1457   -1.9787    0.1473 C.ar    1  UNL1        0.0006
     15 C           2.6800   -0.9132    0.8581 C.ar    1  UNL1        0.2147
     16 O           4.0243   -0.8960    1.2092 O.3     1  UNL1       -0.4751
     17 C           4.5271    0.2100    1.9341 C.3     1  UNL1        0.1039
     18 C           6.0037   -0.0381    2.1737 C.3     1  UNL1        0.0333
     19 N           6.7214   -0.1692    0.9100 N.3     1  UNL1       -0.2967
     20 C           8.1129   -0.3944    1.2441 C.3     1  UNL1        0.0116
     21 C           9.0518   -0.1475    0.1100 C.3     1  UNL1        0.0087
     22 N           8.8802    1.2274   -0.3449 N.3     1  UNL1       -0.3136
     23 C           7.5326    1.2830   -0.9156 C.3     1  UNL1        0.0087
     24 C           6.5156    1.0401    0.1723 C.3     1  UNL1        0.0116
     25 N           1.8669    0.1141    1.2056 N.ar    1  UNL1       -0.2207
     26 C           0.5945    0.0501    0.8474 C.ar    1  UNL1        0.0392
     27 C          -2.0654    0.2552   -0.4417 C.ar    1  UNL1        0.0392
     28 N          -3.3740    0.2798   -0.7485 N.ar    1  UNL1       -0.2350
     29 C          -4.1209   -0.8390   -0.8381 C.ar    1  UNL1        0.1632
     30 C          -6.6754    0.4598   -2.7292 C.ar    1  UNL1       -0.0351
     31 C          -7.5811    1.4417   -3.0439 C.ar    1  UNL1        0.0288
     32 N          -8.2930    2.0226   -2.0513 N.ar    1  UNL1       -0.2549
     33 C          -8.1002    1.6273   -0.7740 C.ar    1  UNL1        0.0715
     34 C          -8.8601    2.2640    0.1831 C.ar    1  UNL1       -0.0357
     35 H          -9.2811    2.3787    2.2664 H       1  UNL1        0.0618
     36 H          -7.6394    0.5955    2.8575 H       1  UNL1        0.0618
     37 H          -6.2934   -0.5233    1.1023 H       1  UNL1        0.0624
     38 H          -6.5841   -2.9206   -1.2525 H       1  UNL1        0.0855
     39 H          -1.7498   -3.0387   -0.1196 H       1  UNL1        0.0837
     40 H           0.4068   -2.8606   -0.7707 H       1  UNL1        0.0626
     41 H           2.8079   -2.7976   -0.1260 H       1  UNL1        0.0671
     42 H           4.3206    1.1625    1.4365 H       1  UNL1        0.0710
     43 H           4.0616    0.2782    2.9508 H       1  UNL1        0.0710
     44 H           6.4148    0.7817    2.7910 H       1  UNL1        0.0460
     45 H           6.0726   -0.9957    2.7288 H       1  UNL1        0.0460
     46 H           8.4232    0.1888    2.1364 H       1  UNL1        0.0439
     47 H           8.2091   -1.4710    1.5537 H       1  UNL1        0.0439
     48 H          10.0744   -0.2562    0.4690 H       1  UNL1        0.0437
     49 H           8.8894   -0.8392   -0.7235 H       1  UNL1        0.0437
     50 H           9.5336    1.4565   -1.1232 H       1  UNL1        0.1220
     51 H           7.3488    2.3280   -1.2821 H       1  UNL1        0.0437
     52 H           7.4027    0.5970   -1.7533 H       1  UNL1        0.0437
     53 H           6.4801    1.9399    0.8518 H       1  UNL1        0.0439
     54 H           5.5251    0.9319   -0.3590 H       1  UNL1        0.0439
     55 H          -0.0862    0.8707    1.1167 H       1  UNL1        0.0837
     56 H          -1.4875    1.1785   -0.3766 H       1  UNL1        0.0837
     57 H          -6.1167    0.0078   -3.5344 H       1  UNL1        0.0639
     58 H          -7.7696    1.7917   -4.0553 H       1  UNL1        0.0830
     59 H          -9.5813    3.0488   -0.0900 H       1  UNL1        0.0639
@<TRIPOS>BOND
     1     1     2   ar
     2     2     3   ar
     3     3     4   ar
     4     4     5   ar
     5     5     6    1
     6     6     7   ar
     7     7     8   ar
     8     8     9   ar
     9     9    10   ar
    10    10    11   ar
    11    11    12    1
    12    12    13   ar
    13    13    14   ar
    14    14    15   ar
    15    15    16    1
    16    16    17    1
    17    17    18    1
    18    18    19    1
    19    19    20    1
    20    20    21    1
    21    21    22    1
    22    22    23    1
    23    23    24    1
    24    15    25   ar
    25    25    26   ar
    26    11    27   ar
    27    27    28   ar
    28    28    29   ar
    29     5    30   ar
    30    30    31   ar
    31    31    32   ar
    32    32    33   ar
    33    33    34   ar
    34    34     1   ar
    35    33     4   ar
    36    29     6   ar
    37    29     9   ar
    38    26    12   ar
    39    24    19    1
    40     1    35    1
    41     2    36    1
    42     3    37    1
    43     7    38    1
    44    10    39    1
    45    13    40    1
    46    14    41    1
    47    17    42    1
    48    17    43    1
    49    18    44    1
    50    18    45    1
    51    20    46    1
    52    20    47    1
    53    21    48    1
    54    21    49    1
    55    22    50    1
    56    23    51    1
    57    23    52    1
    58    24    53    1
    59    24    54    1
    60    26    55    1
    61    27    56    1
    62    30    57    1
    63    31    58    1
    64    34    59    1
