@<TRIPOS>MOLECULE
*****
 23 23 0 0 0
SMALL
GASTEIGER

@<TRIPOS>ATOM
      1 N          -1.5093   -1.5062   -0.6608 N.3     1  PHE1       -0.3181
      2 CA         -1.5566   -0.0773   -0.8139 C.3     1  PHE1        0.1072
      3 CB         -0.7464    0.5813    0.2805 C.3     1  PHE1       -0.0020
      4 CG          0.6755    0.1345    0.2122 C.ar    1  PHE1       -0.0454
      5 CD1         1.2698   -0.9351    0.8277 C.ar    1  PHE1       -0.0585
      6 CE1         2.6115   -1.1832    0.6367 C.ar    1  PHE1       -0.0615
      7 CZ          3.3927   -0.3792   -0.1665 C.ar    1  PHE1       -0.0617
      8 CE2         2.8075    0.7021   -0.7931 C.ar    1  PHE1       -0.0615
      9 CD2         1.4824    0.9400   -0.5992 C.ar    1  PHE1       -0.0585
     10 C          -2.9565    0.4118   -0.6840 C.2     1  PHE1        0.3220
     11 O          -3.0547    1.8071   -0.8269 O.3     1  PHE1       -0.4795
     12 OXT        -4.0754   -0.1438   -0.4746 O.2     1  PHE1       -0.2492
     13 H1         -1.8155   -1.9736   -1.5506 H       1  PHE1        0.1190
     14 H2         -2.0875   -1.8509    0.1351 H       1  PHE1        0.1190
     15 HA         -1.1775    0.2176   -1.7948 H       1  PHE1        0.0577
     16 HB1        -1.1643    0.2533    1.2527 H       1  PHE1        0.0334
     17 HB2        -0.8107    1.6766    0.2390 H       1  PHE1        0.0334
     18 HD1         0.5843   -1.5141    1.4402 H       1  PHE1        0.0620
     19 HE1         3.0257   -2.0275    1.1377 H       1  PHE1        0.0618
     20 HZ          4.4432   -0.5756   -0.3145 H       1  PHE1        0.0618
     21 HE2         3.4439    1.3133   -1.4154 H       1  PHE1        0.0618
     22 HD2         1.1016    1.8095   -1.1279 H       1  PHE1        0.0620
     23 H          -3.8839    2.3194   -0.5541 H       1  PHE1        0.2951
@<TRIPOS>BOND
     1     1     2    1
     2     2     3    1
     3     3     4    1
     4     4     5   ar
     5     5     6   ar
     6     6     7   ar
     7     7     8   ar
     8     8     9   ar
     9     2    10    1
    10    10    11    1
    11    10    12    2
    12     9     4   ar
    13     1    13    1
    14     1    14    1
    15     2    15    1
    16     3    16    1
    17     3    17    1
    18     5    18    1
    19     6    19    1
    20     7    20    1
    21     8    21    1
    22     9    22    1
    23    11    23    1
