
     RDKit          3D

 23 23  0  0  0  0  0  0  0  0999 V2000
   -1.5093   -1.5062   -0.6608 N   0  0  0  0  0  0  0  0  0  0  0  0
   -1.5566   -0.0773   -0.8139 C   0  0  2  0  0  0  0  0  0  0  0  0
   -0.7464    0.5813    0.2805 C   0  0  0  0  0  0  0  0  0  0  0  0
    0.6755    0.1345    0.2122 C   0  0  0  0  0  0  0  0  0  0  0  0
    1.2698   -0.9351    0.8277 C   0  0  0  0  0  0  0  0  0  0  0  0
    2.6115   -1.1832    0.6367 C   0  0  0  0  0  0  0  0  0  0  0  0
    3.3927   -0.3792   -0.1665 C   0  0  0  0  0  0  0  0  0  0  0  0
    2.8075    0.7021   -0.7931 C   0  0  0  0  0  0  0  0  0  0  0  0
    1.4824    0.9400   -0.5992 C   0  0  0  0  0  0  0  0  0  0  0  0
   -2.9565    0.4118   -0.6840 C   0  0  0  0  0  0  0  0  0  0  0  0
   -3.0547    1.8071   -0.8269 O   0  0  0  0  0  0  0  0  0  0  0  0
   -4.0754   -0.1438   -0.4746 O   0  0  0  0  0  0  0  0  0  0  0  0
   -1.8155   -1.9736   -1.5506 H   0  0  0  0  0  0  0  0  0  0  0  0
   -2.0875   -1.8509    0.1351 H   0  0  0  0  0  0  0  0  0  0  0  0
   -1.1775    0.2176   -1.7948 H   0  0  0  0  0  0  0  0  0  0  0  0
   -1.1643    0.2533    1.2527 H   0  0  0  0  0  0  0  0  0  0  0  0
   -0.8107    1.6766    0.2390 H   0  0  0  0  0  0  0  0  0  0  0  0
    0.5843   -1.5141    1.4402 H   0  0  0  0  0  0  0  0  0  0  0  0
    3.0257   -2.0275    1.1377 H   0  0  0  0  0  0  0  0  0  0  0  0
    4.4432   -0.5756   -0.3145 H   0  0  0  0  0  0  0  0  0  0  0  0
    3.4439    1.3133   -1.4154 H   0  0  0  0  0  0  0  0  0  0  0  0
    1.1016    1.8095   -1.1279 H   0  0  0  0  0  0  0  0  0  0  0  0
   -3.8839    2.3194   -0.5541 H   0  0  0  0  0  0  0  0  0  0  0  0
  1  2  1  0
  2  3  1  0
  3  4  1  0
  4  5  2  0
  5  6  1  0
  6  7  2  0
  7  8  1  0
  8  9  2  0
  2 10  1  0
 10 11  1  0
 10 12  2  0
  9  4  1  0
  1 13  1  0
  1 14  1  0
  2 15  1  6
  3 16  1  0
  3 17  1  0
  5 18  1  0
  6 19  1  0
  7 20  1  0
  8 21  1  0
  9 22  1  0
 11 23  1  0
M  END
$$$$
