@<TRIPOS>MOLECULE
*****
 44 45 0 0 0
SMALL
GASTEIGER

@<TRIPOS>ATOM
      1 C           4.7278    2.4968   -0.2223 C.3     1  UNL1        0.0124
      2 C           4.2566    1.4965   -1.2094 C.2     1  UNL1        0.2125
      3 O           4.2604    1.8216   -2.4220 O.2     1  UNL1       -0.2759
      4 N           3.8179    0.2129   -0.7711 N.am    1  UNL1       -0.3017
      5 C           3.8233   -0.1380    0.6362 C.3     1  UNL1        0.0152
      6 C           2.4498   -0.6659    1.0965 C.3     1  UNL1       -0.0302
      7 C           1.5686   -0.6589   -0.1205 C.3     1  UNL1       -0.0125
      8 C           0.1425   -0.5849    0.0118 C.ar    1  UNL1       -0.0325
      9 C          -0.5340    0.6149   -0.2763 C.ar    1  UNL1       -0.0570
     10 C          -1.8901    0.7939   -0.1880 C.ar    1  UNL1       -0.0479
     11 C          -2.6635   -0.2319    0.1997 C.ar    1  UNL1        0.0536
     12 C          -4.1351   -0.1033    0.3149 C.2     1  UNL1        0.3066
     13 O          -4.8055   -1.1140    0.6875 O.2     1  UNL1       -0.2516
     14 N          -4.8355    1.0800    0.0339 N.am    1  UNL1       -0.1709
     15 C          -6.2406    1.2622    0.1262 C.2     1  UNL1        0.3751
     16 N          -6.9894    0.3278    0.4840 N.pl3   1  UNL1       -0.1313
     17 N          -6.8007    2.5747   -0.2081 N.pl3   1  UNL1       -0.2906
     18 C          -2.0564   -1.4322    0.4954 C.ar    1  UNL1       -0.0363
     19 C          -0.6615   -1.6273    0.4079 C.ar    1  UNL1        0.0590
     20 C          -0.0942   -2.9248    0.7478 C.3     1  UNL1        0.4177
     21 F           0.5769   -3.6099   -0.1982 F       1  UNL1       -0.1659
     22 F          -1.1996   -3.8010    0.9633 F       1  UNL1       -0.1659
     23 F           0.4674   -2.9713    2.0147 F       1  UNL1       -0.1659
     24 C           2.1885   -1.5299   -1.1721 C.3     1  UNL1       -0.0302
     25 C           3.3638   -0.7301   -1.8086 C.3     1  UNL1        0.0152
     26 H           5.5146    2.0532    0.4560 H       1  UNL1        0.0323
     27 H           3.9040    2.8461    0.4454 H       1  UNL1        0.0323
     28 H           5.1557    3.3761   -0.7039 H       1  UNL1        0.0323
     29 H           4.1208    0.7647    1.2025 H       1  UNL1        0.0465
     30 H           4.6338   -0.8631    0.7691 H       1  UNL1        0.0465
     31 H           2.1071    0.0439    1.8698 H       1  UNL1        0.0286
     32 H           2.6947   -1.6669    1.4901 H       1  UNL1        0.0286
     33 H           1.8546    0.3976   -0.5273 H       1  UNL1        0.0350
     34 H           0.0359    1.4764   -0.5931 H       1  UNL1        0.0621
     35 H          -2.3491    1.7660   -0.4307 H       1  UNL1        0.0626
     36 H          -4.2819    1.9267   -0.2773 H       1  UNL1        0.2545
     37 H          -6.8375   -0.5985    0.7453 H       1  UNL1        0.3060
     38 H          -6.2636    3.2638   -0.7732 H       1  UNL1        0.2545
     39 H          -7.7398    2.7902    0.1341 H       1  UNL1        0.2545
     40 H          -2.6797   -2.2636    0.8098 H       1  UNL1        0.0631
     41 H           2.7729   -2.3955   -0.7316 H       1  UNL1        0.0286
     42 H           1.5195   -1.8811   -1.9564 H       1  UNL1        0.0286
     43 H           4.1728   -1.3747   -2.1369 H       1  UNL1        0.0465
     44 H           2.9279   -0.2189   -2.6640 H       1  UNL1        0.0465
@<TRIPOS>BOND
     1     1     2    1
     2     2     3    2
     3     2     4   am
     4     4     5    1
     5     5     6    1
     6     6     7    1
     7     7     8    1
     8     8     9   ar
     9     9    10   ar
    10    10    11   ar
    11    11    12    1
    12    12    13    2
    13    12    14   am
    14    14    15    1
    15    15    16    2
    16    15    17    1
    17    11    18   ar
    18    18    19   ar
    19    19    20    1
    20    20    21    1
    21    20    22    1
    22    20    23    1
    23     7    24    1
    24    24    25    1
    25    25     4    1
    26    19     8   ar
    27     1    26    1
    28     1    27    1
    29     1    28    1
    30     5    29    1
    31     5    30    1
    32     6    31    1
    33     6    32    1
    34     7    33    1
    35     9    34    1
    36    10    35    1
    37    14    36    1
    38    16    37    1
    39    17    38    1
    40    17    39    1
    41    18    40    1
    42    24    41    1
    43    24    42    1
    44    25    43    1
    45    25    44    1
