@<TRIPOS>MOLECULE
*****
 63 66 0 0 0
SMALL
GASTEIGER

@<TRIPOS>ATOM
      1 C         -10.3374    1.5383   -0.1461 C.3     1  UNL1       -0.0014
      2 C          -9.1862    2.0847    0.5994 C.2     1  UNL1        0.1601
      3 O          -9.3528    2.9037    1.5217 O.2     1  UNL1       -0.2924
      4 C          -7.8474    1.6546    0.2443 C.ar    1  UNL1        0.0172
      5 C          -7.6193    0.7456   -0.7697 C.ar    1  UNL1       -0.0495
      6 C          -6.3299    0.3278   -1.1175 C.ar    1  UNL1       -0.0400
      7 C          -5.2337    0.8097   -0.4582 C.ar    1  UNL1        0.0298
      8 N          -3.8815    0.4284   -0.7564 N.pl3   1  UNL1       -0.3269
      9 C          -2.7807    1.0158   -0.0021 C.3     1  UNL1        0.0280
     10 C          -1.4876    0.4680   -0.5031 C.3     1  UNL1        0.0305
     11 N          -1.5274   -0.9662   -0.5957 N.am    1  UNL1       -0.2974
     12 C          -0.4308   -1.7397   -0.1921 C.2     1  UNL1        0.2297
     13 O          -0.4282   -2.9831   -0.2571 O.2     1  UNL1       -0.2742
     14 C           0.7814   -1.0676    0.3352 C.3     1  UNL1        0.0759
     15 N           1.8193   -2.0102    0.7039 N.3     1  UNL1       -0.2933
     16 C           2.3783   -2.6771   -0.4589 C.3     1  UNL1        0.0001
     17 C           3.8339   -2.8825   -0.1783 C.3     1  UNL1       -0.0279
     18 C           4.0816   -2.1895    1.1135 C.3     1  UNL1        0.0497
     19 C           5.3649   -1.4309    1.1252 C.2     1  UNL1        0.2216
     20 O           6.2870   -1.6762    1.9447 O.2     1  UNL1       -0.2751
     21 N           5.6131   -0.3725    0.1926 N.am    1  UNL1       -0.2852
     22 C           6.8391    0.3455    0.2121 C.ar    1  UNL1        0.0350
     23 C           6.9537    1.4815    0.9926 C.ar    1  UNL1       -0.0369
     24 C           8.0977    2.2406    1.0735 C.ar    1  UNL1       -0.0170
     25 C           9.2006    1.8541    0.3370 C.ar    1  UNL1        0.1352
     26 O          10.3511    2.6021    0.4073 O.3     1  UNL1       -0.5053
     27 C           9.1269    0.7289   -0.4524 C.ar    1  UNL1        0.0840
     28 CL         10.5267    0.2442   -1.3839 Cl      1  UNL1       -0.0797
     29 C           7.9586   -0.0245   -0.5194 C.ar    1  UNL1       -0.0186
     30 C           2.8988   -1.3097    1.3262 C.3     1  UNL1        0.0105
     31 C          -2.7099   -1.6066   -1.1105 C.3     1  UNL1        0.0305
     32 C          -3.5656   -0.5254   -1.7854 C.3     1  UNL1        0.0280
     33 C          -5.4628    1.7291    0.5678 C.ar    1  UNL1       -0.0400
     34 C          -6.7338    2.1393    0.9084 C.ar    1  UNL1       -0.0495
     35 H         -10.2241    1.8424   -1.2154 H       1  UNL1        0.0309
     36 H         -10.2229    0.4143   -0.1683 H       1  UNL1        0.0309
     37 H         -11.3162    1.8200    0.2832 H       1  UNL1        0.0309
     38 H          -8.4943    0.3578   -1.3002 H       1  UNL1        0.0625
     39 H          -6.2363   -0.3800   -1.9160 H       1  UNL1        0.0636
     40 H          -2.7897    2.1294   -0.0921 H       1  UNL1        0.0479
     41 H          -2.9710    0.7600    1.0567 H       1  UNL1        0.0479
     42 H          -1.3035    0.9214   -1.5222 H       1  UNL1        0.0480
     43 H          -0.6650    0.7579    0.1937 H       1  UNL1        0.0480
     44 H           0.4749   -0.5687    1.2919 H       1  UNL1        0.0522
     45 H           1.1869   -0.3166   -0.3575 H       1  UNL1        0.0522
     46 H           1.8791   -3.6601   -0.5811 H       1  UNL1        0.0427
     47 H           2.2068   -2.0955   -1.3919 H       1  UNL1        0.0427
     48 H           4.4373   -2.4681   -1.0131 H       1  UNL1        0.0285
     49 H           4.0620   -3.9749   -0.0294 H       1  UNL1        0.0285
     50 H           4.1334   -2.9060    1.9582 H       1  UNL1        0.0407
     51 H           4.8927   -0.1206   -0.5095 H       1  UNL1        0.1548
     52 H           6.0797    1.7876    1.5763 H       1  UNL1        0.0637
     53 H           8.1926    3.1299    1.6824 H       1  UNL1        0.0655
     54 H          10.4448    3.4569    0.9372 H       1  UNL1        0.2922
     55 H           7.8784   -0.9034   -1.1274 H       1  UNL1        0.0652
     56 H           3.0394   -0.3484    0.7647 H       1  UNL1        0.0434
     57 H           2.6977   -1.1151    2.4015 H       1  UNL1        0.0434
     58 H          -3.3480   -1.9628   -0.2485 H       1  UNL1        0.0480
     59 H          -2.4986   -2.4412   -1.8111 H       1  UNL1        0.0480
     60 H          -2.8460   -0.0004   -2.4767 H       1  UNL1        0.0479
     61 H          -4.4063   -0.9560   -2.3181 H       1  UNL1        0.0479
     62 H          -4.5855    2.1087    1.0884 H       1  UNL1        0.0636
     63 H          -6.8960    2.8516    1.7043 H       1  UNL1        0.0625
@<TRIPOS>BOND
     1     1     2    1
     2     2     3    2
     3     2     4    1
     4     4     5   ar
     5     5     6   ar
     6     6     7   ar
     7     7     8    1
     8     8     9    1
     9     9    10    1
    10    10    11    1
    11    11    12   am
    12    12    13    2
    13    12    14    1
    14    14    15    1
    15    15    16    1
    16    16    17    1
    17    17    18    1
    18    18    19    1
    19    19    20    2
    20    19    21   am
    21    21    22    1
    22    22    23   ar
    23    23    24   ar
    24    24    25   ar
    25    25    26    1
    26    25    27   ar
    27    27    28    1
    28    27    29   ar
    29    18    30    1
    30    11    31    1
    31    31    32    1
    32     7    33   ar
    33    33    34   ar
    34    34     4   ar
    35    32     8    1
    36    30    15    1
    37    29    22   ar
    38     1    35    1
    39     1    36    1
    40     1    37    1
    41     5    38    1
    42     6    39    1
    43     9    40    1
    44     9    41    1
    45    10    42    1
    46    10    43    1
    47    14    44    1
    48    14    45    1
    49    16    46    1
    50    16    47    1
    51    17    48    1
    52    17    49    1
    53    18    50    1
    54    21    51    1
    55    23    52    1
    56    24    53    1
    57    26    54    1
    58    29    55    1
    59    30    56    1
    60    30    57    1
    61    31    58    1
    62    31    59    1
    63    32    60    1
    64    32    61    1
    65    33    62    1
    66    34    63    1
