
     RDKit          3D

 63 66  0  0  0  0  0  0  0  0999 V2000
  -10.3374    1.5383   -0.1461 C   0  0  0  0  0  0  0  0  0  0  0  0
   -9.1862    2.0847    0.5994 C   0  0  0  0  0  0  0  0  0  0  0  0
   -9.3528    2.9037    1.5217 O   0  0  0  0  0  0  0  0  0  0  0  0
   -7.8474    1.6546    0.2443 C   0  0  0  0  0  0  0  0  0  0  0  0
   -7.6193    0.7456   -0.7697 C   0  0  0  0  0  0  0  0  0  0  0  0
   -6.3299    0.3278   -1.1175 C   0  0  0  0  0  0  0  0  0  0  0  0
   -5.2337    0.8097   -0.4582 C   0  0  0  0  0  0  0  0  0  0  0  0
   -3.8815    0.4284   -0.7564 N   0  0  0  0  0  0  0  0  0  0  0  0
   -2.7807    1.0158   -0.0021 C   0  0  0  0  0  0  0  0  0  0  0  0
   -1.4876    0.4680   -0.5031 C   0  0  0  0  0  0  0  0  0  0  0  0
   -1.5274   -0.9662   -0.5957 N   0  0  0  0  0  0  0  0  0  0  0  0
   -0.4308   -1.7397   -0.1921 C   0  0  0  0  0  0  0  0  0  0  0  0
   -0.4282   -2.9831   -0.2571 O   0  0  0  0  0  0  0  0  0  0  0  0
    0.7814   -1.0676    0.3352 C   0  0  0  0  0  0  0  0  0  0  0  0
    1.8193   -2.0102    0.7039 N   0  0  0  0  0  0  0  0  0  0  0  0
    2.3783   -2.6771   -0.4589 C   0  0  0  0  0  0  0  0  0  0  0  0
    3.8339   -2.8825   -0.1783 C   0  0  0  0  0  0  0  0  0  0  0  0
    4.0816   -2.1895    1.1135 C   0  0  1  0  0  0  0  0  0  0  0  0
    5.3649   -1.4309    1.1252 C   0  0  0  0  0  0  0  0  0  0  0  0
    6.2870   -1.6762    1.9447 O   0  0  0  0  0  0  0  0  0  0  0  0
    5.6131   -0.3725    0.1926 N   0  0  0  0  0  0  0  0  0  0  0  0
    6.8391    0.3455    0.2121 C   0  0  0  0  0  0  0  0  0  0  0  0
    6.9537    1.4815    0.9926 C   0  0  0  0  0  0  0  0  0  0  0  0
    8.0977    2.2406    1.0735 C   0  0  0  0  0  0  0  0  0  0  0  0
    9.2006    1.8541    0.3370 C   0  0  0  0  0  0  0  0  0  0  0  0
   10.3511    2.6021    0.4073 O   0  0  0  0  0  0  0  0  0  0  0  0
    9.1269    0.7289   -0.4524 C   0  0  0  0  0  0  0  0  0  0  0  0
   10.5267    0.2442   -1.3839 Cl  0  0  0  0  0  0  0  0  0  0  0  0
    7.9586   -0.0245   -0.5194 C   0  0  0  0  0  0  0  0  0  0  0  0
    2.8988   -1.3097    1.3262 C   0  0  0  0  0  0  0  0  0  0  0  0
   -2.7099   -1.6066   -1.1105 C   0  0  0  0  0  0  0  0  0  0  0  0
   -3.5656   -0.5254   -1.7854 C   0  0  0  0  0  0  0  0  0  0  0  0
   -5.4628    1.7291    0.5678 C   0  0  0  0  0  0  0  0  0  0  0  0
   -6.7338    2.1393    0.9084 C   0  0  0  0  0  0  0  0  0  0  0  0
  -10.2241    1.8424   -1.2154 H   0  0  0  0  0  0  0  0  0  0  0  0
  -10.2229    0.4143   -0.1683 H   0  0  0  0  0  0  0  0  0  0  0  0
  -11.3162    1.8200    0.2832 H   0  0  0  0  0  0  0  0  0  0  0  0
   -8.4943    0.3578   -1.3002 H   0  0  0  0  0  0  0  0  0  0  0  0
   -6.2363   -0.3800   -1.9160 H   0  0  0  0  0  0  0  0  0  0  0  0
   -2.7897    2.1294   -0.0921 H   0  0  0  0  0  0  0  0  0  0  0  0
   -2.9710    0.7600    1.0567 H   0  0  0  0  0  0  0  0  0  0  0  0
   -1.3035    0.9214   -1.5222 H   0  0  0  0  0  0  0  0  0  0  0  0
   -0.6650    0.7579    0.1937 H   0  0  0  0  0  0  0  0  0  0  0  0
    0.4749   -0.5687    1.2919 H   0  0  0  0  0  0  0  0  0  0  0  0
    1.1869   -0.3166   -0.3575 H   0  0  0  0  0  0  0  0  0  0  0  0
    1.8791   -3.6601   -0.5811 H   0  0  0  0  0  0  0  0  0  0  0  0
    2.2068   -2.0955   -1.3919 H   0  0  0  0  0  0  0  0  0  0  0  0
    4.4373   -2.4681   -1.0131 H   0  0  0  0  0  0  0  0  0  0  0  0
    4.0620   -3.9749   -0.0294 H   0  0  0  0  0  0  0  0  0  0  0  0
    4.1334   -2.9060    1.9582 H   0  0  0  0  0  0  0  0  0  0  0  0
    4.8927   -0.1206   -0.5095 H   0  0  0  0  0  0  0  0  0  0  0  0
    6.0797    1.7876    1.5763 H   0  0  0  0  0  0  0  0  0  0  0  0
    8.1926    3.1299    1.6824 H   0  0  0  0  0  0  0  0  0  0  0  0
   10.4448    3.4569    0.9372 H   0  0  0  0  0  0  0  0  0  0  0  0
    7.8784   -0.9034   -1.1274 H   0  0  0  0  0  0  0  0  0  0  0  0
    3.0394   -0.3484    0.7647 H   0  0  0  0  0  0  0  0  0  0  0  0
    2.6977   -1.1151    2.4015 H   0  0  0  0  0  0  0  0  0  0  0  0
   -3.3480   -1.9628   -0.2485 H   0  0  0  0  0  0  0  0  0  0  0  0
   -2.4986   -2.4412   -1.8111 H   0  0  0  0  0  0  0  0  0  0  0  0
   -2.8460   -0.0004   -2.4767 H   0  0  0  0  0  0  0  0  0  0  0  0
   -4.4063   -0.9560   -2.3181 H   0  0  0  0  0  0  0  0  0  0  0  0
   -4.5855    2.1087    1.0884 H   0  0  0  0  0  0  0  0  0  0  0  0
   -6.8960    2.8516    1.7043 H   0  0  0  0  0  0  0  0  0  0  0  0
  1  2  1  0
  2  3  2  0
  2  4  1  0
  4  5  2  0
  5  6  1  0
  6  7  2  0
  7  8  1  0
  8  9  1  0
  9 10  1  0
 10 11  1  0
 11 12  1  0
 12 13  2  0
 12 14  1  0
 14 15  1  0
 15 16  1  0
 16 17  1  0
 17 18  1  0
 18 19  1  0
 19 20  2  0
 19 21  1  0
 21 22  1  0
 22 23  2  0
 23 24  1  0
 24 25  2  0
 25 26  1  0
 25 27  1  0
 27 28  1  0
 27 29  2  0
 18 30  1  0
 11 31  1  0
 31 32  1  0
  7 33  1  0
 33 34  2  0
 34  4  1  0
 32  8  1  0
 30 15  1  0
 29 22  1  0
  1 35  1  0
  1 36  1  0
  1 37  1  0
  5 38  1  0
  6 39  1  0
  9 40  1  0
  9 41  1  0
 10 42  1  0
 10 43  1  0
 14 44  1  0
 14 45  1  0
 16 46  1  0
 16 47  1  0
 17 48  1  0
 17 49  1  0
 18 50  1  1
 21 51  1  0
 23 52  1  0
 24 53  1  0
 26 54  1  0
 29 55  1  0
 30 56  1  0
 30 57  1  0
 31 58  1  0
 31 59  1  0
 32 60  1  0
 32 61  1  0
 33 62  1  0
 34 63  1  0
M  END
$$$$
