@<TRIPOS>MOLECULE
*****
 72 76 0 0 0
SMALL
GASTEIGER

@<TRIPOS>ATOM
      1 C           6.5713   -0.0235   -2.9161 C.3     1  UNL1       -0.0219
      2 C           6.3923   -0.1782   -1.4628 C.ar    1  UNL1        0.0485
      3 N           7.3224   -0.8791   -0.8309 N.ar    1  UNL1       -0.2371
      4 C           7.2525   -1.0898    0.4668 C.ar    1  UNL1        0.1199
      5 N           8.2571   -1.8450    1.1542 N.pl3   1  UNL1       -0.3430
      6 C           6.2026   -0.5739    1.1636 C.ar    1  UNL1        0.0200
      7 C           5.1345    0.2018    0.5889 C.ar    1  UNL1        0.1301
      8 C           5.2791    0.3767   -0.7570 C.ar    1  UNL1        0.0324
      9 C           4.4072    1.1233   -1.7001 C.3     1  UNL1        0.0423
     10 N           2.9926    0.7339   -1.5838 N.am    1  UNL1       -0.3070
     11 C           2.5250   -0.5731   -1.5655 C.2     1  UNL1        0.2473
     12 O           3.6074   -1.3129   -1.7260 O.2     1  UNL1       -0.2701
     13 C           1.2389   -1.2939   -1.4135 C.ar    1  UNL1        0.0741
     14 C           1.2061   -2.5387   -0.7034 C.ar    1  UNL1        0.0615
     15 N          -0.0465   -2.8890   -0.6905 N.ar    1  UNL1       -0.1786
     16 N          -0.8367   -1.9662   -1.3400 N.ar    1  UNL1       -0.2662
     17 C          -0.0486   -1.0024   -1.7791 C.ar    1  UNL1        0.0380
     18 C          -2.2562   -2.2466   -1.3784 C.3     1  UNL1        0.0699
     19 C          -3.1724   -1.1229   -1.1434 C.ar    1  UNL1        0.0155
     20 C          -4.0715   -0.8417   -2.2088 C.ar    1  UNL1       -0.0530
     21 C          -5.0138    0.1345   -2.1831 C.ar    1  UNL1       -0.0563
     22 C          -5.1448    0.9286   -1.0751 C.ar    1  UNL1       -0.0227
     23 C          -6.1821    2.0072   -0.9994 C.3     1  UNL1        0.0666
     24 N          -7.2687    1.4683   -0.2147 N.ar    1  UNL1       -0.2671
     25 C          -8.3373    0.7810   -0.6322 C.ar    1  UNL1        0.0258
     26 C          -9.0865    0.4936    0.4870 C.ar    1  UNL1       -0.0242
     27 C          -8.4248    1.0315    1.5541 C.ar    1  UNL1        0.0494
     28 N          -7.3245    1.6159    1.0955 N.ar    1  UNL1       -0.1794
     29 C          -4.3006    0.6880   -0.0354 C.ar    1  UNL1       -0.0147
     30 C          -3.3029   -0.3289   -0.0371 C.ar    1  UNL1        0.1257
     31 O          -2.5648   -0.4064    1.0844 O.3     1  UNL1       -0.4916
     32 C          -1.5811   -1.1213    1.6517 C.3     1  UNL1        0.0899
     33 C          -1.2243   -0.5253    3.0365 C.3     1  UNL1       -0.0152
     34 C          -0.8457    0.9414    2.7372 C.3     1  UNL1       -0.0317
     35 C          -0.1677    1.0328    1.4567 C.2     1  UNL1       -0.0877
     36 C           1.0549    1.4038    1.1467 C.2     1  UNL1       -0.0847
     37 C           2.0758    1.8370    2.0883 C.3     1  UNL1       -0.0004
     38 C           3.2908    1.0128    2.2430 C.3     1  UNL1        0.0930
     39 O           4.2032    0.6113    1.4245 O.3     1  UNL1       -0.4912
     40 H           6.8686    0.9620   -3.2494 H       1  UNL1        0.0293
     41 H           5.6707   -0.4520   -3.4616 H       1  UNL1        0.0293
     42 H           7.3815   -0.7155   -3.2496 H       1  UNL1        0.0293
     43 H           9.0664   -1.3573    1.5483 H       1  UNL1        0.1437
     44 H           8.1446   -2.8586    1.2371 H       1  UNL1        0.1437
     45 H           6.2456   -0.8117    2.2330 H       1  UNL1        0.0689
     46 H           4.6557    1.0213   -2.7621 H       1  UNL1        0.0513
     47 H           4.5110    2.2264   -1.5252 H       1  UNL1        0.0513
     48 H           2.4501    1.5881   -1.5816 H       1  UNL1        0.1493
     49 H           2.0682   -3.0747   -0.2634 H       1  UNL1        0.0855
     50 H          -0.3887   -0.0760   -2.3957 H       1  UNL1        0.0834
     51 H          -2.5907   -2.9920   -0.5980 H       1  UNL1        0.0560
     52 H          -2.5330   -2.8008   -2.3176 H       1  UNL1        0.0560
     53 H          -3.9767   -1.4683   -3.1034 H       1  UNL1        0.0622
     54 H          -5.6724    0.3101   -3.0181 H       1  UNL1        0.0621
     55 H          -6.5575    2.2784   -1.9933 H       1  UNL1        0.0558
     56 H          -5.7152    2.8752   -0.5254 H       1  UNL1        0.0558
     57 H          -8.5747    0.4980   -1.6721 H       1  UNL1        0.0826
     58 H         -10.0333   -0.0671    0.4825 H       1  UNL1        0.0648
     59 H          -8.7228    0.9981    2.5859 H       1  UNL1        0.0848
     60 H          -4.4299    1.3405    0.8338 H       1  UNL1        0.0657
     61 H          -1.7704   -2.2123    1.7959 H       1  UNL1        0.0696
     62 H          -0.5566   -1.0700    1.1489 H       1  UNL1        0.0696
     63 H          -0.4274   -1.0738    3.5272 H       1  UNL1        0.0301
     64 H          -2.1666   -0.5407    3.6140 H       1  UNL1        0.0301
     65 H          -1.8458    1.4589    2.6180 H       1  UNL1        0.0308
     66 H          -0.3540    1.4199    3.5781 H       1  UNL1        0.0308
     67 H          -0.7660    0.7715    0.5242 H       1  UNL1        0.0569
     68 H           1.2503    1.4003    0.0620 H       1  UNL1        0.0570
     69 H           2.4466    2.8605    1.7324 H       1  UNL1        0.0340
     70 H           1.6301    2.1098    3.0862 H       1  UNL1        0.0340
     71 H           3.8769    1.6418    3.0815 H       1  UNL1        0.0699
     72 H           3.0033    0.1453    3.0243 H       1  UNL1        0.0699
@<TRIPOS>BOND
     1     1     2    1
     2     2     3   ar
     3     3     4   ar
     4     4     5    1
     5     4     6   ar
     6     6     7   ar
     7     7     8   ar
     8     8     9    1
     9     9    10    1
    10    10    11   am
    11    11    12    2
    12    11    13    1
    13    13    14   ar
    14    14    15   ar
    15    15    16   ar
    16    16    17   ar
    17    16    18    1
    18    18    19    1
    19    19    20   ar
    20    20    21   ar
    21    21    22   ar
    22    22    23    1
    23    23    24    1
    24    24    25   ar
    25    25    26   ar
    26    26    27   ar
    27    27    28   ar
    28    22    29   ar
    29    29    30   ar
    30    30    31    1
    31    31    32    1
    32    32    33    1
    33    33    34    1
    34    34    35    1
    35    35    36    2
    36    36    37    1
    37    37    38    1
    38    38    39    1
    39     8     2   ar
    40    17    13   ar
    41    30    19   ar
    42    39     7    1
    43    28    24   ar
    44     1    40    1
    45     1    41    1
    46     1    42    1
    47     5    43    1
    48     5    44    1
    49     6    45    1
    50     9    46    1
    51     9    47    1
    52    10    48    1
    53    14    49    1
    54    17    50    1
    55    18    51    1
    56    18    52    1
    57    20    53    1
    58    21    54    1
    59    23    55    1
    60    23    56    1
    61    25    57    1
    62    26    58    1
    63    27    59    1
    64    29    60    1
    65    32    61    1
    66    32    62    1
    67    33    63    1
    68    33    64    1
    69    34    65    1
    70    34    66    1
    71    35    67    1
    72    36    68    1
    73    37    69    1
    74    37    70    1
    75    38    71    1
    76    38    72    1
