@<TRIPOS>MOLECULE
*****
 52 56 0 0 0
SMALL
GASTEIGER

@<TRIPOS>ATOM
      1 C           3.6864   -2.0939   -1.2881 C.3     1  UNL1       -0.0373
      2 C           3.9563   -0.7531   -0.7477 C.ar    1  UNL1       -0.0202
      3 C           3.4113   -0.3457    0.4350 C.ar    1  UNL1        0.0350
      4 N           2.4777   -1.1292    1.1760 N.pl3   1  UNL1       -0.3127
      5 C           1.8466   -0.6918    2.2930 C.ar    1  UNL1        0.0602
      6 C           2.4780   -0.5338    3.5911 C.ar    1  UNL1        0.0915
      7 C           3.8598   -0.9167    3.5433 C.1     1  UNL1        0.1026
      8 N           5.0747   -1.2760    3.4975 N.1     1  UNL1       -0.1908
      9 C           1.9043   -0.1039    4.6543 C.ar    1  UNL1        0.0480
     10 N           0.5560    0.2937    4.7274 N.ar    1  UNL1       -0.2464
     11 C          -0.0028    0.1156    3.4267 C.ar    1  UNL1        0.1106
     12 S          -1.7599    0.5582    3.0489 S.2     1  UNL1       -0.0692
     13 C          -1.6520    0.1186    1.3687 C.ar    1  UNL1        0.0150
     14 C          -2.7887    0.2484    0.4486 C.2     1  UNL1       -0.0430
     15 C          -2.6620    0.1323   -0.8237 C.2     1  UNL1        0.0014
     16 C          -3.7403    0.2485   -1.7894 C.2     1  UNL1        0.2395
     17 O          -3.4066    0.2190   -3.0278 O.2     1  UNL1       -0.2706
     18 N          -5.0912    0.3844   -1.4588 N.am    1  UNL1       -0.2980
     19 C          -6.1264    0.7351   -2.4642 C.3     1  UNL1        0.0150
     20 C          -7.3458    0.0008   -2.0330 C.3     1  UNL1       -0.0357
     21 C          -7.2228   -0.2418   -0.5775 C.3     1  UNL1       -0.0357
     22 C          -5.7813    0.1113   -0.2393 C.3     1  UNL1        0.0150
     23 C          -0.3797   -0.3148    1.2051 C.ar    1  UNL1       -0.0364
     24 C           0.4431   -0.2799    2.3640 C.ar    1  UNL1        0.0306
     25 C           3.6873    0.9364    0.9473 C.ar    1  UNL1       -0.0383
     26 C           4.5467    1.7391    0.1670 C.ar    1  UNL1       -0.0360
     27 C           5.0476    1.2985   -0.9640 C.ar    1  UNL1        0.0468
     28 N           5.8859    1.9011   -1.8841 N.ar    1  UNL1       -0.3606
     29 C           6.1579    1.1348   -2.9109 C.ar    1  UNL1        0.0027
     30 C           5.4768   -0.0743   -2.7132 C.ar    1  UNL1       -0.0364
     31 C           4.8129    0.0353   -1.5386 C.ar    1  UNL1        0.0043
     32 H           3.2824   -2.8412   -0.5755 H       1  UNL1        0.0278
     33 H           3.1129   -2.1007   -2.2405 H       1  UNL1        0.0278
     34 H           4.7087   -2.5143   -1.5476 H       1  UNL1        0.0278
     35 H           2.2502   -2.0934    0.7913 H       1  UNL1        0.1522
     36 H           2.4620   -0.0193    5.5972 H       1  UNL1        0.0843
     37 H          -3.7166    0.4857    0.9128 H       1  UNL1        0.0630
     38 H          -1.6609   -0.0826   -1.2691 H       1  UNL1        0.0670
     39 H          -5.7589    0.4311   -3.4370 H       1  UNL1        0.0465
     40 H          -6.2907    1.8294   -2.3478 H       1  UNL1        0.0465
     41 H          -7.4097   -0.9656   -2.6045 H       1  UNL1        0.0281
     42 H          -8.2492    0.6253   -2.2599 H       1  UNL1        0.0281
     43 H          -7.4110   -1.3195   -0.3469 H       1  UNL1        0.0281
     44 H          -7.9565    0.3256    0.0377 H       1  UNL1        0.0281
     45 H          -5.8491    0.9543    0.4628 H       1  UNL1        0.0465
     46 H          -5.3914   -0.8517    0.2461 H       1  UNL1        0.0465
     47 H          -0.0293   -0.6633    0.2623 H       1  UNL1        0.0636
     48 H           3.2868    1.2876    1.8503 H       1  UNL1        0.0637
     49 H           4.7804    2.7534    0.5530 H       1  UNL1        0.0639
     50 H           6.2455    2.8841   -1.7220 H       1  UNL1        0.1653
     51 H           6.7795    1.3444   -3.7677 H       1  UNL1        0.0807
     52 H           5.4651   -0.9254   -3.3756 H       1  UNL1        0.0639
@<TRIPOS>BOND
     1     1     2    1
     2     2     3   ar
     3     3     4    1
     4     4     5    1
     5     5     6   ar
     6     6     7    1
     7     7     8    3
     8     6     9   ar
     9     9    10   ar
    10    10    11   ar
    11    11    12   ar
    12    12    13   ar
    13    13    14    1
    14    14    15    2
    15    15    16    1
    16    16    17    2
    17    16    18   am
    18    18    19    1
    19    19    20    1
    20    20    21    1
    21    21    22    1
    22    13    23   ar
    23    23    24   ar
    24     3    25   ar
    25    25    26   ar
    26    26    27   ar
    27    27    28   ar
    28    28    29   ar
    29    29    30   ar
    30    30    31   ar
    31    31     2   ar
    32    24     5   ar
    33    31    27   ar
    34    24    11   ar
    35    22    18    1
    36     1    32    1
    37     1    33    1
    38     1    34    1
    39     4    35    1
    40     9    36    1
    41    14    37    1
    42    15    38    1
    43    19    39    1
    44    19    40    1
    45    20    41    1
    46    20    42    1
    47    21    43    1
    48    21    44    1
    49    22    45    1
    50    22    46    1
    51    23    47    1
    52    25    48    1
    53    26    49    1
    54    28    50    1
    55    29    51    1
    56    30    52    1
