
     RDKit          3D

 52 56  0  0  0  0  0  0  0  0999 V2000
    3.6864   -2.0939   -1.2881 C   0  0  0  0  0  0  0  0  0  0  0  0
    3.9563   -0.7531   -0.7477 C   0  0  0  0  0  0  0  0  0  0  0  0
    3.4113   -0.3457    0.4350 C   0  0  0  0  0  0  0  0  0  0  0  0
    2.4777   -1.1292    1.1760 N   0  0  0  0  0  0  0  0  0  0  0  0
    1.8466   -0.6918    2.2930 C   0  0  0  0  0  0  0  0  0  0  0  0
    2.4780   -0.5338    3.5911 C   0  0  0  0  0  0  0  0  0  0  0  0
    3.8598   -0.9167    3.5433 C   0  0  0  0  0  0  0  0  0  0  0  0
    5.0747   -1.2760    3.4975 N   0  0  0  0  0  0  0  0  0  0  0  0
    1.9043   -0.1039    4.6543 C   0  0  0  0  0  0  0  0  0  0  0  0
    0.5560    0.2937    4.7274 N   0  0  0  0  0  0  0  0  0  0  0  0
   -0.0028    0.1156    3.4267 C   0  0  0  0  0  0  0  0  0  0  0  0
   -1.7599    0.5582    3.0489 S   0  0  0  0  0  0  0  0  0  0  0  0
   -1.6520    0.1186    1.3687 C   0  0  0  0  0  0  0  0  0  0  0  0
   -2.7887    0.2484    0.4486 C   0  0  0  0  0  0  0  0  0  0  0  0
   -2.6620    0.1323   -0.8237 C   0  0  0  0  0  0  0  0  0  0  0  0
   -3.7403    0.2485   -1.7894 C   0  0  0  0  0  0  0  0  0  0  0  0
   -3.4066    0.2190   -3.0278 O   0  0  0  0  0  0  0  0  0  0  0  0
   -5.0912    0.3844   -1.4588 N   0  0  0  0  0  0  0  0  0  0  0  0
   -6.1264    0.7351   -2.4642 C   0  0  0  0  0  0  0  0  0  0  0  0
   -7.3458    0.0008   -2.0330 C   0  0  0  0  0  0  0  0  0  0  0  0
   -7.2228   -0.2418   -0.5775 C   0  0  0  0  0  0  0  0  0  0  0  0
   -5.7813    0.1113   -0.2393 C   0  0  0  0  0  0  0  0  0  0  0  0
   -0.3797   -0.3148    1.2051 C   0  0  0  0  0  0  0  0  0  0  0  0
    0.4431   -0.2799    2.3640 C   0  0  0  0  0  0  0  0  0  0  0  0
    3.6873    0.9364    0.9473 C   0  0  0  0  0  0  0  0  0  0  0  0
    4.5467    1.7391    0.1670 C   0  0  0  0  0  0  0  0  0  0  0  0
    5.0476    1.2985   -0.9640 C   0  0  0  0  0  0  0  0  0  0  0  0
    5.8859    1.9011   -1.8841 N   0  0  0  0  0  0  0  0  0  0  0  0
    6.1579    1.1348   -2.9109 C   0  0  0  0  0  0  0  0  0  0  0  0
    5.4768   -0.0743   -2.7132 C   0  0  0  0  0  0  0  0  0  0  0  0
    4.8129    0.0353   -1.5386 C   0  0  0  0  0  0  0  0  0  0  0  0
    3.2824   -2.8412   -0.5755 H   0  0  0  0  0  0  0  0  0  0  0  0
    3.1129   -2.1007   -2.2405 H   0  0  0  0  0  0  0  0  0  0  0  0
    4.7087   -2.5143   -1.5476 H   0  0  0  0  0  0  0  0  0  0  0  0
    2.2502   -2.0934    0.7913 H   0  0  0  0  0  0  0  0  0  0  0  0
    2.4620   -0.0193    5.5972 H   0  0  0  0  0  0  0  0  0  0  0  0
   -3.7166    0.4857    0.9128 H   0  0  0  0  0  0  0  0  0  0  0  0
   -1.6609   -0.0826   -1.2691 H   0  0  0  0  0  0  0  0  0  0  0  0
   -5.7589    0.4311   -3.4370 H   0  0  0  0  0  0  0  0  0  0  0  0
   -6.2907    1.8294   -2.3478 H   0  0  0  0  0  0  0  0  0  0  0  0
   -7.4097   -0.9656   -2.6045 H   0  0  0  0  0  0  0  0  0  0  0  0
   -8.2492    0.6253   -2.2599 H   0  0  0  0  0  0  0  0  0  0  0  0
   -7.4110   -1.3195   -0.3469 H   0  0  0  0  0  0  0  0  0  0  0  0
   -7.9565    0.3256    0.0377 H   0  0  0  0  0  0  0  0  0  0  0  0
   -5.8491    0.9543    0.4628 H   0  0  0  0  0  0  0  0  0  0  0  0
   -5.3914   -0.8517    0.2461 H   0  0  0  0  0  0  0  0  0  0  0  0
   -0.0293   -0.6633    0.2623 H   0  0  0  0  0  0  0  0  0  0  0  0
    3.2868    1.2876    1.8503 H   0  0  0  0  0  0  0  0  0  0  0  0
    4.7804    2.7534    0.5530 H   0  0  0  0  0  0  0  0  0  0  0  0
    6.2455    2.8841   -1.7220 H   0  0  0  0  0  0  0  0  0  0  0  0
    6.7795    1.3444   -3.7677 H   0  0  0  0  0  0  0  0  0  0  0  0
    5.4651   -0.9254   -3.3756 H   0  0  0  0  0  0  0  0  0  0  0  0
  1  2  1  0
  2  3  2  0
  3  4  1  0
  4  5  1  0
  5  6  2  0
  6  7  1  0
  7  8  3  0
  6  9  1  0
  9 10  2  0
 10 11  1  0
 11 12  1  0
 12 13  1  0
 13 14  1  0
 14 15  2  0
 15 16  1  0
 16 17  2  0
 16 18  1  0
 18 19  1  0
 19 20  1  0
 20 21  1  0
 21 22  1  0
 13 23  2  0
 23 24  1  0
  3 25  1  0
 25 26  2  0
 26 27  1  0
 27 28  1  0
 28 29  1  0
 29 30  2  0
 30 31  1  0
 31  2  1  0
 24  5  1  0
 31 27  2  0
 24 11  2  0
 22 18  1  0
  1 32  1  0
  1 33  1  0
  1 34  1  0
  4 35  1  0
  9 36  1  0
 14 37  1  0
 15 38  1  0
 19 39  1  0
 19 40  1  0
 20 41  1  0
 20 42  1  0
 21 43  1  0
 21 44  1  0
 22 45  1  0
 22 46  1  0
 23 47  1  0
 25 48  1  0
 26 49  1  0
 28 50  1  0
 29 51  1  0
 30 52  1  0
M  END
$$$$
