@<TRIPOS>MOLECULE
*****
 54 58 0 0 0
SMALL
GASTEIGER

@<TRIPOS>ATOM
      1 C          -5.6381   -3.2663    1.2674 C.3     1  UNL1       -0.0396
      2 C          -4.6099   -2.1923    1.3056 C.ar    1  UNL1       -0.0483
      3 C          -3.8786   -1.9774    2.4468 C.ar    1  UNL1       -0.0580
      4 C          -2.9138   -0.9699    2.4735 C.ar    1  UNL1       -0.0473
      5 C          -2.6837   -0.1839    1.3646 C.ar    1  UNL1        0.0640
      6 C          -1.6454    0.8136    1.4157 C.2     1  UNL1        0.2491
      7 O          -2.0058    2.0091    1.6596 O.2     1  UNL1       -0.2699
      8 N          -0.2486    0.5035    1.2096 N.am    1  UNL1       -0.2897
      9 C           0.0656   -0.8673    0.9518 C.3     1  UNL1        0.0388
     10 C           1.5053   -1.1092    1.4252 C.3     1  UNL1        0.0635
     11 O           1.8242   -0.2909    2.4787 O.3     1  UNL1       -0.3764
     12 C           1.8639    1.0397    2.1818 C.3     1  UNL1        0.0666
     13 C           0.7173    1.5250    1.3056 C.3     1  UNL1        0.0537
     14 C           1.1953    2.1994    0.0755 C.3     1  UNL1       -0.0041
     15 C           1.8462    1.3588   -0.9520 C.ar    1  UNL1       -0.0097
     16 C           3.2421    1.2855   -1.0192 C.ar    1  UNL1       -0.0450
     17 C           3.9285    0.5205   -1.9228 C.ar    1  UNL1        0.0229
     18 C           5.3842    0.4679   -1.9608 C.ar    1  UNL1        0.2018
     19 N           6.1938   -0.2908   -2.7080 N.ar    1  UNL1       -0.1942
     20 C           7.4866   -0.0126   -2.4161 C.ar    1  UNL1        0.2147
     21 O           7.4307    0.9264   -1.4808 O.2     1  UNL1       -0.3411
     22 N           6.1874    1.2216   -1.2007 N.ar    1  UNL1       -0.0564
     23 C           3.1827   -0.2319   -2.8325 C.ar    1  UNL1       -0.0482
     24 C           1.8085   -0.1667   -2.7756 C.ar    1  UNL1       -0.0255
     25 C           1.1440    0.6080   -1.8607 C.ar    1  UNL1        0.1267
     26 F          -0.2068    0.6580   -1.8540 F       1  UNL1       -0.2052
     27 C          -3.4204   -0.4106    0.2406 C.ar    1  UNL1        0.0985
     28 N          -3.2645    0.3840   -0.9030 N.ar    1  UNL1       -0.1496
     29 N          -3.3073   -0.0711   -2.1433 N.ar    1  UNL1       -0.1556
     30 C          -3.1517    0.9359   -3.0189 C.ar    1  UNL1        0.0697
     31 C          -3.0069    2.0611   -2.2375 C.ar    1  UNL1        0.0697
     32 N          -3.0782    1.7036   -0.9458 N.ar    1  UNL1       -0.1556
     33 C          -4.3913   -1.4150    0.1921 C.ar    1  UNL1       -0.0309
     34 H          -5.2649   -4.0235    0.5404 H       1  UNL1        0.0278
     35 H          -5.7578   -3.7695    2.2274 H       1  UNL1        0.0278
     36 H          -6.6181   -2.8611    0.9599 H       1  UNL1        0.0278
     37 H          -4.0652   -2.5953    3.3047 H       1  UNL1        0.0620
     38 H          -2.3428   -0.8116    3.3840 H       1  UNL1        0.0626
     39 H          -0.0746   -1.2341   -0.0606 H       1  UNL1        0.0487
     40 H          -0.5456   -1.5530    1.6210 H       1  UNL1        0.0487
     41 H           1.6112   -2.1612    1.7987 H       1  UNL1        0.0575
     42 H           2.2240   -1.0401    0.5872 H       1  UNL1        0.0575
     43 H           2.8588    1.3374    1.8046 H       1  UNL1        0.0578
     44 H           1.7613    1.5838    3.1649 H       1  UNL1        0.0578
     45 H           0.1816    2.3741    1.8976 H       1  UNL1        0.0526
     46 H           1.9094    3.0367    0.3312 H       1  UNL1        0.0333
     47 H           0.3607    2.7377   -0.4446 H       1  UNL1        0.0333
     48 H           3.8076    1.8769   -0.3101 H       1  UNL1        0.0628
     49 H           8.4027   -0.4234   -2.8152 H       1  UNL1        0.1283
     50 H           3.7239   -0.8327   -3.5410 H       1  UNL1        0.0625
     51 H           1.2473   -0.7758   -3.5119 H       1  UNL1        0.0646
     52 H          -3.1384    0.9028   -4.1099 H       1  UNL1        0.0864
     53 H          -2.8579    3.0724   -2.6405 H       1  UNL1        0.0864
     54 H          -4.9785   -1.6060   -0.6867 H       1  UNL1        0.0642
@<TRIPOS>BOND
     1     1     2    1
     2     2     3   ar
     3     3     4   ar
     4     4     5   ar
     5     5     6    1
     6     6     7    2
     7     6     8   am
     8     8     9    1
     9     9    10    1
    10    10    11    1
    11    11    12    1
    12    12    13    1
    13    13    14    1
    14    14    15    1
    15    15    16   ar
    16    16    17   ar
    17    17    18    1
    18    18    19   ar
    19    19    20   ar
    20    20    21   ar
    21    21    22   ar
    22    17    23   ar
    23    23    24   ar
    24    24    25   ar
    25    25    26    1
    26     5    27   ar
    27    27    28    1
    28    28    29   ar
    29    29    30   ar
    30    30    31   ar
    31    31    32   ar
    32    27    33   ar
    33    33     2   ar
    34    13     8    1
    35    25    15   ar
    36    32    28   ar
    37    22    18   ar
    38     1    34    1
    39     1    35    1
    40     1    36    1
    41     3    37    1
    42     4    38    1
    43     9    39    1
    44     9    40    1
    45    10    41    1
    46    10    42    1
    47    12    43    1
    48    12    44    1
    49    13    45    1
    50    14    46    1
    51    14    47    1
    52    16    48    1
    53    20    49    1
    54    23    50    1
    55    24    51    1
    56    30    52    1
    57    31    53    1
    58    33    54    1
