
     RDKit          3D

 35 35  0  0  0  0  0  0  0  0999 V2000
   -2.4422    0.4827   -1.6736 C   0  0  0  0  0  0  0  0  0  0  0  0
   -2.3205    1.3134   -0.4401 C   0  0  0  0  0  0  0  0  0  0  0  0
   -2.0188    0.4075    0.6784 N   0  0  0  0  0  0  0  0  0  0  0  0
   -3.1638   -0.1281    1.3859 C   0  0  0  0  0  0  0  0  0  0  0  0
   -3.6662   -1.4314    0.8127 C   0  0  0  0  0  0  0  0  0  0  0  0
   -0.7352    0.0045    1.1362 C   0  0  0  0  0  0  0  0  0  0  0  0
   -0.5566   -0.7734    2.1021 O   0  0  0  0  0  0  0  0  0  0  0  0
    0.5558    0.3354    0.6765 N   0  0  0  0  0  0  0  0  0  0  0  0
    1.6564   -0.2711    1.3974 C   0  0  0  0  0  0  0  0  0  0  0  0
    2.3477   -1.1835    0.3975 C   0  0  0  0  0  0  0  0  0  0  0  0
    2.9146   -0.3834   -0.6376 N   0  0  0  0  0  0  0  0  0  0  0  0
    4.3256   -0.5500   -0.8021 C   0  0  0  0  0  0  0  0  0  0  0  0
    2.4984    0.9966   -0.6517 C   0  0  0  0  0  0  0  0  0  0  0  0
    1.0389    1.1792   -0.4000 C   0  0  0  0  0  0  0  0  0  0  0  0
   -1.8204   -0.4354   -1.6295 H   0  0  0  0  0  0  0  0  0  0  0  0
   -2.0888    1.0281   -2.5734 H   0  0  0  0  0  0  0  0  0  0  0  0
   -3.4769    0.1406   -1.8686 H   0  0  0  0  0  0  0  0  0  0  0  0
   -1.4776    2.0226   -0.5457 H   0  0  0  0  0  0  0  0  0  0  0  0
   -3.2108    1.9276   -0.2232 H   0  0  0  0  0  0  0  0  0  0  0  0
   -2.8731   -0.2662    2.4444 H   0  0  0  0  0  0  0  0  0  0  0  0
   -4.0155    0.6133    1.3316 H   0  0  0  0  0  0  0  0  0  0  0  0
   -3.2724   -2.2486    1.4513 H   0  0  0  0  0  0  0  0  0  0  0  0
   -3.3290   -1.6379   -0.2036 H   0  0  0  0  0  0  0  0  0  0  0  0
   -4.7769   -1.5228    0.8968 H   0  0  0  0  0  0  0  0  0  0  0  0
    2.4268    0.5022    1.6661 H   0  0  0  0  0  0  0  0  0  0  0  0
    1.3574   -0.8546    2.2767 H   0  0  0  0  0  0  0  0  0  0  0  0
    3.1592   -1.6896    0.9528 H   0  0  0  0  0  0  0  0  0  0  0  0
    1.6676   -1.9787    0.0278 H   0  0  0  0  0  0  0  0  0  0  0  0
    4.5939   -1.5733   -0.4220 H   0  0  0  0  0  0  0  0  0  0  0  0
    4.7097   -0.3439   -1.8037 H   0  0  0  0  0  0  0  0  0  0  0  0
    4.8279    0.1705   -0.1099 H   0  0  0  0  0  0  0  0  0  0  0  0
    3.0917    1.5708    0.0622 H   0  0  0  0  0  0  0  0  0  0  0  0
    2.7036    1.4109   -1.6635 H   0  0  0  0  0  0  0  0  0  0  0  0
    0.4874    0.9125   -1.3492 H   0  0  0  0  0  0  0  0  0  0  0  0
    0.8818    2.2537   -0.1827 H   0  0  0  0  0  0  0  0  0  0  0  0
  1  2  1  0
  2  3  1  0
  3  4  1  0
  4  5  1  0
  3  6  1  0
  6  7  2  0
  6  8  1  0
  8  9  1  0
  9 10  1  0
 10 11  1  0
 11 12  1  0
 11 13  1  0
 13 14  1  0
 14  8  1  0
  1 15  1  0
  1 16  1  0
  1 17  1  0
  2 18  1  0
  2 19  1  0
  4 20  1  0
  4 21  1  0
  5 22  1  0
  5 23  1  0
  5 24  1  0
  9 25  1  0
  9 26  1  0
 10 27  1  0
 10 28  1  0
 12 29  1  0
 12 30  1  0
 12 31  1  0
 13 32  1  0
 13 33  1  0
 14 34  1  0
 14 35  1  0
M  END
$$$$
