@<TRIPOS>MOLECULE
*****
 35 35 0 0 0
SMALL
GASTEIGER

@<TRIPOS>ATOM
      1 C          -2.4422    0.4827   -1.6736 C.3     1  UNL1       -0.0492
      2 C          -2.3205    1.3134   -0.4401 C.3     1  UNL1        0.0133
      3 N          -2.0188    0.4075    0.6784 N.am    1  UNL1       -0.2860
      4 C          -3.1638   -0.1281    1.3859 C.3     1  UNL1        0.0133
      5 C          -3.6662   -1.4314    0.8127 C.3     1  UNL1       -0.0492
      6 C          -0.7352    0.0045    1.1362 C.2     1  UNL1        0.3048
      7 O          -0.5566   -0.7734    2.1021 O.2     1  UNL1       -0.2524
      8 N           0.5558    0.3354    0.6765 N.am    1  UNL1       -0.2830
      9 C           1.6564   -0.2711    1.3974 C.3     1  UNL1        0.0289
     10 C           2.3477   -1.1835    0.3975 C.3     1  UNL1        0.0145
     11 N           2.9146   -0.3834   -0.6376 N.3     1  UNL1       -0.3024
     12 C           4.3256   -0.5500   -0.8021 C.3     1  UNL1       -0.0126
     13 C           2.4984    0.9966   -0.6517 C.3     1  UNL1        0.0145
     14 C           1.0389    1.1792   -0.4000 C.3     1  UNL1        0.0289
     15 H          -1.8204   -0.4354   -1.6295 H       1  UNL1        0.0245
     16 H          -2.0888    1.0281   -2.5734 H       1  UNL1        0.0245
     17 H          -3.4769    0.1406   -1.8686 H       1  UNL1        0.0245
     18 H          -1.4776    2.0226   -0.5457 H       1  UNL1        0.0462
     19 H          -3.2108    1.9276   -0.2232 H       1  UNL1        0.0462
     20 H          -2.8731   -0.2662    2.4444 H       1  UNL1        0.0462
     21 H          -4.0155    0.6133    1.3316 H       1  UNL1        0.0462
     22 H          -3.2724   -2.2486    1.4513 H       1  UNL1        0.0245
     23 H          -3.3290   -1.6379   -0.2036 H       1  UNL1        0.0245
     24 H          -4.7769   -1.5228    0.8968 H       1  UNL1        0.0245
     25 H           2.4268    0.5022    1.6661 H       1  UNL1        0.0478
     26 H           1.3574   -0.8546    2.2767 H       1  UNL1        0.0478
     27 H           3.1592   -1.6896    0.9528 H       1  UNL1        0.0442
     28 H           1.6676   -1.9787    0.0278 H       1  UNL1        0.0442
     29 H           4.5939   -1.5733   -0.4220 H       1  UNL1        0.0391
     30 H           4.7097   -0.3439   -1.8037 H       1  UNL1        0.0391
     31 H           4.8279    0.1705   -0.1099 H       1  UNL1        0.0391
     32 H           3.0917    1.5708    0.0622 H       1  UNL1        0.0442
     33 H           2.7036    1.4109   -1.6635 H       1  UNL1        0.0442
     34 H           0.4874    0.9125   -1.3492 H       1  UNL1        0.0478
     35 H           0.8818    2.2537   -0.1827 H       1  UNL1        0.0478
@<TRIPOS>BOND
     1     1     2    1
     2     2     3    1
     3     3     4    1
     4     4     5    1
     5     3     6   am
     6     6     7    2
     7     6     8   am
     8     8     9    1
     9     9    10    1
    10    10    11    1
    11    11    12    1
    12    11    13    1
    13    13    14    1
    14    14     8    1
    15     1    15    1
    16     1    16    1
    17     1    17    1
    18     2    18    1
    19     2    19    1
    20     4    20    1
    21     4    21    1
    22     5    22    1
    23     5    23    1
    24     5    24    1
    25     9    25    1
    26     9    26    1
    27    10    27    1
    28    10    28    1
    29    12    29    1
    30    12    30    1
    31    12    31    1
    32    13    32    1
    33    13    33    1
    34    14    34    1
    35    14    35    1
