
     RDKit          3D

 37 40  0  0  0  0  0  0  0  0999 V2000
   -0.0568    1.1566   -0.8247 O   0  0  0  0  0  0  0  0  0  0  0  0
    0.1368    1.2483    0.4124 C   0  0  0  0  0  0  0  0  0  0  0  0
    1.5154    1.0442    0.9194 C   0  0  0  0  0  0  0  0  0  0  0  0
    2.4831    0.7564   -0.1348 C   0  0  0  0  0  0  0  0  0  0  0  0
    3.3836    1.6951   -0.5922 C   0  0  0  0  0  0  0  0  0  0  0  0
    4.2949    1.4092   -1.5920 C   0  0  0  0  0  0  0  0  0  0  0  0
    4.3239    0.1557   -2.1644 C   0  0  0  0  0  0  0  0  0  0  0  0
    3.4420   -0.7871   -1.7266 C   0  0  0  0  0  0  0  0  0  0  0  0
    3.4666   -2.0430   -2.2959 C   0  0  0  0  0  0  0  0  0  0  0  0
    2.5907   -2.9844   -1.8633 N   0  0  0  0  0  0  0  0  0  0  0  0
    1.6936   -2.7532   -0.9009 C   0  0  0  0  0  0  0  0  0  0  0  0
    1.6740   -1.4923   -0.3342 C   0  0  0  0  0  0  0  0  0  0  0  0
    2.5353   -0.4883   -0.7257 C   0  0  0  0  0  0  0  0  0  0  0  0
   -0.9649    1.5407    1.2580 N   0  0  0  0  0  0  0  0  0  0  0  0
   -2.2847    1.7378    0.7866 C   0  0  0  0  0  0  0  0  0  0  0  0
   -2.9795    3.3630    0.2872 S   0  0  0  0  0  0  0  0  0  0  0  0
   -4.5669    2.7297   -0.1353 C   0  0  0  0  0  0  0  0  0  0  0  0
   -4.4918    1.3827    0.1122 C   0  0  0  0  0  0  0  0  0  0  0  0
   -6.1214    0.3571   -0.2588 Br  0  0  0  0  0  0  0  0  0  0  0  0
   -3.3444    0.8765    0.5770 C   0  0  0  0  0  0  0  0  0  0  0  0
   -3.1437   -0.5780    0.8835 C   0  0  0  0  0  0  0  0  0  0  0  0
   -1.9944   -1.1304    1.3560 N   0  0  0  0  0  0  0  0  0  0  0  0
   -2.1370   -2.4157    1.5206 N   0  0  0  0  0  0  0  0  0  0  0  0
   -3.3777   -2.7506    1.1640 C   0  0  0  0  0  0  0  0  0  0  0  0
   -3.9796   -1.5699    0.7695 N   0  0  0  0  0  0  0  0  0  0  0  0
    1.7996    2.0026    1.4400 H   0  0  0  0  0  0  0  0  0  0  0  0
    1.5322    0.2755    1.7455 H   0  0  0  0  0  0  0  0  0  0  0  0
    3.3449    2.6702   -0.1314 H   0  0  0  0  0  0  0  0  0  0  0  0
    4.9980    2.1470   -1.9470 H   0  0  0  0  0  0  0  0  0  0  0  0
    5.0426   -0.0896   -2.9617 H   0  0  0  0  0  0  0  0  0  0  0  0
    4.1496   -2.3382   -3.0805 H   0  0  0  0  0  0  0  0  0  0  0  0
    0.9926   -3.5162   -0.5586 H   0  0  0  0  0  0  0  0  0  0  0  0
    0.9688   -1.2217    0.4609 H   0  0  0  0  0  0  0  0  0  0  0  0
   -0.7269    1.6031    2.2937 H   0  0  0  0  0  0  0  0  0  0  0  0
   -5.4056    3.3288   -0.5130 H   0  0  0  0  0  0  0  0  0  0  0  0
   -3.8279   -3.7236    1.1750 H   0  0  0  0  0  0  0  0  0  0  0  0
   -4.9650   -1.5979    0.4471 H   0  0  0  0  0  0  0  0  0  0  0  0
  1  2  2  0
  2  3  1  0
  3  4  1  0
  4  5  2  0
  5  6  1  0
  6  7  2  0
  7  8  1  0
  8  9  2  0
  9 10  1  0
 10 11  2  0
 11 12  1  0
 12 13  2  0
  2 14  1  0
 14 15  1  0
 15 16  1  0
 16 17  1  0
 17 18  2  0
 18 19  1  0
 18 20  1  0
 20 21  1  0
 21 22  2  0
 22 23  1  0
 23 24  2  0
 24 25  1  0
 13  4  1  0
 20 15  2  0
 25 21  1  0
 13  8  1  0
  3 26  1  0
  3 27  1  0
  5 28  1  0
  6 29  1  0
  7 30  1  0
  9 31  1  0
 11 32  1  0
 12 33  1  0
 14 34  1  0
 17 35  1  0
 24 36  1  0
 25 37  1  0
M  END
$$$$
