@<TRIPOS>MOLECULE
*****
 37 40 0 0 0
SMALL
GASTEIGER

@<TRIPOS>ATOM
      1 O          -0.0568    1.1566   -0.8247 O.2     1  UNL1       -0.2751
      2 C           0.1368    1.2483    0.4124 C.2     1  UNL1        0.2219
      3 C           1.5154    1.0442    0.9194 C.3     1  UNL1        0.0500
      4 C           2.4831    0.7564   -0.1348 C.ar    1  UNL1       -0.0308
      5 C           3.3836    1.6951   -0.5922 C.ar    1  UNL1       -0.0575
      6 C           4.2949    1.4092   -1.5920 C.ar    1  UNL1       -0.0609
      7 C           4.3239    0.1557   -2.1644 C.ar    1  UNL1       -0.0526
      8 C           3.4420   -0.7871   -1.7266 C.ar    1  UNL1        0.0005
      9 C           3.4666   -2.0430   -2.2959 C.ar    1  UNL1        0.0353
     10 N           2.5907   -2.9844   -1.8633 N.ar    1  UNL1       -0.2626
     11 C           1.6936   -2.7532   -0.9009 C.ar    1  UNL1        0.0282
     12 C           1.6740   -1.4923   -0.3342 C.ar    1  UNL1       -0.0356
     13 C           2.5353   -0.4883   -0.7257 C.ar    1  UNL1       -0.0114
     14 N          -0.9649    1.5407    1.2580 N.am    1  UNL1       -0.2791
     15 C          -2.2847    1.7378    0.7866 C.ar    1  UNL1        0.0836
     16 S          -2.9795    3.3630    0.2872 S.2     1  UNL1       -0.0801
     17 C          -4.5669    2.7297   -0.1353 C.ar    1  UNL1       -0.0078
     18 C          -4.4918    1.3827    0.1122 C.ar    1  UNL1        0.0374
     19 BR         -6.1214    0.3571   -0.2588 Br      1  UNL1       -0.0490
     20 C          -3.3444    0.8765    0.5770 C.ar    1  UNL1        0.0614
     21 C          -3.1437   -0.5780    0.8835 C.ar    1  UNL1        0.1648
     22 N          -1.9944   -1.1304    1.3560 N.ar    1  UNL1       -0.1295
     23 N          -2.1370   -2.4157    1.5206 N.ar    1  UNL1       -0.1377
     24 C          -3.3777   -2.7506    1.1640 C.ar    1  UNL1        0.1175
     25 N          -3.9796   -1.5699    0.7695 N.ar    1  UNL1       -0.3276
     26 H           1.7996    2.0026    1.4400 H       1  UNL1        0.0407
     27 H           1.5322    0.2755    1.7455 H       1  UNL1        0.0407
     28 H           3.3449    2.6702   -0.1314 H       1  UNL1        0.0621
     29 H           4.9980    2.1470   -1.9470 H       1  UNL1        0.0618
     30 H           5.0426   -0.0896   -2.9617 H       1  UNL1        0.0624
     31 H           4.1496   -2.3382   -3.0805 H       1  UNL1        0.0836
     32 H           0.9926   -3.5162   -0.5586 H       1  UNL1        0.0830
     33 H           0.9688   -1.2217    0.4609 H       1  UNL1        0.0639
     34 H          -0.7269    1.6031    2.2937 H       1  UNL1        0.1553
     35 H          -5.4056    3.3288   -0.5130 H       1  UNL1        0.0705
     36 H          -3.8279   -3.7236    1.1750 H       1  UNL1        0.1046
     37 H          -4.9650   -1.5979    0.4471 H       1  UNL1        0.1683
@<TRIPOS>BOND
     1     1     2    2
     2     2     3    1
     3     3     4    1
     4     4     5   ar
     5     5     6   ar
     6     6     7   ar
     7     7     8   ar
     8     8     9   ar
     9     9    10   ar
    10    10    11   ar
    11    11    12   ar
    12    12    13   ar
    13     2    14   am
    14    14    15    1
    15    15    16   ar
    16    16    17   ar
    17    17    18   ar
    18    18    19    1
    19    18    20   ar
    20    20    21    1
    21    21    22   ar
    22    22    23   ar
    23    23    24   ar
    24    24    25   ar
    25    13     4   ar
    26    20    15   ar
    27    25    21   ar
    28    13     8   ar
    29     3    26    1
    30     3    27    1
    31     5    28    1
    32     6    29    1
    33     7    30    1
    34     9    31    1
    35    11    32    1
    36    12    33    1
    37    14    34    1
    38    17    35    1
    39    24    36    1
    40    25    37    1
