
     RDKit          3D

 46 48  0  0  0  0  0  0  0  0999 V2000
   -3.8473    0.7440    1.9543 C   0  0  0  0  0  0  0  0  0  0  0  0
   -3.1443    0.4196    0.6566 C   0  0  1  0  0  0  0  0  0  0  0  0
   -1.9246    1.2827    0.5907 C   0  0  0  0  0  0  0  0  0  0  0  0
   -0.6723    0.7772    0.5881 N   0  0  0  0  0  0  0  0  0  0  0  0
    0.4189    1.5575    0.5330 C   0  0  0  0  0  0  0  0  0  0  0  0
    1.7405    1.0398    0.5295 N   0  0  0  0  0  0  0  0  0  0  0  0
    2.4564    0.7004   -0.6316 C   0  0  0  0  0  0  0  0  0  0  0  0
    1.9185    0.8545   -1.7419 O   0  0  0  0  0  0  0  0  0  0  0  0
    3.8238    0.1680   -0.5720 C   0  0  0  0  0  0  0  0  0  0  0  0
    4.4678   -0.0247    0.5929 N   0  0  0  0  0  0  0  0  0  0  0  0
    5.7275   -0.5151    0.6482 C   0  0  0  0  0  0  0  0  0  0  0  0
    6.4424   -0.8528   -0.4851 C   0  0  0  0  0  0  0  0  0  0  0  0
    7.8277   -1.3922   -0.4270 C   0  0  0  0  0  0  0  0  0  0  0  0
    8.6915   -0.3414   -0.7570 F   0  0  0  0  0  0  0  0  0  0  0  0
    8.1283   -1.9327    0.7866 F   0  0  0  0  0  0  0  0  0  0  0  0
    7.9454   -2.3041   -1.4710 F   0  0  0  0  0  0  0  0  0  0  0  0
    5.8000   -0.6629   -1.6935 C   0  0  0  0  0  0  0  0  0  0  0  0
    4.5046   -0.1574   -1.7265 C   0  0  0  0  0  0  0  0  0  0  0  0
    3.6720    0.0911   -3.2483 Cl  0  0  0  0  0  0  0  0  0  0  0  0
    0.2715    2.9263    0.4767 C   0  0  0  0  0  0  0  0  0  0  0  0
   -0.9883    3.5171    0.4758 C   0  0  0  0  0  0  0  0  0  0  0  0
   -2.0844    2.6491    0.5347 C   0  0  0  0  0  0  0  0  0  0  0  0
   -3.3353    3.1909    0.5311 F   0  0  0  0  0  0  0  0  0  0  0  0
   -2.6535   -1.0144    0.7294 C   0  0  0  0  0  0  0  0  0  0  0  0
   -3.6197   -2.0095    0.1918 C   0  0  1  0  0  0  0  0  0  0  0  0
   -3.9756   -3.0115    1.2409 C   0  0  0  0  0  0  0  0  0  0  0  0
   -4.5523   -2.3971    2.3327 F   0  0  0  0  0  0  0  0  0  0  0  0
   -4.9124   -3.9176    0.7421 F   0  0  0  0  0  0  0  0  0  0  0  0
   -2.8611   -3.7497    1.6372 F   0  0  0  0  0  0  0  0  0  0  0  0
   -4.8413   -1.4014   -0.2337 O   0  0  0  0  0  0  0  0  0  0  0  0
   -4.7851   -0.2217   -0.9667 C   0  0  0  0  0  0  0  0  0  0  0  0
   -5.5588    0.0416   -2.1170 N   0  0  0  0  0  0  0  0  0  0  0  0
   -3.9433    0.6613   -0.5116 N   0  0  0  0  0  0  0  0  0  0  0  0
   -3.4618    0.0361    2.7315 H   0  0  0  0  0  0  0  0  0  0  0  0
   -4.9510    0.6541    1.8475 H   0  0  0  0  0  0  0  0  0  0  0  0
   -3.5491    1.7575    2.2866 H   0  0  0  0  0  0  0  0  0  0  0  0
    2.2464    0.8888    1.4530 H   0  0  0  0  0  0  0  0  0  0  0  0
    6.1953   -0.6490    1.6156 H   0  0  0  0  0  0  0  0  0  0  0  0
    6.3129   -0.9104   -2.6089 H   0  0  0  0  0  0  0  0  0  0  0  0
    1.1098    3.6091    0.4309 H   0  0  0  0  0  0  0  0  0  0  0  0
   -1.1267    4.5889    0.4322 H   0  0  0  0  0  0  0  0  0  0  0  0
   -2.4145   -1.2767    1.8021 H   0  0  0  0  0  0  0  0  0  0  0  0
   -1.6783   -1.1237    0.2090 H   0  0  0  0  0  0  0  0  0  0  0  0
   -3.1436   -2.5648   -0.6436 H   0  0  0  0  0  0  0  0  0  0  0  0
   -6.5805    0.1438   -2.0430 H   0  0  0  0  0  0  0  0  0  0  0  0
   -5.0963    0.1313   -3.0324 H   0  0  0  0  0  0  0  0  0  0  0  0
  2  1  1  1
  2  3  1  0
  3  4  2  0
  4  5  1  0
  5  6  1  0
  6  7  1  0
  7  8  2  0
  7  9  1  0
  9 10  2  0
 10 11  1  0
 11 12  2  0
 12 13  1  0
 13 14  1  0
 13 15  1  0
 13 16  1  0
 12 17  1  0
 17 18  2  0
 18 19  1  0
  5 20  2  0
 20 21  1  0
 21 22  2  0
 22 23  1  0
  2 24  1  0
 24 25  1  0
 25 26  1  0
 26 27  1  0
 26 28  1  0
 26 29  1  0
 25 30  1  0
 30 31  1  0
 31 32  1  0
 31 33  2  0
 33  2  1  0
 22  3  1  0
 18  9  1  0
  1 34  1  0
  1 35  1  0
  1 36  1  0
  6 37  1  0
 11 38  1  0
 17 39  1  0
 20 40  1  0
 21 41  1  0
 24 42  1  0
 24 43  1  0
 25 44  1  6
 32 45  1  0
 32 46  1  0
M  END
$$$$
