@<TRIPOS>MOLECULE
*****
 46 48 0 0 0
SMALL
GASTEIGER

@<TRIPOS>ATOM
      1 C          -3.8473    0.7440    1.9543 C.3     1  UNL1       -0.0338
      2 C          -3.1443    0.4196    0.6566 C.3     1  UNL1        0.1120
      3 C          -1.9246    1.2827    0.5907 C.ar    1  UNL1        0.1058
      4 N          -0.6723    0.7772    0.5881 N.ar    1  UNL1       -0.2314
      5 C           0.4189    1.5575    0.5330 C.ar    1  UNL1        0.1257
      6 N           1.7405    1.0398    0.5295 N.am    1  UNL1       -0.2650
      7 C           2.4564    0.7004   -0.6316 C.2     1  UNL1        0.2691
      8 O           1.9185    0.8545   -1.7419 O.2     1  UNL1       -0.2681
      9 C           3.8238    0.1680   -0.5720 C.ar    1  UNL1        0.1439
     10 N           4.4678   -0.0247    0.5929 N.ar    1  UNL1       -0.2483
     11 C           5.7275   -0.5151    0.6482 C.ar    1  UNL1        0.0402
     12 C           6.4424   -0.8528   -0.4851 C.ar    1  UNL1        0.0743
     13 C           7.8277   -1.3922   -0.4270 C.3     1  UNL1        0.4189
     14 F           8.6915   -0.3414   -0.7570 F       1  UNL1       -0.1658
     15 F           8.1283   -1.9327    0.7866 F       1  UNL1       -0.1658
     16 F           7.9454   -2.3041   -1.4710 F       1  UNL1       -0.1658
     17 C           5.8000   -0.6629   -1.6935 C.ar    1  UNL1       -0.0280
     18 C           4.5046   -0.1574   -1.7265 C.ar    1  UNL1        0.0719
     19 CL          3.6720    0.0911   -3.2483 Cl      1  UNL1       -0.0812
     20 C           0.2715    2.9263    0.4767 C.ar    1  UNL1       -0.0188
     21 C          -0.9883    3.5171    0.4758 C.ar    1  UNL1       -0.0213
     22 C          -2.0844    2.6491    0.5347 C.ar    1  UNL1        0.1471
     23 F          -3.3353    3.1909    0.5311 F       1  UNL1       -0.2035
     24 C          -2.6535   -1.0144    0.7294 C.3     1  UNL1        0.0238
     25 C          -3.6197   -2.0095    0.1918 C.3     1  UNL1        0.1998
     26 C          -3.9756   -3.0115    1.2409 C.3     1  UNL1        0.4266
     27 F          -4.5523   -2.3971    2.3327 F       1  UNL1       -0.1669
     28 F          -4.9124   -3.9176    0.7421 F       1  UNL1       -0.1669
     29 F          -2.8611   -3.7497    1.6372 F       1  UNL1       -0.1669
     30 O          -4.8413   -1.4014   -0.2337 O.2     1  UNL1       -0.4534
     31 C          -4.7851   -0.2217   -0.9667 C.2     1  UNL1        0.2765
     32 N          -5.5588    0.0416   -2.1170 N.pl3   1  UNL1       -0.3134
     33 N          -3.9433    0.6613   -0.5116 N.2     1  UNL1       -0.2241
     34 H          -3.4618    0.0361    2.7315 H       1  UNL1        0.0257
     35 H          -4.9510    0.6541    1.8475 H       1  UNL1        0.0257
     36 H          -3.5491    1.7575    2.2866 H       1  UNL1        0.0257
     37 H           2.2464    0.8888    1.4530 H       1  UNL1        0.1566
     38 H           6.1953   -0.6490    1.6156 H       1  UNL1        0.0835
     39 H           6.3129   -0.9104   -2.6089 H       1  UNL1        0.0639
     40 H           1.1098    3.6091    0.4309 H       1  UNL1        0.0653
     41 H          -1.1267    4.5889    0.4322 H       1  UNL1        0.0648
     42 H          -2.4145   -1.2767    1.8021 H       1  UNL1        0.0331
     43 H          -1.6783   -1.1237    0.2090 H       1  UNL1        0.0331
     44 H          -3.1436   -2.5648   -0.6436 H       1  UNL1        0.0826
     45 H          -6.5805    0.1438   -2.0430 H       1  UNL1        0.1466
     46 H          -5.0963    0.1313   -3.0324 H       1  UNL1        0.1466
@<TRIPOS>BOND
     1     2     1    1
     2     2     3    1
     3     3     4   ar
     4     4     5   ar
     5     5     6    1
     6     6     7   am
     7     7     8    2
     8     7     9    1
     9     9    10   ar
    10    10    11   ar
    11    11    12   ar
    12    12    13    1
    13    13    14    1
    14    13    15    1
    15    13    16    1
    16    12    17   ar
    17    17    18   ar
    18    18    19    1
    19     5    20   ar
    20    20    21   ar
    21    21    22   ar
    22    22    23    1
    23     2    24    1
    24    24    25    1
    25    25    26    1
    26    26    27    1
    27    26    28    1
    28    26    29    1
    29    25    30    1
    30    30    31    1
    31    31    32    1
    32    31    33    2
    33    33     2    1
    34    22     3   ar
    35    18     9   ar
    36     1    34    1
    37     1    35    1
    38     1    36    1
    39     6    37    1
    40    11    38    1
    41    17    39    1
    42    20    40    1
    43    21    41    1
    44    24    42    1
    45    24    43    1
    46    25    44    1
    47    32    45    1
    48    32    46    1
