@<TRIPOS>MOLECULE
*****
 59 63 0 0 0
SMALL
GASTEIGER

@<TRIPOS>ATOM
      1 C          -4.1504    0.9679    3.7939 C.3     1  UNL1       -0.0376
      2 C          -3.8096    0.7413    2.3667 C.ar    1  UNL1       -0.0222
      3 C          -4.7637    0.8842    1.3918 C.ar    1  UNL1       -0.0418
      4 C          -4.4563    0.6743    0.0393 C.ar    1  UNL1        0.0674
      5 C          -5.4980    0.8485   -0.9656 C.2     1  UNL1        0.3148
      6 N          -6.6122    1.4717   -0.7511 N.2     1  UNL1       -0.0790
      7 C          -7.4553    1.4960   -1.9130 C.3     1  UNL1        0.1676
      8 C          -6.5103    1.0953   -3.0318 C.3     1  UNL1        0.1219
      9 N          -5.4655    0.3628   -2.3001 N.pl3   1  UNL1       -0.2192
     10 C          -4.6324   -0.6409   -2.9130 C.3     1  UNL1        0.0698
     11 C          -3.1671    0.3221   -0.2602 C.ar    1  UNL1       -0.0214
     12 C          -2.2214    0.1832    0.7326 C.ar    1  UNL1        0.0675
     13 N          -0.8850   -0.1509    0.7148 N.ar    1  UNL1       -0.3377
     14 C          -0.3434   -0.1642    1.9197 C.ar    1  UNL1        0.1463
     15 C           0.9622   -0.5340    2.4375 C.ar    1  UNL1        0.1022
     16 C           2.0402   -0.8179    1.6727 C.ar    1  UNL1        0.0446
     17 N           2.1090   -0.4572    0.3248 N.pl3   1  UNL1       -0.3403
     18 C           3.2487   -0.7619   -0.5089 C.3     1  UNL1        0.0393
     19 C           4.3435    0.2558   -0.3422 C.3     1  UNL1        0.0956
     20 O           3.8879    1.5358   -0.7065 O.3     1  UNL1       -0.3856
     21 C           5.5247   -0.0383   -1.1723 C.ar    1  UNL1       -0.0163
     22 C           6.6263   -0.6008   -0.5669 C.ar    1  UNL1       -0.0560
     23 C           7.7669   -0.9012   -1.2742 C.ar    1  UNL1       -0.0600
     24 C           7.8046   -0.6316   -2.6216 C.ar    1  UNL1       -0.0434
     25 C           6.7098   -0.0693   -3.2399 C.ar    1  UNL1        0.0413
     26 CL          6.7272    0.2908   -4.9697 Cl      1  UNL1       -0.0835
     27 C           5.5688    0.2309   -2.5301 C.ar    1  UNL1       -0.0377
     28 C           3.2199   -1.3596    2.2151 C.ar    1  UNL1       -0.0239
     29 C           3.2432   -1.5853    3.5663 C.ar    1  UNL1        0.0067
     30 N           2.1773   -1.3009    4.3492 N.ar    1  UNL1       -0.3284
     31 C           1.0762   -0.7963    3.8216 C.ar    1  UNL1        0.2612
     32 O           0.0802   -0.5270    4.5297 O.2     1  UNL1       -0.2671
     33 N          -1.4008    0.1789    2.7488 N.ar    1  UNL1       -0.2272
     34 C          -2.5088    0.3854    2.0566 C.ar    1  UNL1        0.0924
     35 H          -3.3189    0.6722    4.4537 H       1  UNL1        0.0278
     36 H          -5.0514    0.3929    4.0997 H       1  UNL1        0.0278
     37 H          -4.3523    2.0570    3.9081 H       1  UNL1        0.0278
     38 H          -5.7715    1.1607    1.6358 H       1  UNL1        0.0629
     39 H          -7.8007    2.5420   -2.1101 H       1  UNL1        0.0829
     40 H          -8.3234    0.8206   -1.8666 H       1  UNL1        0.0829
     41 H          -6.9736    0.4877   -3.8086 H       1  UNL1        0.0767
     42 H          -6.0672    1.9929   -3.5166 H       1  UNL1        0.0767
     43 H          -5.2179   -1.1763   -3.7237 H       1  UNL1        0.0689
     44 H          -4.3727   -1.4584   -2.1817 H       1  UNL1        0.0689
     45 H          -3.7515   -0.2421   -3.4479 H       1  UNL1        0.0689
     46 H          -2.8763    0.1539   -1.2722 H       1  UNL1        0.0647
     47 H          -0.4378   -0.4007   -0.2109 H       1  UNL1        0.1674
     48 H           1.3765    0.1005   -0.1250 H       1  UNL1        0.1462
     49 H           2.9585   -0.7396   -1.6056 H       1  UNL1        0.0490
     50 H           3.6474   -1.7744   -0.3436 H       1  UNL1        0.0490
     51 H           4.6623    0.3550    0.7026 H       1  UNL1        0.0659
     52 H           3.3624    1.9317    0.0120 H       1  UNL1        0.2103
     53 H           6.6087   -0.8212    0.5131 H       1  UNL1        0.0621
     54 H           8.6086   -1.3426   -0.7607 H       1  UNL1        0.0618
     55 H           8.7051   -0.8717   -3.1625 H       1  UNL1        0.0632
     56 H           4.7035    0.6711   -3.0021 H       1  UNL1        0.0636
     57 H           4.0610   -1.6105    1.6125 H       1  UNL1        0.0651
     58 H           4.1579   -2.0064    3.9975 H       1  UNL1        0.0808
     59 H           2.2268   -1.4818    5.3714 H       1  UNL1        0.1683
@<TRIPOS>BOND
     1     1     2    1
     2     2     3   ar
     3     3     4   ar
     4     4     5    1
     5     5     6    2
     6     6     7    1
     7     7     8    1
     8     8     9    1
     9     9    10    1
    10     4    11   ar
    11    11    12   ar
    12    12    13   ar
    13    13    14   ar
    14    14    15    1
    15    15    16   ar
    16    16    17    1
    17    17    18    1
    18    18    19    1
    19    19    20    1
    20    19    21    1
    21    21    22   ar
    22    22    23   ar
    23    23    24   ar
    24    24    25   ar
    25    25    26    1
    26    25    27   ar
    27    16    28   ar
    28    28    29   ar
    29    29    30   ar
    30    30    31   ar
    31    31    32    2
    32    14    33   ar
    33    33    34   ar
    34    34     2   ar
    35     9     5    1
    36    34    12   ar
    37    31    15   ar
    38    27    21   ar
    39     1    35    1
    40     1    36    1
    41     1    37    1
    42     3    38    1
    43     7    39    1
    44     7    40    1
    45     8    41    1
    46     8    42    1
    47    10    43    1
    48    10    44    1
    49    10    45    1
    50    11    46    1
    51    13    47    1
    52    17    48    1
    53    18    49    1
    54    18    50    1
    55    19    51    1
    56    20    52    1
    57    22    53    1
    58    23    54    1
    59    24    55    1
    60    27    56    1
    61    28    57    1
    62    29    58    1
    63    30    59    1
