@<TRIPOS>MOLECULE
*****
 50 51 0 0 0
SMALL
GASTEIGER

@<TRIPOS>ATOM
      1 C           1.3192    1.8633    3.3339 C.3     1  UNL1        0.0788
      2 O           1.9697    1.0439    2.4127 O.3     1  UNL1       -0.4947
      3 C           1.3523    0.3351    1.3920 C.ar    1  UNL1        0.1285
      4 C          -0.0230    0.3942    1.2065 C.ar    1  UNL1       -0.0116
      5 C          -0.5945   -0.3161    0.1927 C.ar    1  UNL1       -0.0093
      6 C          -2.0196   -0.3249   -0.0962 C.ar    1  UNL1        0.0019
      7 C          -2.7228   -1.4976   -0.3246 C.ar    1  UNL1        0.0156
      8 N          -4.0392   -1.5271   -0.5882 N.ar    1  UNL1       -0.3174
      9 C          -4.7328   -2.7854   -0.8191 C.3     1  UNL1        0.0147
     10 C          -4.7080   -0.3651   -0.6332 C.ar    1  UNL1        0.2542
     11 O          -5.9502   -0.3894   -0.8816 O.2     1  UNL1       -0.2674
     12 C          -4.0935    0.8456   -0.4196 C.ar    1  UNL1        0.0175
     13 C          -4.8607    2.1190   -0.4760 C.3     1  UNL1       -0.0343
     14 C          -2.7381    0.8439   -0.1506 C.ar    1  UNL1       -0.0333
     15 C          -2.1023    2.1561    0.0698 C.3     1  UNL1       -0.0387
     16 C           0.2284   -1.0772   -0.6212 C.ar    1  UNL1       -0.0116
     17 C           1.6022   -1.1455   -0.4475 C.ar    1  UNL1        0.1285
     18 O           2.3713   -1.9213   -1.2900 O.3     1  UNL1       -0.4947
     19 C           1.7749   -2.6617   -2.3461 C.3     1  UNL1        0.0788
     20 C           2.1610   -0.4317    0.5679 C.ar    1  UNL1        0.0497
     21 C           3.6139   -0.4645    0.8026 C.3     1  UNL1        0.0304
     22 N           4.2643    0.7324    0.3511 N.3     1  UNL1       -0.3039
     23 C           5.7012    0.6054    0.6367 C.3     1  UNL1       -0.0127
     24 C           4.1123    0.8734   -1.0762 C.3     1  UNL1       -0.0127
     25 H           1.0535    1.2823    4.2287 H       1  UNL1        0.0660
     26 H           2.0484    2.6789    3.6122 H       1  UNL1        0.0660
     27 H           0.4395    2.3958    2.8939 H       1  UNL1        0.0660
     28 H          -0.6099    0.9896    1.8591 H       1  UNL1        0.0660
     29 H          -2.1552   -2.4312   -0.2819 H       1  UNL1        0.0816
     30 H          -4.4495   -3.1017   -1.8652 H       1  UNL1        0.0457
     31 H          -4.2898   -3.5355   -0.1518 H       1  UNL1        0.0457
     32 H          -5.8198   -2.6700   -0.6911 H       1  UNL1        0.0457
     33 H          -4.6530    2.7466    0.4195 H       1  UNL1        0.0279
     34 H          -5.9408    1.9178   -0.6191 H       1  UNL1        0.0279
     35 H          -4.5190    2.6475   -1.4105 H       1  UNL1        0.0279
     36 H          -2.3329    2.4706    1.1161 H       1  UNL1        0.0278
     37 H          -2.5922    2.9309   -0.5642 H       1  UNL1        0.0278
     38 H          -1.0383    2.2001   -0.1556 H       1  UNL1        0.0278
     39 H          -0.2162   -1.6560   -1.4433 H       1  UNL1        0.0660
     40 H           2.5352   -3.2776   -2.8312 H       1  UNL1        0.0660
     41 H           0.9848   -3.2939   -1.8724 H       1  UNL1        0.0660
     42 H           1.2704   -1.9354   -3.0027 H       1  UNL1        0.0660
     43 H           4.0756   -1.3383    0.2927 H       1  UNL1        0.0478
     44 H           3.7789   -0.5419    1.9000 H       1  UNL1        0.0478
     45 H           6.1615    1.6254    0.5439 H       1  UNL1        0.0391
     46 H           6.2060   -0.0598   -0.0785 H       1  UNL1        0.0391
     47 H           5.8580    0.2302    1.6690 H       1  UNL1        0.0391
     48 H           3.1087    1.2092   -1.3871 H       1  UNL1        0.0391
     49 H           4.8269    1.6909   -1.3814 H       1  UNL1        0.0391
     50 H           4.3833   -0.0796   -1.5949 H       1  UNL1        0.0391
@<TRIPOS>BOND
     1     1     2    1
     2     2     3    1
     3     3     4   ar
     4     4     5   ar
     5     5     6    1
     6     6     7   ar
     7     7     8   ar
     8     8     9    1
     9     8    10   ar
    10    10    11    2
    11    10    12   ar
    12    12    13    1
    13    12    14   ar
    14    14    15    1
    15     5    16   ar
    16    16    17   ar
    17    17    18    1
    18    18    19    1
    19    17    20   ar
    20    20    21    1
    21    21    22    1
    22    22    23    1
    23    22    24    1
    24    20     3   ar
    25    14     6   ar
    26     1    25    1
    27     1    26    1
    28     1    27    1
    29     4    28    1
    30     7    29    1
    31     9    30    1
    32     9    31    1
    33     9    32    1
    34    13    33    1
    35    13    34    1
    36    13    35    1
    37    15    36    1
    38    15    37    1
    39    15    38    1
    40    16    39    1
    41    19    40    1
    42    19    41    1
    43    19    42    1
    44    21    43    1
    45    21    44    1
    46    23    45    1
    47    23    46    1
    48    23    47    1
    49    24    48    1
    50    24    49    1
    51    24    50    1
