
     RDKit          3D

 50 51  0  0  0  0  0  0  0  0999 V2000
    1.3192    1.8633    3.3339 C   0  0  0  0  0  0  0  0  0  0  0  0
    1.9697    1.0439    2.4127 O   0  0  0  0  0  0  0  0  0  0  0  0
    1.3523    0.3351    1.3920 C   0  0  0  0  0  0  0  0  0  0  0  0
   -0.0230    0.3942    1.2065 C   0  0  0  0  0  0  0  0  0  0  0  0
   -0.5945   -0.3161    0.1927 C   0  0  0  0  0  0  0  0  0  0  0  0
   -2.0196   -0.3249   -0.0962 C   0  0  0  0  0  0  0  0  0  0  0  0
   -2.7228   -1.4976   -0.3246 C   0  0  0  0  0  0  0  0  0  0  0  0
   -4.0392   -1.5271   -0.5882 N   0  0  0  0  0  0  0  0  0  0  0  0
   -4.7328   -2.7854   -0.8191 C   0  0  0  0  0  0  0  0  0  0  0  0
   -4.7080   -0.3651   -0.6332 C   0  0  0  0  0  0  0  0  0  0  0  0
   -5.9502   -0.3894   -0.8816 O   0  0  0  0  0  0  0  0  0  0  0  0
   -4.0935    0.8456   -0.4196 C   0  0  0  0  0  0  0  0  0  0  0  0
   -4.8607    2.1190   -0.4760 C   0  0  0  0  0  0  0  0  0  0  0  0
   -2.7381    0.8439   -0.1506 C   0  0  0  0  0  0  0  0  0  0  0  0
   -2.1023    2.1561    0.0698 C   0  0  0  0  0  0  0  0  0  0  0  0
    0.2284   -1.0772   -0.6212 C   0  0  0  0  0  0  0  0  0  0  0  0
    1.6022   -1.1455   -0.4475 C   0  0  0  0  0  0  0  0  0  0  0  0
    2.3713   -1.9213   -1.2900 O   0  0  0  0  0  0  0  0  0  0  0  0
    1.7749   -2.6617   -2.3461 C   0  0  0  0  0  0  0  0  0  0  0  0
    2.1610   -0.4317    0.5679 C   0  0  0  0  0  0  0  0  0  0  0  0
    3.6139   -0.4645    0.8026 C   0  0  0  0  0  0  0  0  0  0  0  0
    4.2643    0.7324    0.3511 N   0  0  0  0  0  0  0  0  0  0  0  0
    5.7012    0.6054    0.6367 C   0  0  0  0  0  0  0  0  0  0  0  0
    4.1123    0.8734   -1.0762 C   0  0  0  0  0  0  0  0  0  0  0  0
    1.0535    1.2823    4.2287 H   0  0  0  0  0  0  0  0  0  0  0  0
    2.0484    2.6789    3.6122 H   0  0  0  0  0  0  0  0  0  0  0  0
    0.4395    2.3958    2.8939 H   0  0  0  0  0  0  0  0  0  0  0  0
   -0.6099    0.9896    1.8591 H   0  0  0  0  0  0  0  0  0  0  0  0
   -2.1552   -2.4312   -0.2819 H   0  0  0  0  0  0  0  0  0  0  0  0
   -4.4495   -3.1017   -1.8652 H   0  0  0  0  0  0  0  0  0  0  0  0
   -4.2898   -3.5355   -0.1518 H   0  0  0  0  0  0  0  0  0  0  0  0
   -5.8198   -2.6700   -0.6911 H   0  0  0  0  0  0  0  0  0  0  0  0
   -4.6530    2.7466    0.4195 H   0  0  0  0  0  0  0  0  0  0  0  0
   -5.9408    1.9178   -0.6191 H   0  0  0  0  0  0  0  0  0  0  0  0
   -4.5190    2.6475   -1.4105 H   0  0  0  0  0  0  0  0  0  0  0  0
   -2.3329    2.4706    1.1161 H   0  0  0  0  0  0  0  0  0  0  0  0
   -2.5922    2.9309   -0.5642 H   0  0  0  0  0  0  0  0  0  0  0  0
   -1.0383    2.2001   -0.1556 H   0  0  0  0  0  0  0  0  0  0  0  0
   -0.2162   -1.6560   -1.4433 H   0  0  0  0  0  0  0  0  0  0  0  0
    2.5352   -3.2776   -2.8312 H   0  0  0  0  0  0  0  0  0  0  0  0
    0.9848   -3.2939   -1.8724 H   0  0  0  0  0  0  0  0  0  0  0  0
    1.2704   -1.9354   -3.0027 H   0  0  0  0  0  0  0  0  0  0  0  0
    4.0756   -1.3383    0.2927 H   0  0  0  0  0  0  0  0  0  0  0  0
    3.7789   -0.5419    1.9000 H   0  0  0  0  0  0  0  0  0  0  0  0
    6.1615    1.6254    0.5439 H   0  0  0  0  0  0  0  0  0  0  0  0
    6.2060   -0.0598   -0.0785 H   0  0  0  0  0  0  0  0  0  0  0  0
    5.8580    0.2302    1.6690 H   0  0  0  0  0  0  0  0  0  0  0  0
    3.1087    1.2092   -1.3871 H   0  0  0  0  0  0  0  0  0  0  0  0
    4.8269    1.6909   -1.3814 H   0  0  0  0  0  0  0  0  0  0  0  0
    4.3833   -0.0796   -1.5949 H   0  0  0  0  0  0  0  0  0  0  0  0
  1  2  1  0
  2  3  1  0
  3  4  2  0
  4  5  1  0
  5  6  1  0
  6  7  2  0
  7  8  1  0
  8  9  1  0
  8 10  1  0
 10 11  2  0
 10 12  1  0
 12 13  1  0
 12 14  2  0
 14 15  1  0
  5 16  2  0
 16 17  1  0
 17 18  1  0
 18 19  1  0
 17 20  2  0
 20 21  1  0
 21 22  1  0
 22 23  1  0
 22 24  1  0
 20  3  1  0
 14  6  1  0
  1 25  1  0
  1 26  1  0
  1 27  1  0
  4 28  1  0
  7 29  1  0
  9 30  1  0
  9 31  1  0
  9 32  1  0
 13 33  1  0
 13 34  1  0
 13 35  1  0
 15 36  1  0
 15 37  1  0
 15 38  1  0
 16 39  1  0
 19 40  1  0
 19 41  1  0
 19 42  1  0
 21 43  1  0
 21 44  1  0
 23 45  1  0
 23 46  1  0
 23 47  1  0
 24 48  1  0
 24 49  1  0
 24 50  1  0
M  END
$$$$
