@<TRIPOS>MOLECULE
*****
 63 69 0 0 0
SMALL
GASTEIGER

@<TRIPOS>ATOM
      1 C          -5.4035    3.7464    1.2971 C.3     1  UNL1       -0.0455
      2 C          -4.3508    3.1763    2.2107 C.3     1  UNL1        0.0387
      3 N          -3.2356    2.6515    1.4547 N.ar    1  UNL1       -0.2714
      4 C          -3.1209    1.3912    0.9999 C.ar    1  UNL1        0.0313
      5 C          -1.9201    1.2885    0.3297 C.ar    1  UNL1        0.0249
      6 C          -1.3042    0.1466   -0.3555 C.3     1  UNL1        0.1671
      7 C          -2.2059   -0.1835   -1.5118 C.ar    1  UNL1        0.2492
      8 N          -2.8932   -1.3299   -1.6513 N.ar    1  UNL1       -0.1295
      9 N          -3.5833   -1.3074   -2.7642 N.ar    1  UNL1       -0.1979
     10 C          -4.4605   -2.3655   -3.2790 C.3     1  UNL1        0.0370
     11 C          -3.3245   -0.1086   -3.3471 C.ar    1  UNL1        0.4379
     12 O          -3.8212    0.2644   -4.4431 O.2     1  UNL1       -0.2211
     13 O          -2.4956    0.5247   -2.5577 O.2     1  UNL1       -0.3896
     14 N          -0.0525    0.5209   -0.9085 N.3     1  UNL1       -0.2847
     15 C           1.0436   -0.3664   -0.7043 C.3     1  UNL1        0.0714
     16 C           2.3152    0.2662   -1.1265 C.ar    1  UNL1        0.1253
     17 N           3.4623    0.2448   -0.4350 N.ar    1  UNL1       -0.2294
     18 C           4.4294    0.9068   -1.0897 C.ar    1  UNL1        0.1070
     19 C           5.8168    1.1212   -0.6893 C.ar    1  UNL1        0.0908
     20 C           6.6760    1.8324   -1.4969 C.ar    1  UNL1       -0.0314
     21 C           7.9749    2.0267   -1.1090 C.ar    1  UNL1       -0.0229
     22 C           8.4251    1.5140    0.0850 C.ar    1  UNL1        0.1414
     23 F           9.7153    1.6896    0.5018 F       1  UNL1       -0.2039
     24 C           7.5610    0.8037    0.8885 C.ar    1  UNL1        0.0635
     25 N           6.3079    0.6410    0.4688 N.ar    1  UNL1       -0.2505
     26 C           3.8447    1.3618   -2.2503 C.ar    1  UNL1        0.0308
     27 N           2.5413    0.9629   -2.2656 N.ar    1  UNL1       -0.3464
     28 C           1.1771   -0.7561    0.7521 C.3     1  UNL1       -0.0028
     29 C          -0.0491   -1.5129    1.0767 C.ar    1  UNL1       -0.0146
     30 C          -1.2216   -1.0556    0.5304 C.ar    1  UNL1        0.0546
     31 N          -2.1959   -1.8974    0.9594 N.ar    1  UNL1       -0.3556
     32 C          -1.6694   -2.8485    1.7437 C.ar    1  UNL1        0.0470
     33 C          -2.1850   -3.9282    2.4280 C.ar    1  UNL1       -0.0378
     34 C          -1.4124   -4.7766    3.1823 C.ar    1  UNL1       -0.0598
     35 C          -0.0537   -4.5530    3.2710 C.ar    1  UNL1       -0.0611
     36 C           0.4945   -3.4834    2.6001 C.ar    1  UNL1       -0.0523
     37 C          -0.3012   -2.6259    1.8347 C.ar    1  UNL1        0.0032
     38 C          -1.3520    2.5422    0.4198 C.ar    1  UNL1        0.0552
     39 N          -2.1652    3.3536    1.1054 N.ar    1  UNL1       -0.1793
     40 H          -5.1202    4.7861    0.9665 H       1  UNL1        0.0247
     41 H          -5.5683    3.1468    0.3792 H       1  UNL1        0.0247
     42 H          -6.3688    3.8353    1.8022 H       1  UNL1        0.0247
     43 H          -4.0303    4.0146    2.8793 H       1  UNL1        0.0506
     44 H          -4.8255    2.3643    2.8023 H       1  UNL1        0.0506
     45 H          -3.8107    0.5775    1.1122 H       1  UNL1        0.0830
     46 H          -4.6068   -3.0920   -2.4599 H       1  UNL1        0.0475
     47 H          -5.4101   -1.9768   -3.6554 H       1  UNL1        0.0475
     48 H          -3.8751   -2.9246   -4.0656 H       1  UNL1        0.0475
     49 H          -0.0756    0.9104   -1.8528 H       1  UNL1        0.1242
     50 H           0.9062   -1.3020   -1.2865 H       1  UNL1        0.0544
     51 H           6.2854    2.2265   -2.4405 H       1  UNL1        0.0640
     52 H           8.6289    2.5863   -1.7571 H       1  UNL1        0.0647
     53 H           7.9198    0.4051    1.8217 H       1  UNL1        0.0859
     54 H           4.3533    1.9365   -3.0075 H       1  UNL1        0.0829
     55 H           1.8609    1.1669   -3.0243 H       1  UNL1        0.1666
     56 H           2.0925   -1.3787    0.8229 H       1  UNL1        0.0333
     57 H           1.2558    0.1119    1.4241 H       1  UNL1        0.0333
     58 H          -3.2144   -1.8321    0.7247 H       1  UNL1        0.1657
     59 H          -3.2558   -4.1572    2.3967 H       1  UNL1        0.0638
     60 H          -1.8360   -5.6299    3.7200 H       1  UNL1        0.0618
     61 H           0.5340   -5.2291    3.8666 H       1  UNL1        0.0618
     62 H           1.5434   -3.3027    2.6624 H       1  UNL1        0.0624
     63 H          -0.3908    2.8785    0.0141 H       1  UNL1        0.0851
@<TRIPOS>BOND
     1     1     2    1
     2     2     3    1
     3     3     4   ar
     4     4     5   ar
     5     6     5    1
     6     6     7    1
     7     7     8   ar
     8     8     9   ar
     9     9    10    1
    10     9    11   ar
    11    11    12    2
    12    11    13   ar
    13     6    14    1
    14    14    15    1
    15    15    16    1
    16    16    17   ar
    17    17    18   ar
    18    18    19    1
    19    19    20   ar
    20    20    21   ar
    21    21    22   ar
    22    22    23    1
    23    22    24   ar
    24    24    25   ar
    25    18    26   ar
    26    26    27   ar
    27    15    28    1
    28    28    29    1
    29    29    30   ar
    30    30    31   ar
    31    31    32   ar
    32    32    33   ar
    33    33    34   ar
    34    34    35   ar
    35    35    36   ar
    36    36    37   ar
    37     5    38   ar
    38    38    39   ar
    39    39     3   ar
    40    30     6    1
    41    37    32   ar
    42    13     7   ar
    43    27    16   ar
    44    37    29   ar
    45    25    19   ar
    46     1    40    1
    47     1    41    1
    48     1    42    1
    49     2    43    1
    50     2    44    1
    51     4    45    1
    52    10    46    1
    53    10    47    1
    54    10    48    1
    55    14    49    1
    56    15    50    1
    57    20    51    1
    58    21    52    1
    59    24    53    1
    60    26    54    1
    61    27    55    1
    62    28    56    1
    63    28    57    1
    64    31    58    1
    65    33    59    1
    66    34    60    1
    67    35    61    1
    68    36    62    1
    69    38    63    1
