
     RDKit          3D

 63 69  0  0  0  0  0  0  0  0999 V2000
   -5.4035    3.7464    1.2971 C   0  0  0  0  0  0  0  0  0  0  0  0
   -4.3508    3.1763    2.2107 C   0  0  0  0  0  0  0  0  0  0  0  0
   -3.2356    2.6515    1.4547 N   0  0  0  0  0  0  0  0  0  0  0  0
   -3.1209    1.3912    0.9999 C   0  0  0  0  0  0  0  0  0  0  0  0
   -1.9201    1.2885    0.3297 C   0  0  0  0  0  0  0  0  0  0  0  0
   -1.3042    0.1466   -0.3555 C   0  0  1  0  0  0  0  0  0  0  0  0
   -2.2059   -0.1835   -1.5118 C   0  0  0  0  0  0  0  0  0  0  0  0
   -2.8932   -1.3299   -1.6513 N   0  0  0  0  0  0  0  0  0  0  0  0
   -3.5833   -1.3074   -2.7642 N   0  0  0  0  0  0  0  0  0  0  0  0
   -4.4605   -2.3655   -3.2790 C   0  0  0  0  0  0  0  0  0  0  0  0
   -3.3245   -0.1086   -3.3471 C   0  0  0  0  0  0  0  0  0  0  0  0
   -3.8212    0.2644   -4.4431 O   0  0  0  0  0  0  0  0  0  0  0  0
   -2.4956    0.5247   -2.5577 O   0  0  0  0  0  0  0  0  0  0  0  0
   -0.0525    0.5209   -0.9085 N   0  0  0  0  0  0  0  0  0  0  0  0
    1.0436   -0.3664   -0.7043 C   0  0  1  0  0  0  0  0  0  0  0  0
    2.3152    0.2662   -1.1265 C   0  0  0  0  0  0  0  0  0  0  0  0
    3.4623    0.2448   -0.4350 N   0  0  0  0  0  0  0  0  0  0  0  0
    4.4294    0.9068   -1.0897 C   0  0  0  0  0  0  0  0  0  0  0  0
    5.8168    1.1212   -0.6893 C   0  0  0  0  0  0  0  0  0  0  0  0
    6.6760    1.8324   -1.4969 C   0  0  0  0  0  0  0  0  0  0  0  0
    7.9749    2.0267   -1.1090 C   0  0  0  0  0  0  0  0  0  0  0  0
    8.4251    1.5140    0.0850 C   0  0  0  0  0  0  0  0  0  0  0  0
    9.7153    1.6896    0.5018 F   0  0  0  0  0  0  0  0  0  0  0  0
    7.5610    0.8037    0.8885 C   0  0  0  0  0  0  0  0  0  0  0  0
    6.3079    0.6410    0.4688 N   0  0  0  0  0  0  0  0  0  0  0  0
    3.8447    1.3618   -2.2503 C   0  0  0  0  0  0  0  0  0  0  0  0
    2.5413    0.9629   -2.2656 N   0  0  0  0  0  0  0  0  0  0  0  0
    1.1771   -0.7561    0.7521 C   0  0  0  0  0  0  0  0  0  0  0  0
   -0.0491   -1.5129    1.0767 C   0  0  0  0  0  0  0  0  0  0  0  0
   -1.2216   -1.0556    0.5304 C   0  0  0  0  0  0  0  0  0  0  0  0
   -2.1959   -1.8974    0.9594 N   0  0  0  0  0  0  0  0  0  0  0  0
   -1.6694   -2.8485    1.7437 C   0  0  0  0  0  0  0  0  0  0  0  0
   -2.1850   -3.9282    2.4280 C   0  0  0  0  0  0  0  0  0  0  0  0
   -1.4124   -4.7766    3.1823 C   0  0  0  0  0  0  0  0  0  0  0  0
   -0.0537   -4.5530    3.2710 C   0  0  0  0  0  0  0  0  0  0  0  0
    0.4945   -3.4834    2.6001 C   0  0  0  0  0  0  0  0  0  0  0  0
   -0.3012   -2.6259    1.8347 C   0  0  0  0  0  0  0  0  0  0  0  0
   -1.3520    2.5422    0.4198 C   0  0  0  0  0  0  0  0  0  0  0  0
   -2.1652    3.3536    1.1054 N   0  0  0  0  0  0  0  0  0  0  0  0
   -5.1202    4.7861    0.9665 H   0  0  0  0  0  0  0  0  0  0  0  0
   -5.5683    3.1468    0.3792 H   0  0  0  0  0  0  0  0  0  0  0  0
   -6.3688    3.8353    1.8022 H   0  0  0  0  0  0  0  0  0  0  0  0
   -4.0303    4.0146    2.8793 H   0  0  0  0  0  0  0  0  0  0  0  0
   -4.8255    2.3643    2.8023 H   0  0  0  0  0  0  0  0  0  0  0  0
   -3.8107    0.5775    1.1122 H   0  0  0  0  0  0  0  0  0  0  0  0
   -4.6068   -3.0920   -2.4599 H   0  0  0  0  0  0  0  0  0  0  0  0
   -5.4101   -1.9768   -3.6554 H   0  0  0  0  0  0  0  0  0  0  0  0
   -3.8751   -2.9246   -4.0656 H   0  0  0  0  0  0  0  0  0  0  0  0
   -0.0756    0.9104   -1.8528 H   0  0  0  0  0  0  0  0  0  0  0  0
    0.9062   -1.3020   -1.2865 H   0  0  0  0  0  0  0  0  0  0  0  0
    6.2854    2.2265   -2.4405 H   0  0  0  0  0  0  0  0  0  0  0  0
    8.6289    2.5863   -1.7571 H   0  0  0  0  0  0  0  0  0  0  0  0
    7.9198    0.4051    1.8217 H   0  0  0  0  0  0  0  0  0  0  0  0
    4.3533    1.9365   -3.0075 H   0  0  0  0  0  0  0  0  0  0  0  0
    1.8609    1.1669   -3.0243 H   0  0  0  0  0  0  0  0  0  0  0  0
    2.0925   -1.3787    0.8229 H   0  0  0  0  0  0  0  0  0  0  0  0
    1.2558    0.1119    1.4241 H   0  0  0  0  0  0  0  0  0  0  0  0
   -3.2144   -1.8321    0.7247 H   0  0  0  0  0  0  0  0  0  0  0  0
   -3.2558   -4.1572    2.3967 H   0  0  0  0  0  0  0  0  0  0  0  0
   -1.8360   -5.6299    3.7200 H   0  0  0  0  0  0  0  0  0  0  0  0
    0.5340   -5.2291    3.8666 H   0  0  0  0  0  0  0  0  0  0  0  0
    1.5434   -3.3027    2.6624 H   0  0  0  0  0  0  0  0  0  0  0  0
   -0.3908    2.8785    0.0141 H   0  0  0  0  0  0  0  0  0  0  0  0
  1  2  1  0
  2  3  1  0
  3  4  1  0
  4  5  2  0
  6  5  1  1
  6  7  1  0
  7  8  2  0
  8  9  1  0
  9 10  1  0
  9 11  1  0
 11 12  2  0
 11 13  1  0
  6 14  1  0
 14 15  1  0
 15 16  1  0
 16 17  2  0
 17 18  1  0
 18 19  1  0
 19 20  2  0
 20 21  1  0
 21 22  2  0
 22 23  1  0
 22 24  1  0
 24 25  2  0
 18 26  2  0
 26 27  1  0
 15 28  1  0
 28 29  1  0
 29 30  2  0
 30 31  1  0
 31 32  1  0
 32 33  2  0
 33 34  1  0
 34 35  2  0
 35 36  1  0
 36 37  2  0
  5 38  1  0
 38 39  2  0
 39  3  1  0
 30  6  1  0
 37 32  1  0
 13  7  1  0
 27 16  1  0
 37 29  1  0
 25 19  1  0
  1 40  1  0
  1 41  1  0
  1 42  1  0
  2 43  1  0
  2 44  1  0
  4 45  1  0
 10 46  1  0
 10 47  1  0
 10 48  1  0
 14 49  1  0
 15 50  1  6
 20 51  1  0
 21 52  1  0
 24 53  1  0
 26 54  1  0
 27 55  1  0
 28 56  1  0
 28 57  1  0
 31 58  1  0
 33 59  1  0
 34 60  1  0
 35 61  1  0
 36 62  1  0
 38 63  1  0
M  END
$$$$
