
     RDKit          3D

 47 49  0  0  0  0  0  0  0  0999 V2000
   -4.6852   -1.7497    1.5865 O   0  0  0  0  0  0  0  0  0  0  0  0
   -5.6105   -1.2750    0.4822 P   0  0  0  0  0  5  0  0  0  0  0  0
   -7.1800   -1.0810    1.1016 O   0  0  0  0  0  0  0  0  0  0  0  0
   -5.7044   -2.3990   -0.7724 O   0  0  0  0  0  0  0  0  0  0  0  0
   -5.0718    0.3278   -0.1645 C   0  0  0  0  0  0  0  0  0  0  0  0
   -3.6857    0.5822    0.0939 N   0  0  0  0  0  0  0  0  0  0  0  0
   -2.6971   -0.2857   -0.4155 C   0  0  0  0  0  0  0  0  0  0  0  0
   -1.3435   -0.0396   -0.1644 C   0  0  0  0  0  0  0  0  0  0  0  0
   -0.4052   -0.9051   -0.6756 C   0  0  0  0  0  0  0  0  0  0  0  0
    1.0198   -0.7004   -0.4465 C   0  0  0  0  0  0  0  0  0  0  0  0
    1.5223    0.5744   -0.3240 C   0  0  0  0  0  0  0  0  0  0  0  0
    2.8875    0.8134   -0.1030 C   0  0  0  0  0  0  0  0  0  0  0  0
    3.7611   -0.2297   -0.0032 C   0  0  0  0  0  0  0  0  0  0  0  0
    5.0914   -0.0433    0.2106 O   0  0  0  0  0  0  0  0  0  0  0  0
    5.7017    1.1842    0.3500 C   0  0  0  0  0  0  0  0  0  0  0  0
    7.0058    1.2356   -0.4776 C   0  0  0  0  0  0  0  0  0  0  0  0
    7.6298    0.4070    0.6266 C   0  0  0  0  0  0  0  0  0  0  0  0
    6.6503    1.1131    1.5669 C   0  0  0  0  0  0  0  0  0  0  0  0
    3.2436   -1.5280   -0.1289 C   0  0  0  0  0  0  0  0  0  0  0  0
    1.9033   -1.7489   -0.3453 C   0  0  0  0  0  0  0  0  0  0  0  0
   -0.8394   -1.9806   -1.4153 C   0  0  0  0  0  0  0  0  0  0  0  0
   -2.1992   -2.2020   -1.6504 C   0  0  0  0  0  0  0  0  0  0  0  0
   -3.0765   -1.3484   -1.1430 N   0  0  0  0  0  0  0  0  0  0  0  0
   -6.0758    1.6842    0.4937 P   0  0  0  0  0  5  0  0  0  0  0  0
   -7.5251    1.5329    0.0868 O   0  0  0  0  0  0  0  0  0  0  0  0
   -6.0073    1.7663    2.1653 O   0  0  0  0  0  0  0  0  0  0  0  0
   -5.4190    3.1296   -0.1214 O   0  0  0  0  0  0  0  0  0  0  0  0
   -7.7052   -1.8939    0.9792 H   0  0  0  0  0  0  0  0  0  0  0  0
   -5.9017   -1.9817   -1.6294 H   0  0  0  0  0  0  0  0  0  0  0  0
   -5.2071    0.3477   -1.2746 H   0  0  0  0  0  0  0  0  0  0  0  0
   -3.3865    1.4230    0.6690 H   0  0  0  0  0  0  0  0  0  0  0  0
   -1.0855    0.8212    0.4216 H   0  0  0  0  0  0  0  0  0  0  0  0
    0.9008    1.4498   -0.3904 H   0  0  0  0  0  0  0  0  0  0  0  0
    3.2210    1.8614   -0.0148 H   0  0  0  0  0  0  0  0  0  0  0  0
    5.1339    2.1104    0.3004 H   0  0  0  0  0  0  0  0  0  0  0  0
    7.3191    2.2812   -0.5354 H   0  0  0  0  0  0  0  0  0  0  0  0
    6.9065    0.7271   -1.4544 H   0  0  0  0  0  0  0  0  0  0  0  0
    7.3844   -0.6617    0.4549 H   0  0  0  0  0  0  0  0  0  0  0  0
    8.6858    0.6264    0.8389 H   0  0  0  0  0  0  0  0  0  0  0  0
    6.2552    0.4886    2.3773 H   0  0  0  0  0  0  0  0  0  0  0  0
    7.0178    2.1060    1.8315 H   0  0  0  0  0  0  0  0  0  0  0  0
    3.8859   -2.3950   -0.0589 H   0  0  0  0  0  0  0  0  0  0  0  0
    1.4928   -2.7566   -0.4442 H   0  0  0  0  0  0  0  0  0  0  0  0
   -0.0832   -2.6503   -1.8089 H   0  0  0  0  0  0  0  0  0  0  0  0
   -2.5076   -3.0556   -2.2351 H   0  0  0  0  0  0  0  0  0  0  0  0
   -5.4245    1.0751    2.5770 H   0  0  0  0  0  0  0  0  0  0  0  0
   -5.7928    3.2731   -1.0168 H   0  0  0  0  0  0  0  0  0  0  0  0
  1  2  2  0
  2  3  1  0
  2  4  1  0
  2  5  1  0
  5  6  1  0
  6  7  1  0
  7  8  2  0
  8  9  1  0
  9 10  1  0
 10 11  2  0
 11 12  1  0
 12 13  2  0
 13 14  1  0
 14 15  1  0
 15 16  1  0
 16 17  1  0
 17 18  1  0
 13 19  1  0
 19 20  2  0
  9 21  2  0
 21 22  1  0
 22 23  2  0
  5 24  1  0
 24 25  2  0
 24 26  1  0
 24 27  1  0
 23  7  1  0
 20 10  1  0
 18 15  1  0
  3 28  1  0
  4 29  1  0
  5 30  1  0
  6 31  1  0
  8 32  1  0
 11 33  1  0
 12 34  1  0
 15 35  1  0
 16 36  1  0
 16 37  1  0
 17 38  1  0
 17 39  1  0
 18 40  1  0
 18 41  1  0
 19 42  1  0
 20 43  1  0
 21 44  1  0
 22 45  1  0
 26 46  1  0
 27 47  1  0
M  END
$$$$
