@<TRIPOS>MOLECULE
*****
 47 49 0 0 0
SMALL
GASTEIGER

@<TRIPOS>ATOM
      1 O          -4.6852   -1.7497    1.5865 O.2     1  UNL1       -0.2562
      2 P          -5.6105   -1.2750    0.4822 P.3     1  UNL1        0.3597
      3 O          -7.1800   -1.0810    1.1016 O.3     1  UNL1       -0.3224
      4 O          -5.7044   -2.3990   -0.7724 O.3     1  UNL1       -0.3224
      5 C          -5.0718    0.3278   -0.1645 C.3     1  UNL1        0.2255
      6 N          -3.6857    0.5822    0.0939 N.pl3   1  UNL1       -0.3062
      7 C          -2.6971   -0.2857   -0.4155 C.ar    1  UNL1        0.1203
      8 C          -1.3435   -0.0396   -0.1644 C.ar    1  UNL1       -0.0142
      9 C          -0.4052   -0.9051   -0.6756 C.ar    1  UNL1       -0.0132
     10 C           1.0198   -0.7004   -0.4465 C.ar    1  UNL1       -0.0175
     11 C           1.5223    0.5744   -0.3240 C.ar    1  UNL1       -0.0506
     12 C           2.8875    0.8134   -0.1030 C.ar    1  UNL1       -0.0194
     13 C           3.7611   -0.2297   -0.0032 C.ar    1  UNL1        0.1209
     14 O           5.0914   -0.0433    0.2106 O.3     1  UNL1       -0.4888
     15 C           5.7017    1.1842    0.3500 C.3     1  UNL1        0.1002
     16 C           7.0058    1.2356   -0.4776 C.3     1  UNL1       -0.0157
     17 C           7.6298    0.4070    0.6266 C.3     1  UNL1       -0.0464
     18 C           6.6503    1.1131    1.5669 C.3     1  UNL1       -0.0157
     19 C           3.2436   -1.5280   -0.1289 C.ar    1  UNL1       -0.0194
     20 C           1.9033   -1.7489   -0.3453 C.ar    1  UNL1       -0.0506
     21 C          -0.8394   -1.9806   -1.4153 C.ar    1  UNL1       -0.0357
     22 C          -2.1992   -2.2020   -1.6504 C.ar    1  UNL1        0.0303
     23 N          -3.0765   -1.3484   -1.1430 N.ar    1  UNL1       -0.2405
     24 P          -6.0758    1.6842    0.4937 P.3     1  UNL1        0.3597
     25 O          -7.5251    1.5329    0.0868 O.2     1  UNL1       -0.2562
     26 O          -6.0073    1.7663    2.1653 O.3     1  UNL1       -0.3224
     27 O          -5.4190    3.1296   -0.1214 O.3     1  UNL1       -0.3224
     28 H          -7.7052   -1.8939    0.9792 H       1  UNL1        0.2198
     29 H          -5.9017   -1.9817   -1.6294 H       1  UNL1        0.2198
     30 H          -5.2071    0.3477   -1.2746 H       1  UNL1        0.0754
     31 H          -3.3865    1.4230    0.6690 H       1  UNL1        0.1489
     32 H          -1.0855    0.8212    0.4216 H       1  UNL1        0.0658
     33 H           0.9008    1.4498   -0.3904 H       1  UNL1        0.0625
     34 H           3.2210    1.8614   -0.0148 H       1  UNL1        0.0654
     35 H           5.1339    2.1104    0.3004 H       1  UNL1        0.0733
     36 H           7.3191    2.2812   -0.5354 H       1  UNL1        0.0301
     37 H           6.9065    0.7271   -1.4544 H       1  UNL1        0.0301
     38 H           7.3844   -0.6617    0.4549 H       1  UNL1        0.0268
     39 H           8.6858    0.6264    0.8389 H       1  UNL1        0.0268
     40 H           6.2552    0.4886    2.3773 H       1  UNL1        0.0301
     41 H           7.0178    2.1060    1.8315 H       1  UNL1        0.0301
     42 H           3.8859   -2.3950   -0.0589 H       1  UNL1        0.0654
     43 H           1.4928   -2.7566   -0.4442 H       1  UNL1        0.0625
     44 H          -0.0832   -2.6503   -1.8089 H       1  UNL1        0.0639
     45 H          -2.5076   -3.0556   -2.2351 H       1  UNL1        0.0830
     46 H          -5.4245    1.0751    2.5770 H       1  UNL1        0.2198
     47 H          -5.7928    3.2731   -1.0168 H       1  UNL1        0.2198
@<TRIPOS>BOND
     1     1     2    2
     2     2     3    1
     3     2     4    1
     4     2     5    1
     5     5     6    1
     6     6     7    1
     7     7     8   ar
     8     8     9   ar
     9     9    10    1
    10    10    11   ar
    11    11    12   ar
    12    12    13   ar
    13    13    14    1
    14    14    15    1
    15    15    16    1
    16    16    17    1
    17    17    18    1
    18    13    19   ar
    19    19    20   ar
    20     9    21   ar
    21    21    22   ar
    22    22    23   ar
    23     5    24    1
    24    24    25    2
    25    24    26    1
    26    24    27    1
    27    23     7   ar
    28    20    10   ar
    29    18    15    1
    30     3    28    1
    31     4    29    1
    32     5    30    1
    33     6    31    1
    34     8    32    1
    35    11    33    1
    36    12    34    1
    37    15    35    1
    38    16    36    1
    39    16    37    1
    40    17    38    1
    41    17    39    1
    42    18    40    1
    43    18    41    1
    44    19    42    1
    45    20    43    1
    46    21    44    1
    47    22    45    1
    48    26    46    1
    49    27    47    1
