
     RDKit          3D

 46 48  0  0  0  0  0  0  0  0999 V2000
    7.8581    1.0670   -0.3261 C   0  0  0  0  0  0  0  0  0  0  0  0
    6.9144    0.0832   -0.6066 O   0  0  0  0  0  0  0  0  0  0  0  0
    5.5592    0.2004   -0.4601 C   0  0  0  0  0  0  0  0  0  0  0  0
    4.9687    1.3518   -0.0011 C   0  0  0  0  0  0  0  0  0  0  0  0
    3.5987    1.4082    0.1247 C   0  0  0  0  0  0  0  0  0  0  0  0
    2.7563    0.3409   -0.1937 C   0  0  0  0  0  0  0  0  0  0  0  0
    1.3907    0.4632   -0.0440 C   0  0  0  0  0  0  0  0  0  0  0  0
    0.5852   -0.6323   -0.3751 C   0  0  0  0  0  0  0  0  0  0  0  0
   -0.8725   -0.5351   -0.2617 C   0  0  0  0  0  0  0  0  0  0  0  0
   -1.6595    0.4297   -0.7998 N   0  0  0  0  0  0  0  0  0  0  0  0
   -2.9190    0.2338   -0.4978 N   0  0  0  0  0  0  0  0  0  0  0  0
   -4.0864    1.0316   -0.8733 C   0  0  0  0  0  0  0  0  0  0  0  0
   -4.8944    1.4415    0.3358 C   0  0  0  0  0  0  0  0  0  0  0  0
   -3.6141    2.3009   -1.5496 C   0  0  0  0  0  0  0  0  0  0  0  0
   -4.9633    0.3006   -1.8638 C   0  0  0  0  0  0  0  0  0  0  0  0
   -3.0264   -0.8758    0.2594 C   0  0  0  0  0  0  0  0  0  0  0  0
   -4.1913   -1.4633    0.8100 N   0  0  0  0  0  0  0  0  0  0  0  0
   -1.7227   -1.3756    0.4179 C   0  0  0  0  0  0  0  0  0  0  0  0
   -1.3959   -2.5629    1.1934 C   0  0  0  0  0  0  0  0  0  0  0  0
   -0.1050   -3.0523    1.4315 N   0  0  0  0  0  0  0  0  0  0  0  0
   -2.3461   -3.2386    1.7180 O   0  0  0  0  0  0  0  0  0  0  0  0
    1.2286   -1.7540   -0.8288 C   0  0  0  0  0  0  0  0  0  0  0  0
    2.5781   -1.8396   -0.9634 N   0  0  0  0  0  0  0  0  0  0  0  0
    3.3536   -0.8112   -0.6534 C   0  0  0  0  0  0  0  0  0  0  0  0
    4.7439   -0.8633   -0.7793 C   0  0  0  0  0  0  0  0  0  0  0  0
    7.5568    1.8154    0.4118 H   0  0  0  0  0  0  0  0  0  0  0  0
    8.1752    1.5243   -1.3049 H   0  0  0  0  0  0  0  0  0  0  0  0
    8.7824    0.5409    0.0414 H   0  0  0  0  0  0  0  0  0  0  0  0
    5.5656    2.2356    0.2702 H   0  0  0  0  0  0  0  0  0  0  0  0
    3.1160    2.3023    0.4829 H   0  0  0  0  0  0  0  0  0  0  0  0
    0.9415    1.3598    0.3128 H   0  0  0  0  0  0  0  0  0  0  0  0
   -4.2523    1.2377    1.2253 H   0  0  0  0  0  0  0  0  0  0  0  0
   -5.0923    2.5380    0.3546 H   0  0  0  0  0  0  0  0  0  0  0  0
   -5.8237    0.8517    0.4514 H   0  0  0  0  0  0  0  0  0  0  0  0
   -2.8271    2.8175   -0.9827 H   0  0  0  0  0  0  0  0  0  0  0  0
   -3.1820    2.0163   -2.5319 H   0  0  0  0  0  0  0  0  0  0  0  0
   -4.4905    2.9259   -1.7235 H   0  0  0  0  0  0  0  0  0  0  0  0
   -5.9683    0.7611   -1.8098 H   0  0  0  0  0  0  0  0  0  0  0  0
   -5.0072   -0.7805   -1.6714 H   0  0  0  0  0  0  0  0  0  0  0  0
   -4.5757    0.5234   -2.8889 H   0  0  0  0  0  0  0  0  0  0  0  0
   -4.6428   -2.2624    0.3380 H   0  0  0  0  0  0  0  0  0  0  0  0
   -4.5973   -1.0987    1.6848 H   0  0  0  0  0  0  0  0  0  0  0  0
    0.1315   -4.0177    1.0776 H   0  0  0  0  0  0  0  0  0  0  0  0
    0.6392   -2.5001    1.9474 H   0  0  0  0  0  0  0  0  0  0  0  0
    0.6400   -2.6317   -1.1224 H   0  0  0  0  0  0  0  0  0  0  0  0
    5.1717   -1.8077   -1.1514 H   0  0  0  0  0  0  0  0  0  0  0  0
  1  2  1  0
  2  3  1  0
  3  4  2  0
  4  5  1  0
  5  6  2  0
  6  7  1  0
  7  8  2  0
  8  9  1  0
  9 10  2  0
 10 11  1  0
 11 12  1  0
 12 13  1  0
 12 14  1  0
 12 15  1  0
 11 16  1  0
 16 17  1  0
 16 18  2  0
 18 19  1  0
 19 20  1  0
 19 21  2  0
  8 22  1  0
 22 23  2  0
 23 24  1  0
 24 25  2  0
 25  3  1  0
 24  6  1  0
 18  9  1  0
  1 26  1  0
  1 27  1  0
  1 28  1  0
  4 29  1  0
  5 30  1  0
  7 31  1  0
 13 32  1  0
 13 33  1  0
 13 34  1  0
 14 35  1  0
 14 36  1  0
 14 37  1  0
 15 38  1  0
 15 39  1  0
 15 40  1  0
 17 41  1  0
 17 42  1  0
 20 43  1  0
 20 44  1  0
 22 45  1  0
 25 46  1  0
M  END
$$$$
