@<TRIPOS>MOLECULE
*****
 46 48 0 0 0
SMALL
GASTEIGER

@<TRIPOS>ATOM
      1 C           7.8581    1.0670   -0.3261 C.3     1  UNL1        0.0788
      2 O           6.9144    0.0832   -0.6066 O.3     1  UNL1       -0.4950
      3 C           5.5592    0.2004   -0.4601 C.ar    1  UNL1        0.1221
      4 C           4.9687    1.3518   -0.0011 C.ar    1  UNL1       -0.0193
      5 C           3.5987    1.4082    0.1247 C.ar    1  UNL1       -0.0491
      6 C           2.7563    0.3409   -0.1937 C.ar    1  UNL1        0.0012
      7 C           1.3907    0.4632   -0.0440 C.ar    1  UNL1       -0.0418
      8 C           0.5852   -0.6323   -0.3751 C.ar    1  UNL1        0.0216
      9 C          -0.8725   -0.5351   -0.2617 C.ar    1  UNL1        0.1082
     10 N          -1.6595    0.4297   -0.7998 N.ar    1  UNL1       -0.1682
     11 N          -2.9190    0.2338   -0.4978 N.ar    1  UNL1       -0.2444
     12 C          -4.0864    1.0316   -0.8733 C.3     1  UNL1        0.0573
     13 C          -4.8944    1.4415    0.3358 C.3     1  UNL1       -0.0402
     14 C          -3.6141    2.3009   -1.5496 C.3     1  UNL1       -0.0402
     15 C          -4.9633    0.3006   -1.8638 C.3     1  UNL1       -0.0402
     16 C          -3.0264   -0.8758    0.2594 C.ar    1  UNL1        0.1279
     17 N          -4.1913   -1.4633    0.8100 N.pl3   1  UNL1       -0.3427
     18 C          -1.7227   -1.3756    0.4179 C.ar    1  UNL1        0.1031
     19 C          -1.3959   -2.5629    1.1934 C.2     1  UNL1        0.2470
     20 N          -0.1050   -3.0523    1.4315 N.am    1  UNL1       -0.3252
     21 O          -2.3461   -3.2386    1.7180 O.2     1  UNL1       -0.2702
     22 C           1.2286   -1.7540   -0.8288 C.ar    1  UNL1        0.0375
     23 N           2.5781   -1.8396   -0.9634 N.ar    1  UNL1       -0.2542
     24 C           3.3536   -0.8112   -0.6534 C.ar    1  UNL1        0.0745
     25 C           4.7439   -0.8633   -0.7793 C.ar    1  UNL1        0.0060
     26 H           7.5568    1.8154    0.4118 H       1  UNL1        0.0660
     27 H           8.1752    1.5243   -1.3049 H       1  UNL1        0.0660
     28 H           8.7824    0.5409    0.0414 H       1  UNL1        0.0660
     29 H           5.5656    2.2356    0.2702 H       1  UNL1        0.0654
     30 H           3.1160    2.3023    0.4829 H       1  UNL1        0.0625
     31 H           0.9415    1.3598    0.3128 H       1  UNL1        0.0631
     32 H          -4.2523    1.2377    1.2253 H       1  UNL1        0.0253
     33 H          -5.0923    2.5380    0.3546 H       1  UNL1        0.0253
     34 H          -5.8237    0.8517    0.4514 H       1  UNL1        0.0253
     35 H          -2.8271    2.8175   -0.9827 H       1  UNL1        0.0253
     36 H          -3.1820    2.0163   -2.5319 H       1  UNL1        0.0253
     37 H          -4.4905    2.9259   -1.7235 H       1  UNL1        0.0253
     38 H          -5.9683    0.7611   -1.8098 H       1  UNL1        0.0253
     39 H          -5.0072   -0.7805   -1.6714 H       1  UNL1        0.0253
     40 H          -4.5757    0.5234   -2.8889 H       1  UNL1        0.0253
     41 H          -4.6428   -2.2624    0.3380 H       1  UNL1        0.1437
     42 H          -4.5973   -1.0987    1.6848 H       1  UNL1        0.1437
     43 H           0.1315   -4.0177    1.0776 H       1  UNL1        0.1453
     44 H           0.6392   -2.5001    1.9474 H       1  UNL1        0.1453
     45 H           0.6400   -2.6317   -1.1224 H       1  UNL1        0.0836
     46 H           5.1717   -1.8077   -1.1514 H       1  UNL1        0.0676
@<TRIPOS>BOND
     1     1     2    1
     2     2     3    1
     3     3     4   ar
     4     4     5   ar
     5     5     6   ar
     6     6     7   ar
     7     7     8   ar
     8     8     9    1
     9     9    10   ar
    10    10    11   ar
    11    11    12    1
    12    12    13    1
    13    12    14    1
    14    12    15    1
    15    11    16   ar
    16    16    17    1
    17    16    18   ar
    18    18    19    1
    19    19    20   am
    20    19    21    2
    21     8    22   ar
    22    22    23   ar
    23    23    24   ar
    24    24    25   ar
    25    25     3   ar
    26    24     6   ar
    27    18     9   ar
    28     1    26    1
    29     1    27    1
    30     1    28    1
    31     4    29    1
    32     5    30    1
    33     7    31    1
    34    13    32    1
    35    13    33    1
    36    13    34    1
    37    14    35    1
    38    14    36    1
    39    14    37    1
    40    15    38    1
    41    15    39    1
    42    15    40    1
    43    17    41    1
    44    17    42    1
    45    20    43    1
    46    20    44    1
    47    22    45    1
    48    25    46    1
