@<TRIPOS>MOLECULE
*****
 32 32 0 0 0
SMALL
GASTEIGER

@<TRIPOS>ATOM
      1 N           3.2966    1.2457   -4.1599 N.1     1  UNL1        0.1774
      2 N           2.9644    0.2656   -3.5843 N.1     1  UNL1       -0.0513
      3 C           2.5991   -0.8558   -2.9498 C.2     1  UNL1        0.1853
      4 C           2.3173   -0.8404   -1.5198 C.2     1  UNL1        0.0896
      5 O           3.2852   -1.0490   -0.7517 O.2     1  UNL1       -0.3254
      6 C           0.9863   -0.5978   -0.9526 C.3     1  UNL1        0.0613
      7 C           0.6235    0.8606   -1.2783 C.3     1  UNL1       -0.0047
      8 C          -0.6993    1.2156   -0.7488 C.ar    1  UNL1       -0.0453
      9 C          -1.8545    1.0760   -1.4701 C.ar    1  UNL1       -0.0585
     10 C          -3.1002    1.4129   -0.9531 C.ar    1  UNL1       -0.0615
     11 C          -3.1809    1.9079    0.3379 C.ar    1  UNL1       -0.0617
     12 C          -2.0405    2.0543    1.0717 C.ar    1  UNL1       -0.0615
     13 C          -0.8135    1.7170    0.5479 C.ar    1  UNL1       -0.0585
     14 N           1.0811   -0.6591    0.4987 N.am    1  UNL1       -0.3068
     15 C           0.2144   -1.4778    1.2872 C.2     1  UNL1        0.2272
     16 O          -0.6458   -2.1582    0.6821 O.2     1  UNL1       -0.2744
     17 C           0.3352   -1.5159    2.7794 C.3     1  UNL1        0.0707
     18 N          -0.6229   -2.4011    3.3686 N.3     1  UNL1       -0.3225
     19 H           2.5048   -1.7876   -3.4786 H       1  UNL1       -0.1011
     20 H           0.2027   -1.2725   -1.3345 H       1  UNL1        0.0554
     21 H           0.6532    1.0036   -2.4004 H       1  UNL1        0.0334
     22 H           1.3990    1.5589   -0.9072 H       1  UNL1        0.0334
     23 H          -1.8439    0.6920   -2.4792 H       1  UNL1        0.0620
     24 H          -3.9977    1.3058   -1.5134 H       1  UNL1        0.0618
     25 H          -4.1716    2.1694    0.7342 H       1  UNL1        0.0618
     26 H          -2.1491    2.4439    2.0826 H       1  UNL1        0.0618
     27 H           0.0651    1.8460    1.1540 H       1  UNL1        0.0620
     28 H           1.7916   -0.1079    1.0236 H       1  UNL1        0.1493
     29 H           1.3807   -1.8676    2.9897 H       1  UNL1        0.0518
     30 H           0.2734   -0.4857    3.2004 H       1  UNL1        0.0518
     31 H          -0.5390   -2.3070    4.4158 H       1  UNL1        0.1186
     32 H          -0.3146   -3.3918    3.1337 H       1  UNL1        0.1186
@<TRIPOS>UNITY_ATOM_ATTR
2 1
charge 1
3 1
charge -1
@<TRIPOS>BOND
     1     1     2    3
     2     2     3    1
     3     3     4    1
     4     4     5    2
     5     4     6    1
     6     6     7    1
     7     7     8    1
     8     8     9   ar
     9     9    10   ar
    10    10    11   ar
    11    11    12   ar
    12    12    13   ar
    13     6    14    1
    14    14    15   am
    15    15    16    2
    16    15    17    1
    17    17    18    1
    18    13     8   ar
    19     3    19    1
    20     6    20    1
    21     7    21    1
    22     7    22    1
    23     9    23    1
    24    10    24    1
    25    11    25    1
    26    12    26    1
    27    13    27    1
    28    14    28    1
    29    17    29    1
    30    17    30    1
    31    18    31    1
    32    18    32    1
