
     RDKit          3D

 58 61  0  0  0  0  0  0  0  0999 V2000
   -8.3713   -1.8353    1.6960 C   0  0  0  0  0  0  0  0  0  0  0  0
   -7.3996   -1.3302    2.6316 N   0  0  0  0  0  0  0  0  0  0  0  0
   -6.1879   -0.7804    2.1551 C   0  0  0  0  0  0  0  0  0  0  0  0
   -5.2497   -0.2958    2.9975 N   0  0  0  0  0  0  0  0  0  0  0  0
   -4.1010    0.2273    2.5849 C   0  0  0  0  0  0  0  0  0  0  0  0
   -3.8734    0.2701    1.2534 N   0  0  0  0  0  0  0  0  0  0  0  0
   -4.7618   -0.1931    0.3686 C   0  0  0  0  0  0  0  0  0  0  0  0
   -4.5244   -0.1514   -1.0809 C   0  0  0  0  0  0  0  0  0  0  0  0
   -5.4563   -0.6340   -1.9462 C   0  0  0  0  0  0  0  0  0  0  0  0
   -5.2532   -0.6044   -3.3097 C   0  0  0  0  0  0  0  0  0  0  0  0
   -4.0665   -0.0654   -3.7605 C   0  0  0  0  0  0  0  0  0  0  0  0
   -3.1283    0.4187   -2.9276 N   0  0  0  0  0  0  0  0  0  0  0  0
   -3.3541    0.3765   -1.6018 C   0  0  0  0  0  0  0  0  0  0  0  0
   -2.4349    0.8557   -0.6820 O   0  0  0  0  0  0  0  0  0  0  0  0
   -1.2206    1.4149   -0.9987 C   0  0  0  0  0  0  0  0  0  0  0  0
   -0.0858    0.7722   -0.4864 C   0  0  0  0  0  0  0  0  0  0  0  0
    1.1647    1.2450   -0.7411 C   0  0  0  0  0  0  0  0  0  0  0  0
    2.3834    0.6940   -0.2875 N   0  0  0  0  0  0  0  0  0  0  0  0
    2.5604   -0.4530    0.5181 C   0  0  0  0  0  0  0  0  0  0  0  0
    1.5584   -1.0838    0.8967 O   0  0  0  0  0  0  0  0  0  0  0  0
    3.8826   -0.9453    0.9370 C   0  0  0  0  0  0  0  0  0  0  0  0
    3.9655   -2.0826    1.7303 C   0  0  0  0  0  0  0  0  0  0  0  0
    5.1828   -2.5794    2.1461 C   0  0  0  0  0  0  0  0  0  0  0  0
    6.3722   -1.9631    1.7888 C   0  0  0  0  0  0  0  0  0  0  0  0
    6.2980   -0.8385    1.0049 C   0  0  0  0  0  0  0  0  0  0  0  0
    7.4768   -0.2130    0.6405 O   0  0  0  0  0  0  0  0  0  0  0  0
    8.7476   -0.6364    1.0087 C   0  0  0  0  0  0  0  0  0  0  0  0
    9.0092   -1.9047    0.5598 F   0  0  0  0  0  0  0  0  0  0  0  0
    8.9551   -0.6317    2.3733 F   0  0  0  0  0  0  0  0  0  0  0  0
    9.7532    0.3244    0.3630 C   0  0  0  0  0  0  0  0  0  0  0  0
   11.0462   -0.0135    0.6704 F   0  0  0  0  0  0  0  0  0  0  0  0
    9.4116    1.5893    0.8168 F   0  0  0  0  0  0  0  0  0  0  0  0
    5.0588   -0.3509    0.5941 C   0  0  0  0  0  0  0  0  0  0  0  0
    1.2552    2.3899   -1.5299 C   0  0  0  0  0  0  0  0  0  0  0  0
    0.1396    3.0083   -2.0242 C   0  0  0  0  0  0  0  0  0  0  0  0
   -1.1347    2.5454   -1.7779 C   0  0  0  0  0  0  0  0  0  0  0  0
   -2.3434    3.2105   -2.3093 C   0  0  0  0  0  0  0  0  0  0  0  0
   -5.9081   -0.7126    0.8323 N   0  0  0  0  0  0  0  0  0  0  0  0
   -9.2622   -1.1697    1.6236 H   0  0  0  0  0  0  0  0  0  0  0  0
   -8.6790   -2.8832    1.9333 H   0  0  0  0  0  0  0  0  0  0  0  0
   -7.9338   -1.8900    0.6684 H   0  0  0  0  0  0  0  0  0  0  0  0
   -7.5761   -1.3642    3.6463 H   0  0  0  0  0  0  0  0  0  0  0  0
   -3.3897    0.5991    3.3130 H   0  0  0  0  0  0  0  0  0  0  0  0
   -6.3795   -1.0494   -1.5136 H   0  0  0  0  0  0  0  0  0  0  0  0
   -6.0095   -0.9942   -3.9736 H   0  0  0  0  0  0  0  0  0  0  0  0
   -3.9199   -0.0491   -4.8515 H   0  0  0  0  0  0  0  0  0  0  0  0
   -0.2003   -0.1125    0.1205 H   0  0  0  0  0  0  0  0  0  0  0  0
    3.2829    1.1875   -0.5769 H   0  0  0  0  0  0  0  0  0  0  0  0
    3.0275   -2.5821    2.0214 H   0  0  0  0  0  0  0  0  0  0  0  0
    5.2408   -3.4783    2.7726 H   0  0  0  0  0  0  0  0  0  0  0  0
    7.2996   -2.3945    2.1423 H   0  0  0  0  0  0  0  0  0  0  0  0
    9.5626    0.2880   -0.7243 H   0  0  0  0  0  0  0  0  0  0  0  0
    5.0573    0.5316   -0.0177 H   0  0  0  0  0  0  0  0  0  0  0  0
    2.2091    2.8192   -1.7718 H   0  0  0  0  0  0  0  0  0  0  0  0
    0.2006    3.9074   -2.6443 H   0  0  0  0  0  0  0  0  0  0  0  0
   -2.1771    4.3170   -2.1503 H   0  0  0  0  0  0  0  0  0  0  0  0
   -3.2504    2.9760   -1.7226 H   0  0  0  0  0  0  0  0  0  0  0  0
   -2.4697    3.0972   -3.3990 H   0  0  0  0  0  0  0  0  0  0  0  0
  1  2  1  0
  2  3  1  0
  3  4  2  0
  4  5  1  0
  5  6  2  0
  6  7  1  0
  7  8  1  0
  8  9  2  0
  9 10  1  0
 10 11  2  0
 11 12  1  0
 12 13  2  0
 13 14  1  0
 14 15  1  0
 15 16  2  0
 16 17  1  0
 17 18  1  0
 18 19  1  0
 19 20  2  0
 19 21  1  0
 21 22  2  0
 22 23  1  0
 23 24  2  0
 24 25  1  0
 25 26  1  0
 26 27  1  0
 27 28  1  0
 27 29  1  0
 27 30  1  0
 30 31  1  0
 30 32  1  0
 25 33  2  0
 17 34  2  0
 34 35  1  0
 35 36  2  0
 36 37  1  0
  7 38  2  0
 38  3  1  0
 13  8  1  0
 36 15  1  0
 33 21  1  0
  1 39  1  0
  1 40  1  0
  1 41  1  0
  2 42  1  0
  5 43  1  0
  9 44  1  0
 10 45  1  0
 11 46  1  0
 16 47  1  0
 18 48  1  0
 22 49  1  0
 23 50  1  0
 24 51  1  0
 30 52  1  0
 33 53  1  0
 34 54  1  0
 35 55  1  0
 37 56  1  0
 37 57  1  0
 37 58  1  0
M  END
$$$$
