@<TRIPOS>MOLECULE
*****
 58 61 0 0 0
SMALL
GASTEIGER

@<TRIPOS>ATOM
      1 C          -8.3713   -1.8353    1.6960 C.3     1  UNL1        0.0003
      2 N          -7.3996   -1.3302    2.6316 N.pl3   1  UNL1       -0.3164
      3 C          -6.1879   -0.7804    2.1551 C.ar    1  UNL1        0.2183
      4 N          -5.2497   -0.2958    2.9975 N.ar    1  UNL1       -0.2030
      5 C          -4.1010    0.2273    2.5849 C.ar    1  UNL1        0.1219
      6 N          -3.8734    0.2701    1.2534 N.ar    1  UNL1       -0.2157
      7 C          -4.7618   -0.1931    0.3686 C.ar    1  UNL1        0.1700
      8 C          -4.5244   -0.1514   -1.0809 C.ar    1  UNL1        0.0811
      9 C          -5.4563   -0.6340   -1.9462 C.ar    1  UNL1       -0.0445
     10 C          -5.2532   -0.6044   -3.3097 C.ar    1  UNL1       -0.0427
     11 C          -4.0665   -0.0654   -3.7605 C.ar    1  UNL1        0.0314
     12 N          -3.1283    0.4187   -2.9276 N.ar    1  UNL1       -0.2204
     13 C          -3.3541    0.3765   -1.6018 C.ar    1  UNL1        0.2312
     14 O          -2.4349    0.8557   -0.6820 O.3     1  UNL1       -0.4370
     15 C          -1.2206    1.4149   -0.9987 C.ar    1  UNL1        0.1350
     16 C          -0.0858    0.7722   -0.4864 C.ar    1  UNL1        0.0022
     17 C           1.1647    1.2450   -0.7411 C.ar    1  UNL1        0.0372
     18 N           2.3834    0.6940   -0.2875 N.am    1  UNL1       -0.2814
     19 C           2.5604   -0.4530    0.5181 C.2     1  UNL1        0.2484
     20 O           1.5584   -1.0838    0.8967 O.2     1  UNL1       -0.2699
     21 C           3.8826   -0.9453    0.9370 C.ar    1  UNL1        0.0405
     22 C           3.9655   -2.0826    1.7303 C.ar    1  UNL1       -0.0494
     23 C           5.1828   -2.5794    2.1461 C.ar    1  UNL1       -0.0576
     24 C           6.3722   -1.9631    1.7888 C.ar    1  UNL1       -0.0197
     25 C           6.2980   -0.8385    1.0049 C.ar    1  UNL1        0.1281
     26 O           7.4768   -0.2130    0.6405 O.3     1  UNL1       -0.4280
     27 C           8.7476   -0.6364    1.0087 C.3     1  UNL1        0.4625
     28 F           9.0092   -1.9047    0.5598 F       1  UNL1       -0.1583
     29 F           8.9551   -0.6317    2.3733 F       1  UNL1       -0.1583
     30 C           9.7532    0.3244    0.3630 C.3     1  UNL1        0.3402
     31 F          11.0462   -0.0135    0.6704 F       1  UNL1       -0.1984
     32 F           9.4116    1.5893    0.8168 F       1  UNL1       -0.1984
     33 C           5.0588   -0.3509    0.5941 C.ar    1  UNL1       -0.0076
     34 C           1.2552    2.3899   -1.5299 C.ar    1  UNL1       -0.0400
     35 C           0.1396    3.0083   -2.0242 C.ar    1  UNL1       -0.0536
     36 C          -1.1347    2.5454   -1.7779 C.ar    1  UNL1       -0.0080
     37 C          -2.3434    3.2105   -2.3093 C.3     1  UNL1       -0.0362
     38 N          -5.9081   -0.7126    0.8323 N.ar    1  UNL1       -0.1946
     39 H          -9.2622   -1.1697    1.6236 H       1  UNL1        0.0426
     40 H          -8.6790   -2.8832    1.9333 H       1  UNL1        0.0426
     41 H          -7.9338   -1.8900    0.6684 H       1  UNL1        0.0426
     42 H          -7.5761   -1.3642    3.6463 H       1  UNL1        0.1486
     43 H          -3.3897    0.5991    3.3130 H       1  UNL1        0.1049
     44 H          -6.3795   -1.0494   -1.5136 H       1  UNL1        0.0627
     45 H          -6.0095   -0.9942   -3.9736 H       1  UNL1        0.0633
     46 H          -3.9199   -0.0491   -4.8515 H       1  UNL1        0.0831
     47 H          -0.2003   -0.1125    0.1205 H       1  UNL1        0.0673
     48 H           3.2829    1.1875   -0.5769 H       1  UNL1        0.1551
     49 H           3.0275   -2.5821    2.0214 H       1  UNL1        0.0625
     50 H           5.2408   -3.4783    2.7726 H       1  UNL1        0.0619
     51 H           7.2996   -2.3945    2.1423 H       1  UNL1        0.0654
     52 H           9.5626    0.2880   -0.7243 H       1  UNL1        0.1124
     53 H           5.0573    0.5316   -0.0177 H       1  UNL1        0.0662
     54 H           2.2091    2.8192   -1.7718 H       1  UNL1        0.0636
     55 H           0.2006    3.9074   -2.6443 H       1  UNL1        0.0622
     56 H          -2.1771    4.3170   -2.1503 H       1  UNL1        0.0279
     57 H          -3.2504    2.9760   -1.7226 H       1  UNL1        0.0279
     58 H          -2.4697    3.0972   -3.3990 H       1  UNL1        0.0279
@<TRIPOS>BOND
     1     1     2    1
     2     2     3    1
     3     3     4   ar
     4     4     5   ar
     5     5     6   ar
     6     6     7   ar
     7     7     8    1
     8     8     9   ar
     9     9    10   ar
    10    10    11   ar
    11    11    12   ar
    12    12    13   ar
    13    13    14    1
    14    14    15    1
    15    15    16   ar
    16    16    17   ar
    17    17    18    1
    18    18    19   am
    19    19    20    2
    20    19    21    1
    21    21    22   ar
    22    22    23   ar
    23    23    24   ar
    24    24    25   ar
    25    25    26    1
    26    26    27    1
    27    27    28    1
    28    27    29    1
    29    27    30    1
    30    30    31    1
    31    30    32    1
    32    25    33   ar
    33    17    34   ar
    34    34    35   ar
    35    35    36   ar
    36    36    37    1
    37     7    38   ar
    38    38     3   ar
    39    13     8   ar
    40    36    15   ar
    41    33    21   ar
    42     1    39    1
    43     1    40    1
    44     1    41    1
    45     2    42    1
    46     5    43    1
    47     9    44    1
    48    10    45    1
    49    11    46    1
    50    16    47    1
    51    18    48    1
    52    22    49    1
    53    23    50    1
    54    24    51    1
    55    30    52    1
    56    33    53    1
    57    34    54    1
    58    35    55    1
    59    37    56    1
    60    37    57    1
    61    37    58    1
