@<TRIPOS>MOLECULE
*****
 46 48 0 0 0
SMALL
GASTEIGER

@<TRIPOS>ATOM
      1 C          -4.4006   -0.9285    1.3263 C.3     1  UNL1        0.0707
      2 S          -3.7010   -2.5420    1.5622 S.O2    1  UNL1        0.0290
      3 O          -4.7024   -3.5495    1.1113 O.2     1  UNL1       -0.1583
      4 O          -3.4985   -2.7143    3.0501 O.2     1  UNL1       -0.1583
      5 N          -2.2188   -2.7591    0.7469 N.3     1  UNL1       -0.1796
      6 C          -2.3004   -2.6333   -0.6691 C.3     1  UNL1        0.0219
      7 C          -1.1699   -1.6831   -1.0830 C.3     1  UNL1       -0.0187
      8 C          -1.1092   -0.7863    0.1307 C.3     1  UNL1        0.0394
      9 N           0.1750   -0.0551    0.1944 N.pl3   1  UNL1       -0.3211
     10 C           1.2475   -0.8535    0.6280 C.3     1  UNL1        0.0386
     11 C           2.6214   -0.4408    0.5833 C.ar    1  UNL1       -0.0162
     12 C           3.3619   -0.1109    1.7098 C.ar    1  UNL1       -0.0560
     13 C           4.6748    0.2251    1.5650 C.ar    1  UNL1       -0.0614
     14 C           5.2941    0.2476    0.3268 C.ar    1  UNL1       -0.0607
     15 C           4.5623   -0.0795   -0.7969 C.ar    1  UNL1       -0.0474
     16 C           3.2346   -0.4227   -0.6798 C.ar    1  UNL1        0.0225
     17 BR          2.2673   -0.8659   -2.2607 Br      1  UNL1       -0.0500
     18 C           0.1523    1.2978   -0.2298 C.ar    1  UNL1        0.0317
     19 C          -1.0059    1.7812   -0.8178 C.ar    1  UNL1       -0.0393
     20 C          -1.1567    3.0998   -1.2343 C.ar    1  UNL1       -0.0412
     21 C          -0.1365    4.0019   -1.0769 C.ar    1  UNL1        0.0701
     22 C          -0.2685    5.3803   -1.5018 C.1     1  UNL1        0.1006
     23 N          -0.3686    6.4829   -1.8323 N.1     1  UNL1       -0.1908
     24 C           1.0165    3.5346   -0.4960 C.ar    1  UNL1        0.0600
     25 CL          2.3594    4.6469   -0.2693 Cl      1  UNL1       -0.0822
     26 C           1.1651    2.2054   -0.0766 C.ar    1  UNL1       -0.0210
     27 C          -1.1846   -1.8517    1.2362 C.3     1  UNL1        0.0387
     28 H          -4.6535   -0.7420    0.2563 H       1  UNL1        0.0479
     29 H          -5.3678   -0.9217    1.8783 H       1  UNL1        0.0479
     30 H          -3.7885   -0.1237    1.7741 H       1  UNL1        0.0479
     31 H          -3.2792   -2.2462   -1.0228 H       1  UNL1        0.0444
     32 H          -2.1283   -3.5834   -1.2157 H       1  UNL1        0.0444
     33 H          -1.4495   -1.1254   -2.0016 H       1  UNL1        0.0296
     34 H          -0.2826   -2.3027   -1.2407 H       1  UNL1        0.0296
     35 H          -1.9837   -0.1716    0.1961 H       1  UNL1        0.0513
     36 H           1.0368   -1.0923    1.7321 H       1  UNL1        0.0513
     37 H           1.1886   -1.8365    0.0575 H       1  UNL1        0.0513
     38 H           2.8255   -0.1457    2.6490 H       1  UNL1        0.0621
     39 H           5.2214    0.4774    2.4727 H       1  UNL1        0.0618
     40 H           6.3334    0.5142    0.2173 H       1  UNL1        0.0618
     41 H           5.0157   -0.0735   -1.7938 H       1  UNL1        0.0629
     42 H          -1.8796    1.1744   -1.0211 H       1  UNL1        0.0636
     43 H          -2.0664    3.4650   -1.6916 H       1  UNL1        0.0631
     44 H           2.0780    1.9044    0.3791 H       1  UNL1        0.0651
     45 H          -0.2669   -2.4381    1.2984 H       1  UNL1        0.0462
     46 H          -1.4639   -1.3598    2.1738 H       1  UNL1        0.0462
@<TRIPOS>BOND
     1     1     2    1
     2     2     3    2
     3     2     4    2
     4     2     5    1
     5     5     6    1
     6     6     7    1
     7     7     8    1
     8     8     9    1
     9     9    10    1
    10    10    11    1
    11    11    12   ar
    12    12    13   ar
    13    13    14   ar
    14    14    15   ar
    15    15    16   ar
    16    16    17    1
    17     9    18    1
    18    18    19   ar
    19    19    20   ar
    20    20    21   ar
    21    21    22    1
    22    22    23    3
    23    21    24   ar
    24    24    25    1
    25    24    26   ar
    26     8    27    1
    27    27     5    1
    28    16    11   ar
    29    26    18   ar
    30     1    28    1
    31     1    29    1
    32     1    30    1
    33     6    31    1
    34     6    32    1
    35     7    33    1
    36     7    34    1
    37     8    35    1
    38    10    36    1
    39    10    37    1
    40    12    38    1
    41    13    39    1
    42    14    40    1
    43    15    41    1
    44    19    42    1
    45    20    43    1
    46    26    44    1
    47    27    45    1
    48    27    46    1
