@<TRIPOS>MOLECULE
*****
 50 53 0 0 0
SMALL
GASTEIGER

@<TRIPOS>ATOM
      1 N          -2.5766   -4.2202    0.7257 N.3     1  UNL1       -0.3265
      2 C          -2.4180   -2.7369    0.4432 C.3     1  UNL1        0.0172
      3 C          -1.0799   -2.6592   -0.1790 C.3     1  UNL1        0.0396
      4 C          -0.5506   -1.3607   -0.5913 C.2     1  UNL1        0.2176
      5 O          -0.6015   -1.1016   -1.8421 O.2     1  UNL1       -0.2755
      6 N           0.0061   -0.3788    0.2491 N.am    1  UNL1       -0.2912
      7 C           0.2035   -0.3844    1.6921 C.3     1  UNL1        0.0155
      8 C          -0.1998    1.0269    2.0350 C.3     1  UNL1       -0.0350
      9 C           0.3597    1.8508    0.9317 C.3     1  UNL1       -0.0256
     10 C           0.5273    0.9161   -0.2288 C.3     1  UNL1        0.0890
     11 C           1.9697    0.7165   -0.5675 C.ar    1  UNL1        0.1921
     12 N           2.4715   -0.3409   -1.2291 N.ar    1  UNL1       -0.0592
     13 O           3.7712   -0.1915   -1.3487 O.2     1  UNL1       -0.3349
     14 C           4.1445    0.9334   -0.7856 C.ar    1  UNL1        0.2592
     15 C           5.5275    1.4937   -0.6907 C.3     1  UNL1        0.1441
     16 O           6.1621    1.7426   -1.8846 O.3     1  UNL1       -0.3791
     17 C           6.3690    1.1825    0.4881 C.3     1  UNL1       -0.0121
     18 C           5.7158    2.5346    0.4472 C.3     1  UNL1       -0.0121
     19 N           3.0131    1.5023   -0.2955 N.ar    1  UNL1       -0.1917
     20 C          -3.6092   -2.3295   -0.3328 C.3     1  UNL1       -0.0092
     21 C          -3.7161   -0.9119   -0.7025 C.ar    1  UNL1       -0.0078
     22 C          -3.6060   -0.4143   -1.9860 C.ar    1  UNL1       -0.0176
     23 C          -3.7621    0.9171   -2.3178 C.ar    1  UNL1        0.1588
     24 F          -3.6474    1.3722   -3.5855 F       1  UNL1       -0.2025
     25 C          -4.0460    1.8306   -1.3249 C.ar    1  UNL1        0.1611
     26 F          -4.2148    3.1500   -1.5682 F       1  UNL1       -0.2024
     27 C          -4.1624    1.3685   -0.0317 C.ar    1  UNL1        0.0119
     28 C          -4.0065    0.0421    0.2932 C.ar    1  UNL1        0.1295
     29 F          -4.1189   -0.4169    1.5555 F       1  UNL1       -0.2051
     30 H          -3.2439   -4.3352    1.5021 H       1  UNL1        0.1185
     31 H          -2.9630   -4.6700   -0.1371 H       1  UNL1        0.1185
     32 H          -2.3819   -2.2888    1.4655 H       1  UNL1        0.0466
     33 H          -0.3481   -3.0629    0.6027 H       1  UNL1        0.0374
     34 H          -0.9611   -3.4293   -1.0040 H       1  UNL1        0.0374
     35 H           1.2620   -0.5978    1.9492 H       1  UNL1        0.0465
     36 H          -0.4675   -1.1080    2.1448 H       1  UNL1        0.0465
     37 H           0.1759    1.3294    3.0374 H       1  UNL1        0.0281
     38 H          -1.3110    1.0790    1.9858 H       1  UNL1        0.0281
     39 H          -0.3154    2.7096    0.6350 H       1  UNL1        0.0288
     40 H           1.3764    2.2449    1.1754 H       1  UNL1        0.0288
     41 H          -0.0414    1.2682   -1.0961 H       1  UNL1        0.0583
     42 H           6.5696    2.6430   -1.8241 H       1  UNL1        0.2108
     43 H           6.0390    0.4236    1.1933 H       1  UNL1        0.0299
     44 H           7.4804    1.2189    0.3145 H       1  UNL1        0.0299
     45 H           6.2892    3.4225    0.1488 H       1  UNL1        0.0299
     46 H           4.8504    2.6496    1.1342 H       1  UNL1        0.0299
     47 H          -4.5636   -2.6758    0.1761 H       1  UNL1        0.0329
     48 H          -3.5994   -2.9280   -1.2888 H       1  UNL1        0.0329
     49 H          -3.3821   -1.1263   -2.7756 H       1  UNL1        0.0651
     50 H          -4.3895    2.1007    0.7551 H       1  UNL1        0.0676
@<TRIPOS>BOND
     1     1     2    1
     2     2     3    1
     3     3     4    1
     4     4     5    2
     5     4     6   am
     6     6     7    1
     7     7     8    1
     8     8     9    1
     9     9    10    1
    10    10    11    1
    11    11    12   ar
    12    12    13   ar
    13    13    14   ar
    14    14    15    1
    15    15    16    1
    16    15    17    1
    17    17    18    1
    18    14    19   ar
    19     2    20    1
    20    20    21    1
    21    21    22   ar
    22    22    23   ar
    23    23    24    1
    24    23    25   ar
    25    25    26    1
    26    25    27   ar
    27    27    28   ar
    28    28    29    1
    29    10     6    1
    30    19    11   ar
    31    28    21   ar
    32    18    15    1
    33     1    30    1
    34     1    31    1
    35     2    32    1
    36     3    33    1
    37     3    34    1
    38     7    35    1
    39     7    36    1
    40     8    37    1
    41     8    38    1
    42     9    39    1
    43     9    40    1
    44    10    41    1
    45    16    42    1
    46    17    43    1
    47    17    44    1
    48    18    45    1
    49    18    46    1
    50    20    47    1
    51    20    48    1
    52    22    49    1
    53    27    50    1
