
     RDKit          3D

 44 44  0  0  0  0  0  0  0  0999 V2000
    4.3135    0.9557   -1.1836 C   0  0  0  0  0  0  0  0  0  0  0  0
    3.1790    1.2660   -0.2317 C   0  0  0  0  0  0  0  0  0  0  0  0
    2.1471    0.1393   -0.3673 C   0  0  0  0  0  0  0  0  0  0  0  0
    2.8881   -1.1191    0.0078 C   0  0  0  0  0  0  0  0  0  0  0  0
    2.0490   -2.3662   -0.0655 C   0  0  0  0  0  0  0  0  0  0  0  0
    1.0547    0.3859    0.4459 O   0  0  0  0  0  0  0  0  0  0  0  0
   -0.1273    0.6085   -0.1971 C   0  0  2  0  0  0  0  0  0  0  0  0
   -0.5901    2.0413    0.0079 C   0  0  0  0  0  0  0  0  0  0  0  0
   -1.8403    2.4044   -0.0292 C   0  0  0  0  0  0  0  0  0  0  0  0
   -2.1401    3.8161    0.1851 C   0  0  0  0  0  0  0  0  0  0  0  0
   -1.2532    4.6682    0.3984 O   0  0  0  0  0  0  0  0  0  0  0  0
   -3.4576    4.2344    0.1520 O   0  0  0  0  0  0  0  0  0  0  0  0
   -2.9785    1.4599   -0.2775 C   0  0  0  0  0  0  0  0  0  0  0  0
   -2.4190    0.1615   -0.7341 C   0  0  2  0  0  0  0  0  0  0  0  0
   -3.3502   -0.9118   -0.8139 N   0  0  0  0  0  0  0  0  0  0  0  0
   -1.3067   -0.1997    0.2671 C   0  0  1  0  0  0  0  0  0  0  0  0
   -1.1212   -1.5943    0.3817 N   0  0  0  0  0  0  0  0  0  0  0  0
   -1.2836   -2.2264    1.6453 C   0  0  0  0  0  0  0  0  0  0  0  0
   -1.0947   -3.6908    1.7942 C   0  0  0  0  0  0  0  0  0  0  0  0
   -1.5906   -1.5673    2.6703 O   0  0  0  0  0  0  0  0  0  0  0  0
    4.0067    0.2913   -2.0140 H   0  0  0  0  0  0  0  0  0  0  0  0
    5.1335    0.4027   -0.6502 H   0  0  0  0  0  0  0  0  0  0  0  0
    4.7931    1.8745   -1.5853 H   0  0  0  0  0  0  0  0  0  0  0  0
    3.6026    1.2078    0.7978 H   0  0  0  0  0  0  0  0  0  0  0  0
    2.7207    2.2512   -0.4152 H   0  0  0  0  0  0  0  0  0  0  0  0
    1.8524    0.1396   -1.4304 H   0  0  0  0  0  0  0  0  0  0  0  0
    3.7565   -1.2860   -0.6832 H   0  0  0  0  0  0  0  0  0  0  0  0
    3.3396   -1.0469    1.0194 H   0  0  0  0  0  0  0  0  0  0  0  0
    1.4343   -2.3987   -0.9753 H   0  0  0  0  0  0  0  0  0  0  0  0
    1.4928   -2.4396    0.8835 H   0  0  0  0  0  0  0  0  0  0  0  0
    2.7117   -3.2641   -0.0973 H   0  0  0  0  0  0  0  0  0  0  0  0
   -0.0753    0.5247   -1.3091 H   0  0  0  0  0  0  0  0  0  0  0  0
    0.1664    2.7867    0.1931 H   0  0  0  0  0  0  0  0  0  0  0  0
   -3.6496    5.2306    0.1114 H   0  0  0  0  0  0  0  0  0  0  0  0
   -3.7423    1.8988   -0.9401 H   0  0  0  0  0  0  0  0  0  0  0  0
   -3.4318    1.2889    0.7429 H   0  0  0  0  0  0  0  0  0  0  0  0
   -1.9769    0.3170   -1.7501 H   0  0  0  0  0  0  0  0  0  0  0  0
   -3.2086   -1.5317   -1.6142 H   0  0  0  0  0  0  0  0  0  0  0  0
   -4.3399   -0.6494   -0.6341 H   0  0  0  0  0  0  0  0  0  0  0  0
   -1.5845    0.2457    1.2709 H   0  0  0  0  0  0  0  0  0  0  0  0
   -0.8723   -2.1509   -0.4495 H   0  0  0  0  0  0  0  0  0  0  0  0
   -0.1781   -3.8433    2.3964 H   0  0  0  0  0  0  0  0  0  0  0  0
   -1.0300   -4.1940    0.7949 H   0  0  0  0  0  0  0  0  0  0  0  0
   -1.9994   -4.1207    2.2822 H   0  0  0  0  0  0  0  0  0  0  0  0
  1  2  1  0
  2  3  1  0
  3  4  1  0
  4  5  1  0
  3  6  1  0
  6  7  1  0
  7  8  1  0
  8  9  2  0
  9 10  1  0
 10 11  2  0
 10 12  1  0
  9 13  1  0
 13 14  1  0
 14 15  1  0
 14 16  1  0
 16 17  1  0
 17 18  1  0
 18 19  1  0
 18 20  2  0
 16  7  1  0
  1 21  1  0
  1 22  1  0
  1 23  1  0
  2 24  1  0
  2 25  1  0
  3 26  1  0
  4 27  1  0
  4 28  1  0
  5 29  1  0
  5 30  1  0
  5 31  1  0
  7 32  1  6
  8 33  1  0
 12 34  1  0
 13 35  1  0
 13 36  1  0
 14 37  1  6
 15 38  1  0
 15 39  1  0
 16 40  1  1
 17 41  1  0
 19 42  1  0
 19 43  1  0
 19 44  1  0
M  END
$$$$
