@<TRIPOS>MOLECULE
*****
 44 44 0 0 0
SMALL
GASTEIGER

@<TRIPOS>ATOM
      1 C           4.3135    0.9557   -1.1836 C.3     1  UNL1       -0.0629
      2 C           3.1790    1.2660   -0.2317 C.3     1  UNL1       -0.0294
      3 C           2.1471    0.1393   -0.3673 C.3     1  UNL1        0.0590
      4 C           2.8881   -1.1191    0.0078 C.3     1  UNL1       -0.0294
      5 C           2.0490   -2.3662   -0.0655 C.3     1  UNL1       -0.0629
      6 O           1.0547    0.3859    0.4459 O.3     1  UNL1       -0.3675
      7 C          -0.1273    0.6085   -0.1971 C.3     1  UNL1        0.0976
      8 C          -0.5901    2.0413    0.0079 C.2     1  UNL1       -0.0438
      9 C          -1.8403    2.4044   -0.0292 C.2     1  UNL1        0.0365
     10 C          -2.1401    3.8161    0.1851 C.2     1  UNL1        0.3326
     11 O          -1.2532    4.6682    0.3984 O.2     1  UNL1       -0.2455
     12 O          -3.4576    4.2344    0.1520 O.3     1  UNL1       -0.4773
     13 C          -2.9785    1.4599   -0.2775 C.3     1  UNL1       -0.0041
     14 C          -2.4190    0.1615   -0.7341 C.3     1  UNL1        0.0304
     15 N          -3.3502   -0.9118   -0.8139 N.3     1  UNL1       -0.3254
     16 C          -1.3067   -0.1997    0.2671 C.3     1  UNL1        0.0682
     17 N          -1.1212   -1.5943    0.3817 N.am    1  UNL1       -0.3084
     18 C          -1.2836   -2.2264    1.6453 C.2     1  UNL1        0.2103
     19 C          -1.0947   -3.6908    1.7942 C.3     1  UNL1        0.0122
     20 O          -1.5906   -1.5673    2.6703 O.2     1  UNL1       -0.2761
     21 H           4.0067    0.2913   -2.0140 H       1  UNL1        0.0231
     22 H           5.1335    0.4027   -0.6502 H       1  UNL1        0.0231
     23 H           4.7931    1.8745   -1.5853 H       1  UNL1        0.0231
     24 H           3.6026    1.2078    0.7978 H       1  UNL1        0.0287
     25 H           2.7207    2.2512   -0.4152 H       1  UNL1        0.0287
     26 H           1.8524    0.1396   -1.4304 H       1  UNL1        0.0596
     27 H           3.7565   -1.2860   -0.6832 H       1  UNL1        0.0287
     28 H           3.3396   -1.0469    1.0194 H       1  UNL1        0.0287
     29 H           1.4343   -2.3987   -0.9753 H       1  UNL1        0.0231
     30 H           1.4928   -2.4396    0.8835 H       1  UNL1        0.0231
     31 H           2.7117   -3.2641   -0.0973 H       1  UNL1        0.0231
     32 H          -0.0753    0.5247   -1.3091 H       1  UNL1        0.0660
     33 H           0.1664    2.7867    0.1931 H       1  UNL1        0.0603
     34 H          -3.6496    5.2306    0.1114 H       1  UNL1        0.2954
     35 H          -3.7423    1.8988   -0.9401 H       1  UNL1        0.0331
     36 H          -3.4318    1.2889    0.7429 H       1  UNL1        0.0331
     37 H          -1.9769    0.3170   -1.7501 H       1  UNL1        0.0481
     38 H          -3.2086   -1.5317   -1.6142 H       1  UNL1        0.1185
     39 H          -4.3399   -0.6494   -0.6341 H       1  UNL1        0.1185
     40 H          -1.5845    0.2457    1.2709 H       1  UNL1        0.0542
     41 H          -0.8723   -2.1509   -0.4495 H       1  UNL1        0.1491
     42 H          -0.1781   -3.8433    2.3964 H       1  UNL1        0.0322
     43 H          -1.0300   -4.1940    0.7949 H       1  UNL1        0.0322
     44 H          -1.9994   -4.1207    2.2822 H       1  UNL1        0.0322
@<TRIPOS>BOND
     1     1     2    1
     2     2     3    1
     3     3     4    1
     4     4     5    1
     5     3     6    1
     6     6     7    1
     7     7     8    1
     8     8     9    2
     9     9    10    1
    10    10    11    2
    11    10    12    1
    12     9    13    1
    13    13    14    1
    14    14    15    1
    15    14    16    1
    16    16    17    1
    17    17    18   am
    18    18    19    1
    19    18    20    2
    20    16     7    1
    21     1    21    1
    22     1    22    1
    23     1    23    1
    24     2    24    1
    25     2    25    1
    26     3    26    1
    27     4    27    1
    28     4    28    1
    29     5    29    1
    30     5    30    1
    31     5    31    1
    32     7    32    1
    33     8    33    1
    34    12    34    1
    35    13    35    1
    36    13    36    1
    37    14    37    1
    38    15    38    1
    39    15    39    1
    40    16    40    1
    41    17    41    1
    42    19    42    1
    43    19    43    1
    44    19    44    1
