
     RDKit          3D

 47 49  0  0  0  0  0  0  0  0999 V2000
   -1.6966    3.1366    0.1907 O   0  0  0  0  0  0  0  0  0  0  0  0
   -0.4708    3.1308    0.2067 N   0  0  0  0  0  4  0  0  0  0  0  0
    0.1731    4.3308    0.0492 O   0  0  0  0  0  1  0  0  0  0  0  0
    0.2742    1.9598    0.4002 C   0  0  0  0  0  0  0  0  0  0  0  0
    1.4623    2.0182    1.0674 C   0  0  0  0  0  0  0  0  0  0  0  0
    2.2104    0.9306    1.3023 N   0  0  0  0  0  0  0  0  0  0  0  0
    1.8036   -0.2730    0.8789 C   0  0  0  0  0  0  0  0  0  0  0  0
    2.5974   -1.4360    1.1402 N   0  0  0  0  0  0  0  0  0  0  0  0
    3.6185   -1.9370    0.2726 C   0  0  0  0  0  0  0  0  0  0  0  0
    4.6601   -0.9584   -0.0631 C   0  0  0  0  0  0  0  0  0  0  0  0
    4.7599   -0.4683   -1.3399 C   0  0  0  0  0  0  0  0  0  0  0  0
    5.7696    0.4279   -1.6345 C   0  0  0  0  0  0  0  0  0  0  0  0
    6.6595    0.8170   -0.6447 C   0  0  0  0  0  0  0  0  0  0  0  0
    6.5433    0.3148    0.6323 C   0  0  0  0  0  0  0  0  0  0  0  0
    5.5432   -0.5760    0.9256 C   0  0  0  0  0  0  0  0  0  0  0  0
    5.4252   -1.1925    2.5729 Cl  0  0  0  0  0  0  0  0  0  0  0  0
    0.6502   -0.3373    0.2294 N   0  0  0  0  0  0  0  0  0  0  0  0
   -0.1892    0.6896   -0.0655 C   0  0  0  0  0  0  0  0  0  0  0  0
   -1.3221    0.6770   -0.7572 N   0  0  0  0  0  0  0  0  0  0  0  0
   -2.5317    0.6527   -1.4969 C   0  0  0  0  0  0  0  0  0  0  0  0
   -3.6294    0.0922   -0.6256 C   0  0  0  0  0  0  0  0  0  0  0  0
   -4.9731    0.0110   -1.2802 C   0  0  0  0  0  0  0  0  0  0  0  0
   -5.9645   -0.0099   -0.1054 C   0  0  0  0  0  0  0  0  0  0  0  0
   -5.6498   -1.0344    0.8030 N   0  0  0  0  0  0  0  0  0  0  0  0
   -4.5412   -1.8767    0.5893 C   0  0  0  0  0  0  0  0  0  0  0  0
   -3.3430   -1.2390   -0.0177 C   0  0  0  0  0  0  0  0  0  0  0  0
    1.8079    2.9970    1.4165 H   0  0  0  0  0  0  0  0  0  0  0  0
    2.4094   -1.9671    2.0348 H   0  0  0  0  0  0  0  0  0  0  0  0
    4.0452   -2.8850    0.6706 H   0  0  0  0  0  0  0  0  0  0  0  0
    3.0958   -2.2448   -0.6754 H   0  0  0  0  0  0  0  0  0  0  0  0
    4.0611   -0.7946   -2.0763 H   0  0  0  0  0  0  0  0  0  0  0  0
    5.8381    0.8070   -2.6544 H   0  0  0  0  0  0  0  0  0  0  0  0
    7.4471    1.5197   -0.8836 H   0  0  0  0  0  0  0  0  0  0  0  0
    7.2414    0.6166    1.4400 H   0  0  0  0  0  0  0  0  0  0  0  0
   -1.3127   -0.6733   -0.8638 H   0  0  0  0  0  0  0  0  0  0  0  0
   -2.8395    1.7260   -1.7042 H   0  0  0  0  0  0  0  0  0  0  0  0
   -2.4925    0.1826   -2.5013 H   0  0  0  0  0  0  0  0  0  0  0  0
   -3.7413    0.8095    0.2446 H   0  0  0  0  0  0  0  0  0  0  0  0
   -5.1049   -0.9191   -1.8816 H   0  0  0  0  0  0  0  0  0  0  0  0
   -5.1913    0.9256   -1.8592 H   0  0  0  0  0  0  0  0  0  0  0  0
   -5.7514    0.9828    0.4177 H   0  0  0  0  0  0  0  0  0  0  0  0
   -7.0067    0.0390   -0.4635 H   0  0  0  0  0  0  0  0  0  0  0  0
   -5.8719   -0.8457    1.8120 H   0  0  0  0  0  0  0  0  0  0  0  0
   -4.2159   -2.2375    1.6136 H   0  0  0  0  0  0  0  0  0  0  0  0
   -4.8130   -2.8264    0.0680 H   0  0  0  0  0  0  0  0  0  0  0  0
   -2.5015   -1.1363    0.7151 H   0  0  0  0  0  0  0  0  0  0  0  0
   -2.9429   -1.9265   -0.8202 H   0  0  0  0  0  0  0  0  0  0  0  0
  1  2  2  0
  2  3  1  0
  2  4  1  0
  4  5  2  0
  5  6  1  0
  6  7  2  0
  7  8  1  0
  8  9  1  0
  9 10  1  0
 10 11  2  0
 11 12  1  0
 12 13  2  0
 13 14  1  0
 14 15  2  0
 15 16  1  0
  7 17  1  0
 17 18  2  0
 18 19  1  0
 19 20  1  0
 20 21  1  0
 21 22  1  0
 22 23  1  0
 23 24  1  0
 24 25  1  0
 25 26  1  0
 18  4  1  0
 26 21  1  0
 15 10  1  0
  5 27  1  0
  8 28  1  0
  9 29  1  0
  9 30  1  0
 11 31  1  0
 12 32  1  0
 13 33  1  0
 14 34  1  0
 19 35  1  0
 20 36  1  0
 20 37  1  0
 21 38  1  0
 22 39  1  0
 22 40  1  0
 23 41  1  0
 23 42  1  0
 24 43  1  0
 25 44  1  0
 25 45  1  0
 26 46  1  0
 26 47  1  0
M  CHG  2   2   1   3  -1
M  END
$$$$
