@<TRIPOS>MOLECULE
*****
 47 49 0 0 0
SMALL
GASTEIGER

@<TRIPOS>ATOM
      1 O          -1.6966    3.1366    0.1907 O.2     1  UNL1        0.0416
      2 N          -0.4708    3.1308    0.2067 N.pl3   1  UNL1        0.0848
      3 O           0.1731    4.3308    0.0492 O.co2   1  UNL1       -0.5759
      4 C           0.2742    1.9598    0.4002 C.ar    1  UNL1        0.3303
      5 C           1.4623    2.0182    1.0674 C.ar    1  UNL1        0.1117
      6 N           2.2104    0.9306    1.3023 N.ar    1  UNL1       -0.2160
      7 C           1.8036   -0.2730    0.8789 C.ar    1  UNL1        0.2175
      8 N           2.5974   -1.4360    1.1402 N.pl3   1  UNL1       -0.3093
      9 C           3.6185   -1.9370    0.2726 C.3     1  UNL1        0.0384
     10 C           4.6601   -0.9584   -0.0631 C.ar    1  UNL1       -0.0120
     11 C           4.7599   -0.4683   -1.3399 C.ar    1  UNL1       -0.0557
     12 C           5.7696    0.4279   -1.6345 C.ar    1  UNL1       -0.0614
     13 C           6.6595    0.8170   -0.6447 C.ar    1  UNL1       -0.0604
     14 C           6.5433    0.3148    0.6323 C.ar    1  UNL1       -0.0431
     15 C           5.5432   -0.5760    0.9256 C.ar    1  UNL1        0.0456
     16 CL          5.4252   -1.1925    2.5729 Cl      1  UNL1       -0.0832
     17 N           0.6502   -0.3373    0.2294 N.ar    1  UNL1       -0.1928
     18 C          -0.1892    0.6896   -0.0655 C.ar    1  UNL1        0.2018
     19 N          -1.3221    0.6770   -0.7572 N.pl3   1  UNL1       -0.3233
     20 C          -2.5317    0.6527   -1.4969 C.3     1  UNL1        0.0135
     21 C          -3.6294    0.0922   -0.6256 C.3     1  UNL1       -0.0232
     22 C          -4.9731    0.0110   -1.2802 C.3     1  UNL1       -0.0361
     23 C          -5.9645   -0.0099   -0.1054 C.3     1  UNL1       -0.0038
     24 N          -5.6498   -1.0344    0.8030 N.3     1  UNL1       -0.3160
     25 C          -4.5412   -1.8767    0.5893 C.3     1  UNL1       -0.0038
     26 C          -3.3430   -1.2390   -0.0177 C.3     1  UNL1       -0.0361
     27 H           1.8079    2.9970    1.4165 H       1  UNL1        0.0901
     28 H           2.4094   -1.9671    2.0348 H       1  UNL1        0.1492
     29 H           4.0452   -2.8850    0.6706 H       1  UNL1        0.0512
     30 H           3.0958   -2.2448   -0.6754 H       1  UNL1        0.0512
     31 H           4.0611   -0.7946   -2.0763 H       1  UNL1        0.0621
     32 H           5.8381    0.8070   -2.6544 H       1  UNL1        0.0618
     33 H           7.4471    1.5197   -0.8836 H       1  UNL1        0.0618
     34 H           7.2414    0.6166    1.4400 H       1  UNL1        0.0632
     35 H          -1.3127   -0.6733   -0.8638 H       1  UNL1        0.1477
     36 H          -2.8395    1.7260   -1.7042 H       1  UNL1        0.0464
     37 H          -2.4925    0.1826   -2.5013 H       1  UNL1        0.0464
     38 H          -3.7413    0.8095    0.2446 H       1  UNL1        0.0317
     39 H          -5.1049   -0.9191   -1.8816 H       1  UNL1        0.0281
     40 H          -5.1913    0.9256   -1.8592 H       1  UNL1        0.0281
     41 H          -5.7514    0.9828    0.4177 H       1  UNL1        0.0424
     42 H          -7.0067    0.0390   -0.4635 H       1  UNL1        0.0424
     43 H          -5.8719   -0.8457    1.8120 H       1  UNL1        0.1219
     44 H          -4.2159   -2.2375    1.6136 H       1  UNL1        0.0424
     45 H          -4.8130   -2.8264    0.0680 H       1  UNL1        0.0424
     46 H          -2.5015   -1.1363    0.7151 H       1  UNL1        0.0281
     47 H          -2.9429   -1.9265   -0.8202 H       1  UNL1        0.0281
@<TRIPOS>UNITY_ATOM_ATTR
2 1
charge 1
3 1
charge -1
@<TRIPOS>BOND
     1     1     2    2
     2     2     3    1
     3     2     4    1
     4     4     5   ar
     5     5     6   ar
     6     6     7   ar
     7     7     8    1
     8     8     9    1
     9     9    10    1
    10    10    11   ar
    11    11    12   ar
    12    12    13   ar
    13    13    14   ar
    14    14    15   ar
    15    15    16    1
    16     7    17   ar
    17    17    18   ar
    18    18    19    1
    19    19    20    1
    20    20    21    1
    21    21    22    1
    22    22    23    1
    23    23    24    1
    24    24    25    1
    25    25    26    1
    26    18     4   ar
    27    26    21    1
    28    15    10   ar
    29     5    27    1
    30     8    28    1
    31     9    29    1
    32     9    30    1
    33    11    31    1
    34    12    32    1
    35    13    33    1
    36    14    34    1
    37    19    35    1
    38    20    36    1
    39    20    37    1
    40    21    38    1
    41    22    39    1
    42    22    40    1
    43    23    41    1
    44    23    42    1
    45    24    43    1
    46    25    44    1
    47    25    45    1
    48    26    46    1
    49    26    47    1
