@<TRIPOS>MOLECULE
*****
 63 67 0 0 0
SMALL
GASTEIGER

@<TRIPOS>ATOM
      1 C           4.8427   -4.3553   -0.9283 C.3     1  UNL1        0.0557
      2 S           5.5972   -3.0479   -0.0014 S.O2    1  UNL1       -0.0165
      3 O           7.0882   -3.1289    0.0080 O.2     1  UNL1       -0.1735
      4 O           5.1457   -3.2320    1.4455 O.2     1  UNL1       -0.1735
      5 C           5.0093   -1.4756   -0.5263 C.3     1  UNL1        0.1997
      6 C           5.5950   -0.4067    0.3370 C.2     1  UNL1        0.2441
      7 O           6.3804   -0.7380    1.2492 O.2     1  UNL1       -0.2733
      8 N           5.2683    0.9471    0.1257 N.am    1  UNL1       -0.3078
      9 C           5.7688    2.0509    0.9042 C.3     1  UNL1        0.0546
     10 C           7.2214    2.3724    0.5677 C.ar    1  UNL1        0.0675
     11 C           8.2636    1.7489    1.3261 C.ar    1  UNL1        0.0017
     12 S           9.7271    2.4417    0.5751 S.2     1  UNL1       -0.0608
     13 C           8.8015    3.4834   -0.6654 C.ar    1  UNL1        0.1558
     14 N           9.4634    4.3010   -1.5878 N.pl3   1  UNL1       -0.3375
     15 N           7.5922    3.1663   -0.3393 N.ar    1  UNL1       -0.2285
     16 C           3.4902   -1.5088   -0.2570 C.ar    1  UNL1        0.1126
     17 N           2.7366   -1.7725    0.5842 N.ar    1  UNL1       -0.2416
     18 C           1.4211   -1.6942    0.5682 C.ar    1  UNL1        0.0786
     19 C           0.4928   -2.0103    1.5821 C.ar    1  UNL1       -0.0346
     20 C          -0.8444   -1.8528    1.3576 C.ar    1  UNL1       -0.0520
     21 C          -1.3887   -1.3882    0.1627 C.ar    1  UNL1       -0.0167
     22 C          -2.8107   -1.2285   -0.0233 C.ar    1  UNL1       -0.0178
     23 C          -3.5754   -0.8831    1.1005 C.ar    1  UNL1       -0.0533
     24 C          -4.9414   -0.7181    1.0492 C.ar    1  UNL1       -0.0491
     25 C          -5.6261   -0.8882   -0.1338 C.ar    1  UNL1        0.0369
     26 C          -7.0603   -0.7108   -0.1404 C.2     1  UNL1        0.2467
     27 O          -7.7961   -1.7473   -0.2796 O.2     1  UNL1       -0.2700
     28 N          -7.6015    0.5926    0.0079 N.am    1  UNL1       -0.2932
     29 C          -6.7495    1.7279    0.1472 C.3     1  UNL1        0.0385
     30 C          -7.4442    3.0574   -0.0106 C.3     1  UNL1        0.0635
     31 O          -8.8064    2.9835    0.2817 O.3     1  UNL1       -0.3767
     32 C          -9.4285    2.0354   -0.5552 C.3     1  UNL1        0.0635
     33 C          -9.0669    0.6847    0.0180 C.3     1  UNL1        0.0385
     34 C          -4.8991   -1.2251   -1.2510 C.ar    1  UNL1       -0.0491
     35 C          -3.5102   -1.3915   -1.1871 C.ar    1  UNL1       -0.0533
     36 C          -0.4822   -1.0758   -0.8404 C.ar    1  UNL1       -0.0382
     37 C           0.8722   -1.2421   -0.5932 C.ar    1  UNL1        0.0398
     38 S           2.3616   -0.9560   -1.6105 S.2     1  UNL1       -0.0697
     39 H           5.5570   -5.2202   -1.0612 H       1  UNL1        0.0464
     40 H           4.5046   -3.9853   -1.9257 H       1  UNL1        0.0464
     41 H           3.9558   -4.7772   -0.4254 H       1  UNL1        0.0464
     42 H           5.1814   -1.2628   -1.5947 H       1  UNL1        0.0705
     43 H           4.5960    1.1352   -0.6783 H       1  UNL1        0.1491
     44 H           5.1587    2.9602    0.6653 H       1  UNL1        0.0527
     45 H           5.6763    1.8860    1.9741 H       1  UNL1        0.0527
     46 H           8.1875    1.0808    2.1083 H       1  UNL1        0.0713
     47 H           9.1387    5.2706   -1.7919 H       1  UNL1        0.1442
     48 H          10.3010    3.9364   -2.0847 H       1  UNL1        0.1442
     49 H           0.7965   -2.3818    2.5518 H       1  UNL1        0.0639
     50 H          -1.5935   -2.0954    2.1268 H       1  UNL1        0.0624
     51 H          -3.0573   -0.7396    2.0379 H       1  UNL1        0.0624
     52 H          -5.5074   -0.4588    1.9295 H       1  UNL1        0.0625
     53 H          -6.1770    1.6510    1.0718 H       1  UNL1        0.0487
     54 H          -5.9943    1.6627   -0.6892 H       1  UNL1        0.0487
     55 H          -7.0006    3.7463    0.7383 H       1  UNL1        0.0575
     56 H          -7.2578    3.5170   -1.0062 H       1  UNL1        0.0575
     57 H          -9.0204    2.1133   -1.5603 H       1  UNL1        0.0575
     58 H         -10.5163    2.2176   -0.5141 H       1  UNL1        0.0575
     59 H          -9.3495    0.7317    1.1012 H       1  UNL1        0.0487
     60 H          -9.5142   -0.1623   -0.5009 H       1  UNL1        0.0487
     61 H          -5.3893   -1.3689   -2.2107 H       1  UNL1        0.0625
     62 H          -2.9376   -1.6600   -2.0815 H       1  UNL1        0.0624
     63 H          -0.8460   -0.7122   -1.7860 H       1  UNL1        0.0635
@<TRIPOS>BOND
     1     1     2    1
     2     2     3    2
     3     2     4    2
     4     2     5    1
     5     5     6    1
     6     6     7    2
     7     6     8   am
     8     8     9    1
     9     9    10    1
    10    10    11   ar
    11    11    12   ar
    12    12    13   ar
    13    13    14    1
    14    13    15   ar
    15     5    16    1
    16    16    17   ar
    17    17    18   ar
    18    18    19   ar
    19    19    20   ar
    20    20    21   ar
    21    21    22    1
    22    22    23   ar
    23    23    24   ar
    24    24    25   ar
    25    25    26    1
    26    26    27    2
    27    26    28   am
    28    28    29    1
    29    29    30    1
    30    30    31    1
    31    31    32    1
    32    32    33    1
    33    25    34   ar
    34    34    35   ar
    35    21    36   ar
    36    36    37   ar
    37    37    38   ar
    38    15    10   ar
    39    38    16   ar
    40    37    18   ar
    41    35    22   ar
    42    33    28    1
    43     1    39    1
    44     1    40    1
    45     1    41    1
    46     5    42    1
    47     8    43    1
    48     9    44    1
    49     9    45    1
    50    11    46    1
    51    14    47    1
    52    14    48    1
    53    19    49    1
    54    20    50    1
    55    23    51    1
    56    24    52    1
    57    29    53    1
    58    29    54    1
    59    30    55    1
    60    30    56    1
    61    32    57    1
    62    32    58    1
    63    33    59    1
    64    33    60    1
    65    34    61    1
    66    35    62    1
    67    36    63    1
