@<TRIPOS>MOLECULE
*****
 62 65 0 0 0
SMALL
GASTEIGER

@<TRIPOS>ATOM
      1 O           1.8777   -0.2593   -0.1128 O.2     1  UNL1       -0.2700
      2 C           1.1176    0.5051    0.5322 C.2     1  UNL1        0.2489
      3 N           1.7650    1.6518    1.0838 N.am    1  UNL1       -0.3112
      4 C           3.1906    1.8994    0.9133 C.3     1  UNL1        0.0133
      5 C           3.9897    0.8187    1.5423 C.3     1  UNL1       -0.0214
      6 C           5.4831    1.0313    1.4129 C.3     1  UNL1        0.0193
      7 N           5.9675    1.1011    0.0779 N.am    1  UNL1       -0.2642
      8 C           6.1269    2.2855   -0.7301 C.3     1  UNL1        0.0521
      9 C           7.3220    1.9016   -1.5880 C.3     1  UNL1        0.1098
     10 O           7.0246    0.5629   -1.8963 O.3     1  UNL1       -0.4487
     11 C           6.4124    0.0302   -0.7465 C.2     1  UNL1        0.4030
     12 O           6.2766   -1.1909   -0.4831 O.2     1  UNL1       -0.2263
     13 C          -0.3004    0.2592    0.7123 C.ar    1  UNL1        0.0945
     14 C          -1.0916    1.1679    1.3805 C.ar    1  UNL1        0.0466
     15 N          -2.4308    0.9982    1.5751 N.ar    1  UNL1       -0.2221
     16 C          -2.9913   -0.1132    1.0863 C.ar    1  UNL1        0.2171
     17 N          -4.3928   -0.3562    1.2494 N.pl3   1  UNL1       -0.3093
     18 C          -5.3325    0.0952    0.2149 C.3     1  UNL1        0.0385
     19 C          -5.2792    1.5446    0.0114 C.ar    1  UNL1       -0.0107
     20 C          -4.6231    2.0410   -1.0980 C.ar    1  UNL1       -0.0373
     21 C          -4.5901    3.4131   -1.2590 C.ar    1  UNL1        0.0414
     22 CL         -3.7638    4.0786   -2.6595 Cl      1  UNL1       -0.0835
     23 C          -5.1850    4.2530   -0.3537 C.ar    1  UNL1       -0.0420
     24 C          -5.8423    3.7621    0.7570 C.ar    1  UNL1       -0.0417
     25 C          -5.8859    2.3972    0.9346 C.ar    1  UNL1        0.0457
     26 CL         -6.7182    1.7708    2.3407 Cl      1  UNL1       -0.0832
     27 N          -2.2461   -0.9859    0.4481 N.ar    1  UNL1       -0.1990
     28 C          -0.9017   -0.8829    0.2157 C.ar    1  UNL1        0.1362
     29 N          -0.2282   -1.9092   -0.4963 N.pl3   1  UNL1       -0.3255
     30 C          -1.0375   -3.0468   -0.9224 C.3     1  UNL1        0.0220
     31 C          -1.6274   -3.8129    0.2391 C.3     1  UNL1       -0.0345
     32 C          -2.1453   -5.0534   -0.5042 C.3     1  UNL1       -0.0513
     33 C          -1.0422   -5.3524   -1.4645 C.3     1  UNL1       -0.0513
     34 C          -0.2008   -4.1048   -1.5919 C.3     1  UNL1       -0.0345
     35 H           1.2057    2.3390    1.6299 H       1  UNL1        0.1490
     36 H           3.3433    1.9538   -0.2033 H       1  UNL1        0.0462
     37 H           3.4249    2.8976    1.2854 H       1  UNL1        0.0462
     38 H           3.8062    0.7863    2.6580 H       1  UNL1        0.0295
     39 H           3.6887   -0.1616    1.1656 H       1  UNL1        0.0295
     40 H           5.9686    0.2469    2.0269 H       1  UNL1        0.0466
     41 H           5.7065    2.0150    1.9197 H       1  UNL1        0.0466
     42 H           5.3017    2.4759   -1.4238 H       1  UNL1        0.0499
     43 H           6.4041    3.1783   -0.1542 H       1  UNL1        0.0499
     44 H           8.2254    1.9613   -0.9290 H       1  UNL1        0.0714
     45 H           7.3967    2.5720   -2.4504 H       1  UNL1        0.0714
     46 H          -0.6414    2.0601    1.7716 H       1  UNL1        0.0839
     47 H          -4.6870   -0.8536    2.1141 H       1  UNL1        0.1492
     48 H          -5.0779   -0.4165   -0.7343 H       1  UNL1        0.0512
     49 H          -6.3455   -0.2661    0.4889 H       1  UNL1        0.0512
     50 H          -4.1360    1.4225   -1.8430 H       1  UNL1        0.0636
     51 H          -5.1134    5.3202   -0.5533 H       1  UNL1        0.0633
     52 H          -6.3002    4.4608    1.4493 H       1  UNL1        0.0633
     53 H           0.7649   -1.8556   -0.6991 H       1  UNL1        0.1478
     54 H          -1.8394   -2.6861   -1.5685 H       1  UNL1        0.0498
     55 H          -2.4254   -3.3054    0.7743 H       1  UNL1        0.0283
     56 H          -0.8013   -4.1608    0.9258 H       1  UNL1        0.0283
     57 H          -3.0388   -4.6948   -1.0782 H       1  UNL1        0.0266
     58 H          -2.3886   -5.8700    0.1818 H       1  UNL1        0.0266
     59 H          -1.4666   -5.5691   -2.4761 H       1  UNL1        0.0266
     60 H          -0.4389   -6.2183   -1.1178 H       1  UNL1        0.0266
     61 H           0.7131   -4.2705   -0.9706 H       1  UNL1        0.0283
     62 H           0.0526   -3.8620   -2.6269 H       1  UNL1        0.0283
@<TRIPOS>BOND
     1     1     2    2
     2     2     3   am
     3     3     4    1
     4     4     5    1
     5     5     6    1
     6     6     7    1
     7     7     8    1
     8     8     9    1
     9     9    10    1
    10    10    11    1
    11    11    12    2
    12     2    13    1
    13    13    14   ar
    14    14    15   ar
    15    15    16   ar
    16    16    17    1
    17    17    18    1
    18    18    19    1
    19    19    20   ar
    20    20    21   ar
    21    21    22    1
    22    21    23   ar
    23    23    24   ar
    24    24    25   ar
    25    25    26    1
    26    16    27   ar
    27    27    28   ar
    28    28    29    1
    29    29    30    1
    30    30    31    1
    31    31    32    1
    32    32    33    1
    33    33    34    1
    34    11     7   am
    35    28    13   ar
    36    34    30    1
    37    25    19   ar
    38     3    35    1
    39     4    36    1
    40     4    37    1
    41     5    38    1
    42     5    39    1
    43     6    40    1
    44     6    41    1
    45     8    42    1
    46     8    43    1
    47     9    44    1
    48     9    45    1
    49    14    46    1
    50    17    47    1
    51    18    48    1
    52    18    49    1
    53    20    50    1
    54    23    51    1
    55    24    52    1
    56    29    53    1
    57    30    54    1
    58    31    55    1
    59    31    56    1
    60    32    57    1
    61    32    58    1
    62    33    59    1
    63    33    60    1
    64    34    61    1
    65    34    62    1
