
     RDKit          3D

 62 65  0  0  0  0  0  0  0  0999 V2000
    1.8777   -0.2593   -0.1128 O   0  0  0  0  0  0  0  0  0  0  0  0
    1.1176    0.5051    0.5322 C   0  0  0  0  0  0  0  0  0  0  0  0
    1.7650    1.6518    1.0838 N   0  0  0  0  0  0  0  0  0  0  0  0
    3.1906    1.8994    0.9133 C   0  0  0  0  0  0  0  0  0  0  0  0
    3.9897    0.8187    1.5423 C   0  0  0  0  0  0  0  0  0  0  0  0
    5.4831    1.0313    1.4129 C   0  0  0  0  0  0  0  0  0  0  0  0
    5.9675    1.1011    0.0779 N   0  0  0  0  0  0  0  0  0  0  0  0
    6.1269    2.2855   -0.7301 C   0  0  0  0  0  0  0  0  0  0  0  0
    7.3220    1.9016   -1.5880 C   0  0  0  0  0  0  0  0  0  0  0  0
    7.0246    0.5629   -1.8963 O   0  0  0  0  0  0  0  0  0  0  0  0
    6.4124    0.0302   -0.7465 C   0  0  0  0  0  0  0  0  0  0  0  0
    6.2766   -1.1909   -0.4831 O   0  0  0  0  0  0  0  0  0  0  0  0
   -0.3004    0.2592    0.7123 C   0  0  0  0  0  0  0  0  0  0  0  0
   -1.0916    1.1679    1.3805 C   0  0  0  0  0  0  0  0  0  0  0  0
   -2.4308    0.9982    1.5751 N   0  0  0  0  0  0  0  0  0  0  0  0
   -2.9913   -0.1132    1.0863 C   0  0  0  0  0  0  0  0  0  0  0  0
   -4.3928   -0.3562    1.2494 N   0  0  0  0  0  0  0  0  0  0  0  0
   -5.3325    0.0952    0.2149 C   0  0  0  0  0  0  0  0  0  0  0  0
   -5.2792    1.5446    0.0114 C   0  0  0  0  0  0  0  0  0  0  0  0
   -4.6231    2.0410   -1.0980 C   0  0  0  0  0  0  0  0  0  0  0  0
   -4.5901    3.4131   -1.2590 C   0  0  0  0  0  0  0  0  0  0  0  0
   -3.7638    4.0786   -2.6595 Cl  0  0  0  0  0  0  0  0  0  0  0  0
   -5.1850    4.2530   -0.3537 C   0  0  0  0  0  0  0  0  0  0  0  0
   -5.8423    3.7621    0.7570 C   0  0  0  0  0  0  0  0  0  0  0  0
   -5.8859    2.3972    0.9346 C   0  0  0  0  0  0  0  0  0  0  0  0
   -6.7182    1.7708    2.3407 Cl  0  0  0  0  0  0  0  0  0  0  0  0
   -2.2461   -0.9859    0.4481 N   0  0  0  0  0  0  0  0  0  0  0  0
   -0.9017   -0.8829    0.2157 C   0  0  0  0  0  0  0  0  0  0  0  0
   -0.2282   -1.9092   -0.4963 N   0  0  0  0  0  0  0  0  0  0  0  0
   -1.0375   -3.0468   -0.9224 C   0  0  0  0  0  0  0  0  0  0  0  0
   -1.6274   -3.8129    0.2391 C   0  0  0  0  0  0  0  0  0  0  0  0
   -2.1453   -5.0534   -0.5042 C   0  0  0  0  0  0  0  0  0  0  0  0
   -1.0422   -5.3524   -1.4645 C   0  0  0  0  0  0  0  0  0  0  0  0
   -0.2008   -4.1048   -1.5919 C   0  0  0  0  0  0  0  0  0  0  0  0
    1.2057    2.3390    1.6299 H   0  0  0  0  0  0  0  0  0  0  0  0
    3.3433    1.9538   -0.2033 H   0  0  0  0  0  0  0  0  0  0  0  0
    3.4249    2.8976    1.2854 H   0  0  0  0  0  0  0  0  0  0  0  0
    3.8062    0.7863    2.6580 H   0  0  0  0  0  0  0  0  0  0  0  0
    3.6887   -0.1616    1.1656 H   0  0  0  0  0  0  0  0  0  0  0  0
    5.9686    0.2469    2.0269 H   0  0  0  0  0  0  0  0  0  0  0  0
    5.7065    2.0150    1.9197 H   0  0  0  0  0  0  0  0  0  0  0  0
    5.3017    2.4759   -1.4238 H   0  0  0  0  0  0  0  0  0  0  0  0
    6.4041    3.1783   -0.1542 H   0  0  0  0  0  0  0  0  0  0  0  0
    8.2254    1.9613   -0.9290 H   0  0  0  0  0  0  0  0  0  0  0  0
    7.3967    2.5720   -2.4504 H   0  0  0  0  0  0  0  0  0  0  0  0
   -0.6414    2.0601    1.7716 H   0  0  0  0  0  0  0  0  0  0  0  0
   -4.6870   -0.8536    2.1141 H   0  0  0  0  0  0  0  0  0  0  0  0
   -5.0779   -0.4165   -0.7343 H   0  0  0  0  0  0  0  0  0  0  0  0
   -6.3455   -0.2661    0.4889 H   0  0  0  0  0  0  0  0  0  0  0  0
   -4.1360    1.4225   -1.8430 H   0  0  0  0  0  0  0  0  0  0  0  0
   -5.1134    5.3202   -0.5533 H   0  0  0  0  0  0  0  0  0  0  0  0
   -6.3002    4.4608    1.4493 H   0  0  0  0  0  0  0  0  0  0  0  0
    0.7649   -1.8556   -0.6991 H   0  0  0  0  0  0  0  0  0  0  0  0
   -1.8394   -2.6861   -1.5685 H   0  0  0  0  0  0  0  0  0  0  0  0
   -2.4254   -3.3054    0.7743 H   0  0  0  0  0  0  0  0  0  0  0  0
   -0.8013   -4.1608    0.9258 H   0  0  0  0  0  0  0  0  0  0  0  0
   -3.0388   -4.6948   -1.0782 H   0  0  0  0  0  0  0  0  0  0  0  0
   -2.3886   -5.8700    0.1818 H   0  0  0  0  0  0  0  0  0  0  0  0
   -1.4666   -5.5691   -2.4761 H   0  0  0  0  0  0  0  0  0  0  0  0
   -0.4389   -6.2183   -1.1178 H   0  0  0  0  0  0  0  0  0  0  0  0
    0.7131   -4.2705   -0.9706 H   0  0  0  0  0  0  0  0  0  0  0  0
    0.0526   -3.8620   -2.6269 H   0  0  0  0  0  0  0  0  0  0  0  0
  1  2  2  0
  2  3  1  0
  3  4  1  0
  4  5  1  0
  5  6  1  0
  6  7  1  0
  7  8  1  0
  8  9  1  0
  9 10  1  0
 10 11  1  0
 11 12  2  0
  2 13  1  0
 13 14  2  0
 14 15  1  0
 15 16  2  0
 16 17  1  0
 17 18  1  0
 18 19  1  0
 19 20  2  0
 20 21  1  0
 21 22  1  0
 21 23  2  0
 23 24  1  0
 24 25  2  0
 25 26  1  0
 16 27  1  0
 27 28  2  0
 28 29  1  0
 29 30  1  0
 30 31  1  0
 31 32  1  0
 32 33  1  0
 33 34  1  0
 11  7  1  0
 28 13  1  0
 34 30  1  0
 25 19  1  0
  3 35  1  0
  4 36  1  0
  4 37  1  0
  5 38  1  0
  5 39  1  0
  6 40  1  0
  6 41  1  0
  8 42  1  0
  8 43  1  0
  9 44  1  0
  9 45  1  0
 14 46  1  0
 17 47  1  0
 18 48  1  0
 18 49  1  0
 20 50  1  0
 23 51  1  0
 24 52  1  0
 29 53  1  0
 30 54  1  0
 31 55  1  0
 31 56  1  0
 32 57  1  0
 32 58  1  0
 33 59  1  0
 33 60  1  0
 34 61  1  0
 34 62  1  0
M  END
$$$$
