@<TRIPOS>MOLECULE
*****
 62 65 0 0 0
SMALL
GASTEIGER

@<TRIPOS>ATOM
      1 C           4.7030    2.7169    0.5791 C.3     1  UNL1        0.0196
      2 N           3.6732    1.6839    0.4519 N.ar    1  UNL1       -0.2623
      3 C           2.4062    1.9898    0.7038 C.ar    1  UNL1        0.2806
      4 O           2.1000    3.1326    1.0466 O.2     1  UNL1       -0.2652
      5 C           1.4065    1.0457    0.5903 C.ar    1  UNL1        0.1329
      6 C           1.7963   -0.2191    0.2037 C.ar    1  UNL1        0.0783
      7 C           0.6306   -0.9505    0.1670 C.ar    1  UNL1        0.0025
      8 C          -0.4494   -0.1373    0.5269 C.ar    1  UNL1        0.1043
      9 N          -1.7677   -0.6824    0.5939 N.pl3   1  UNL1       -0.3147
     10 C          -2.9530   -0.0261    1.0543 C.3     1  UNL1        0.0136
     11 C          -4.1727   -0.9526    0.8099 C.3     1  UNL1       -0.0355
     12 C          -4.2057   -1.1924   -0.6845 C.3     1  UNL1       -0.0322
     13 C          -3.0446   -2.1569   -0.9387 C.3     1  UNL1        0.0296
     14 C          -3.6490   -3.5573   -0.9520 C.3     1  UNL1       -0.0455
     15 N          -2.4615   -1.8874   -2.2242 N.3     1  UNL1       -0.3236
     16 C          -2.0324   -2.0787    0.1788 C.3     1  UNL1        0.0313
     17 N           0.0721    1.0935    0.7806 N.ar    1  UNL1       -0.3187
     18 C          -0.7600    2.1862    1.1195 C.3     1  UNL1        0.0516
     19 C          -1.2037    3.1749    0.1998 C.ar    1  UNL1       -0.0067
     20 C          -1.8706    2.8275   -0.9685 C.ar    1  UNL1       -0.0202
     21 C          -2.2165    3.7367   -1.9531 C.ar    1  UNL1        0.1238
     22 F          -2.8646    3.4171   -3.0919 F       1  UNL1       -0.2055
     23 C          -1.8874    5.0588   -1.7800 C.ar    1  UNL1       -0.0251
     24 C          -1.2293    5.4296   -0.6364 C.ar    1  UNL1       -0.0404
     25 C          -0.9109    4.4996    0.3074 C.ar    1  UNL1        0.0460
     26 CL         -0.1782    5.1151    1.7704 Cl      1  UNL1       -0.0832
     27 N           3.0880   -0.4813   -0.0399 N.ar    1  UNL1       -0.2916
     28 C           3.4447   -1.8210   -0.4504 C.3     1  UNL1        0.0302
     29 C           3.7499   -2.7314    0.7113 C.3     1  UNL1       -0.0115
     30 C           4.1324   -4.1269    0.2215 C.3     1  UNL1        0.0458
     31 O           5.2725   -3.9698   -0.5739 O.3     1  UNL1       -0.3949
     32 C           4.0446    0.4543    0.0776 C.ar    1  UNL1        0.3322
     33 O           5.2683    0.1990   -0.1551 O.2     1  UNL1       -0.2462
     34 H           5.5214    2.3591    1.2216 H       1  UNL1        0.0458
     35 H           4.2729    3.6690    0.9310 H       1  UNL1        0.0458
     36 H           5.1601    2.9268   -0.4127 H       1  UNL1        0.0458
     37 H           0.6481   -1.9934   -0.1080 H       1  UNL1        0.0673
     38 H          -3.2625    0.8859    0.5595 H       1  UNL1        0.0464
     39 H          -2.9729    0.0297    2.1923 H       1  UNL1        0.0464
     40 H          -4.0814   -1.8613    1.4141 H       1  UNL1        0.0281
     41 H          -5.0919   -0.4169    1.1412 H       1  UNL1        0.0281
     42 H          -5.1788   -1.6299   -0.9908 H       1  UNL1        0.0284
     43 H          -4.0354   -0.2474   -1.2221 H       1  UNL1        0.0284
     44 H          -2.9355   -4.2953   -1.4225 H       1  UNL1        0.0248
     45 H          -3.8811   -3.9011    0.0826 H       1  UNL1        0.0248
     46 H          -4.5679   -3.6347   -1.5409 H       1  UNL1        0.0248
     47 H          -1.9322   -2.7213   -2.5961 H       1  UNL1        0.1188
     48 H          -3.1850   -1.6530   -2.9399 H       1  UNL1        0.1188
     49 H          -1.1131   -2.5176   -0.2242 H       1  UNL1        0.0482
     50 H          -2.2932   -2.6928    1.0656 H       1  UNL1        0.0482
     51 H          -1.5958    1.8613    1.7359 H       1  UNL1        0.0542
     52 H          -0.1142    2.7325    1.9328 H       1  UNL1        0.0542
     53 H          -2.1572    1.7981   -1.2057 H       1  UNL1        0.0650
     54 H          -2.1495    5.7962   -2.5499 H       1  UNL1        0.0647
     55 H          -0.9842    6.4915   -0.5369 H       1  UNL1        0.0633
     56 H           4.3609   -1.7321   -1.0878 H       1  UNL1        0.0494
     57 H           2.6756   -2.2931   -1.0909 H       1  UNL1        0.0494
     58 H           4.6420   -2.3427    1.2490 H       1  UNL1        0.0304
     59 H           2.8628   -2.8761    1.3623 H       1  UNL1        0.0304
     60 H           3.3145   -4.5980   -0.3293 H       1  UNL1        0.0558
     61 H           4.3583   -4.7306    1.1154 H       1  UNL1        0.0558
     62 H           5.7835   -3.2029   -0.1985 H       1  UNL1        0.2094
@<TRIPOS>BOND
     1     1     2    1
     2     2     3   ar
     3     3     4    2
     4     3     5   ar
     5     5     6   ar
     6     6     7   ar
     7     7     8   ar
     8     8     9    1
     9     9    10    1
    10    10    11    1
    11    11    12    1
    12    12    13    1
    13    13    14    1
    14    13    15    1
    15    13    16    1
    16     8    17   ar
    17    17    18    1
    18    18    19    1
    19    19    20   ar
    20    20    21   ar
    21    21    22    1
    22    21    23   ar
    23    23    24   ar
    24    24    25   ar
    25    25    26    1
    26     6    27   ar
    27    27    28    1
    28    28    29    1
    29    29    30    1
    30    30    31    1
    31    27    32   ar
    32    32    33    2
    33    32     2   ar
    34    17     5   ar
    35    25    19   ar
    36    16     9    1
    37     1    34    1
    38     1    35    1
    39     1    36    1
    40     7    37    1
    41    10    38    1
    42    10    39    1
    43    11    40    1
    44    11    41    1
    45    12    42    1
    46    12    43    1
    47    14    44    1
    48    14    45    1
    49    14    46    1
    50    15    47    1
    51    15    48    1
    52    16    49    1
    53    16    50    1
    54    18    51    1
    55    18    52    1
    56    20    53    1
    57    23    54    1
    58    24    55    1
    59    28    56    1
    60    28    57    1
    61    29    58    1
    62    29    59    1
    63    30    60    1
    64    30    61    1
    65    31    62    1
