
     RDKit          3D

 62 65  0  0  0  0  0  0  0  0999 V2000
    4.7030    2.7169    0.5791 C   0  0  0  0  0  0  0  0  0  0  0  0
    3.6732    1.6839    0.4519 N   0  0  0  0  0  0  0  0  0  0  0  0
    2.4062    1.9898    0.7038 C   0  0  0  0  0  0  0  0  0  0  0  0
    2.1000    3.1326    1.0466 O   0  0  0  0  0  0  0  0  0  0  0  0
    1.4065    1.0457    0.5903 C   0  0  0  0  0  0  0  0  0  0  0  0
    1.7963   -0.2191    0.2037 C   0  0  0  0  0  0  0  0  0  0  0  0
    0.6306   -0.9505    0.1670 C   0  0  0  0  0  0  0  0  0  0  0  0
   -0.4494   -0.1373    0.5269 C   0  0  0  0  0  0  0  0  0  0  0  0
   -1.7677   -0.6824    0.5939 N   0  0  0  0  0  0  0  0  0  0  0  0
   -2.9530   -0.0261    1.0543 C   0  0  0  0  0  0  0  0  0  0  0  0
   -4.1727   -0.9526    0.8099 C   0  0  0  0  0  0  0  0  0  0  0  0
   -4.2057   -1.1924   -0.6845 C   0  0  0  0  0  0  0  0  0  0  0  0
   -3.0446   -2.1569   -0.9387 C   0  0  1  0  0  0  0  0  0  0  0  0
   -3.6490   -3.5573   -0.9520 C   0  0  0  0  0  0  0  0  0  0  0  0
   -2.4615   -1.8874   -2.2242 N   0  0  0  0  0  0  0  0  0  0  0  0
   -2.0324   -2.0787    0.1788 C   0  0  0  0  0  0  0  0  0  0  0  0
    0.0721    1.0935    0.7806 N   0  0  0  0  0  0  0  0  0  0  0  0
   -0.7600    2.1862    1.1195 C   0  0  0  0  0  0  0  0  0  0  0  0
   -1.2037    3.1749    0.1998 C   0  0  0  0  0  0  0  0  0  0  0  0
   -1.8706    2.8275   -0.9685 C   0  0  0  0  0  0  0  0  0  0  0  0
   -2.2165    3.7367   -1.9531 C   0  0  0  0  0  0  0  0  0  0  0  0
   -2.8646    3.4171   -3.0919 F   0  0  0  0  0  0  0  0  0  0  0  0
   -1.8874    5.0588   -1.7800 C   0  0  0  0  0  0  0  0  0  0  0  0
   -1.2293    5.4296   -0.6364 C   0  0  0  0  0  0  0  0  0  0  0  0
   -0.9109    4.4996    0.3074 C   0  0  0  0  0  0  0  0  0  0  0  0
   -0.1782    5.1151    1.7704 Cl  0  0  0  0  0  0  0  0  0  0  0  0
    3.0880   -0.4813   -0.0399 N   0  0  0  0  0  0  0  0  0  0  0  0
    3.4447   -1.8210   -0.4504 C   0  0  0  0  0  0  0  0  0  0  0  0
    3.7499   -2.7314    0.7113 C   0  0  0  0  0  0  0  0  0  0  0  0
    4.1324   -4.1269    0.2215 C   0  0  0  0  0  0  0  0  0  0  0  0
    5.2725   -3.9698   -0.5739 O   0  0  0  0  0  0  0  0  0  0  0  0
    4.0446    0.4543    0.0776 C   0  0  0  0  0  0  0  0  0  0  0  0
    5.2683    0.1990   -0.1551 O   0  0  0  0  0  0  0  0  0  0  0  0
    5.5214    2.3591    1.2216 H   0  0  0  0  0  0  0  0  0  0  0  0
    4.2729    3.6690    0.9310 H   0  0  0  0  0  0  0  0  0  0  0  0
    5.1601    2.9268   -0.4127 H   0  0  0  0  0  0  0  0  0  0  0  0
    0.6481   -1.9934   -0.1080 H   0  0  0  0  0  0  0  0  0  0  0  0
   -3.2625    0.8859    0.5595 H   0  0  0  0  0  0  0  0  0  0  0  0
   -2.9729    0.0297    2.1923 H   0  0  0  0  0  0  0  0  0  0  0  0
   -4.0814   -1.8613    1.4141 H   0  0  0  0  0  0  0  0  0  0  0  0
   -5.0919   -0.4169    1.1412 H   0  0  0  0  0  0  0  0  0  0  0  0
   -5.1788   -1.6299   -0.9908 H   0  0  0  0  0  0  0  0  0  0  0  0
   -4.0354   -0.2474   -1.2221 H   0  0  0  0  0  0  0  0  0  0  0  0
   -2.9355   -4.2953   -1.4225 H   0  0  0  0  0  0  0  0  0  0  0  0
   -3.8811   -3.9011    0.0826 H   0  0  0  0  0  0  0  0  0  0  0  0
   -4.5679   -3.6347   -1.5409 H   0  0  0  0  0  0  0  0  0  0  0  0
   -1.9322   -2.7213   -2.5961 H   0  0  0  0  0  0  0  0  0  0  0  0
   -3.1850   -1.6530   -2.9399 H   0  0  0  0  0  0  0  0  0  0  0  0
   -1.1131   -2.5176   -0.2242 H   0  0  0  0  0  0  0  0  0  0  0  0
   -2.2932   -2.6928    1.0656 H   0  0  0  0  0  0  0  0  0  0  0  0
   -1.5958    1.8613    1.7359 H   0  0  0  0  0  0  0  0  0  0  0  0
   -0.1142    2.7325    1.9328 H   0  0  0  0  0  0  0  0  0  0  0  0
   -2.1572    1.7981   -1.2057 H   0  0  0  0  0  0  0  0  0  0  0  0
   -2.1495    5.7962   -2.5499 H   0  0  0  0  0  0  0  0  0  0  0  0
   -0.9842    6.4915   -0.5369 H   0  0  0  0  0  0  0  0  0  0  0  0
    4.3609   -1.7321   -1.0878 H   0  0  0  0  0  0  0  0  0  0  0  0
    2.6756   -2.2931   -1.0909 H   0  0  0  0  0  0  0  0  0  0  0  0
    4.6420   -2.3427    1.2490 H   0  0  0  0  0  0  0  0  0  0  0  0
    2.8628   -2.8761    1.3623 H   0  0  0  0  0  0  0  0  0  0  0  0
    3.3145   -4.5980   -0.3293 H   0  0  0  0  0  0  0  0  0  0  0  0
    4.3583   -4.7306    1.1154 H   0  0  0  0  0  0  0  0  0  0  0  0
    5.7835   -3.2029   -0.1985 H   0  0  0  0  0  0  0  0  0  0  0  0
  1  2  1  0
  2  3  1  0
  3  4  2  0
  3  5  1  0
  5  6  2  0
  6  7  1  0
  7  8  2  0
  8  9  1  0
  9 10  1  0
 10 11  1  0
 11 12  1  0
 12 13  1  0
 13 14  1  0
 13 15  1  6
 13 16  1  0
  8 17  1  0
 17 18  1  0
 18 19  1  0
 19 20  2  0
 20 21  1  0
 21 22  1  0
 21 23  2  0
 23 24  1  0
 24 25  2  0
 25 26  1  0
  6 27  1  0
 27 28  1  0
 28 29  1  0
 29 30  1  0
 30 31  1  0
 27 32  1  0
 32 33  2  0
 32  2  1  0
 17  5  1  0
 25 19  1  0
 16  9  1  0
  1 34  1  0
  1 35  1  0
  1 36  1  0
  7 37  1  0
 10 38  1  0
 10 39  1  0
 11 40  1  0
 11 41  1  0
 12 42  1  0
 12 43  1  0
 14 44  1  0
 14 45  1  0
 14 46  1  0
 15 47  1  0
 15 48  1  0
 16 49  1  0
 16 50  1  0
 18 51  1  0
 18 52  1  0
 20 53  1  0
 23 54  1  0
 24 55  1  0
 28 56  1  0
 28 57  1  0
 29 58  1  0
 29 59  1  0
 30 60  1  0
 30 61  1  0
 31 62  1  0
M  END
$$$$
