
     RDKit          3D

 43 45  0  0  0  0  0  0  0  0999 V2000
   -0.2676    0.1400   -0.2375 C   0  0  0  0  0  0  0  0  0  0  0  0
   -1.1889    1.0417    0.1379 C   0  0  0  0  0  0  0  0  0  0  0  0
   -1.0013    2.3696    0.7632 C   0  0  0  0  0  0  0  0  0  0  0  0
   -1.6402    3.4061   -0.1289 C   0  0  0  0  0  0  0  0  0  0  0  0
   -2.8136    2.9379   -0.8978 C   0  0  0  0  0  0  0  0  0  0  0  0
   -3.3095    1.6337   -0.6406 N   0  0  0  0  0  0  0  0  0  0  0  0
   -2.5922    0.6568   -0.1407 C   0  0  0  0  0  0  0  0  0  0  0  0
   -3.1161   -0.6720    0.0724 C   0  0  0  0  0  0  0  0  0  0  0  0
   -2.5944   -1.8067    0.6318 C   0  0  0  0  0  0  0  0  0  0  0  0
   -3.2155   -2.9904    0.7135 N   0  0  0  0  0  0  0  0  0  0  0  0
   -4.4625   -3.1843    0.2353 C   0  0  0  0  0  0  0  0  0  0  0  0
   -5.0581   -2.0873   -0.3432 C   0  0  0  0  0  0  0  0  0  0  0  0
   -4.4154   -0.8723   -0.4251 C   0  0  0  0  0  0  0  0  0  0  0  0
    1.1676    0.2536   -0.1195 C   0  0  0  0  0  0  0  0  0  0  0  0
    1.8870   -0.7956    0.4055 C   0  0  0  0  0  0  0  0  0  0  0  0
    1.1948   -1.9204    0.8278 O   0  0  0  0  0  0  0  0  0  0  0  0
    1.8718   -3.0242    1.3747 C   0  0  0  0  0  0  0  0  0  0  0  0
    3.2457   -0.6894    0.4903 C   0  0  0  0  0  0  0  0  0  0  0  0
    3.9438    0.4235    0.0743 C   0  0  0  0  0  0  0  0  0  0  0  0
    5.3126    0.5973    0.1300 O   0  0  0  0  0  0  0  0  0  0  0  0
    6.1887   -0.3693    0.6337 C   0  0  0  0  0  0  0  0  0  0  0  0
    3.2088    1.4834   -0.4571 C   0  0  0  0  0  0  0  0  0  0  0  0
    1.8194    1.4080   -0.5582 C   0  0  0  0  0  0  0  0  0  0  0  0
   -0.5532   -0.8133   -0.7128 H   0  0  0  0  0  0  0  0  0  0  0  0
   -1.4968    2.4422    1.7683 H   0  0  0  0  0  0  0  0  0  0  0  0
    0.0516    2.6027    0.9229 H   0  0  0  0  0  0  0  0  0  0  0  0
   -1.8551    4.2760    0.5213 H   0  0  0  0  0  0  0  0  0  0  0  0
   -0.8116    3.7589   -0.8061 H   0  0  0  0  0  0  0  0  0  0  0  0
   -3.6668    3.6468   -0.6742 H   0  0  0  0  0  0  0  0  0  0  0  0
   -2.6167    3.1209   -1.9921 H   0  0  0  0  0  0  0  0  0  0  0  0
   -1.6209   -1.6819    1.0444 H   0  0  0  0  0  0  0  0  0  0  0  0
   -4.8856   -4.1600    0.3406 H   0  0  0  0  0  0  0  0  0  0  0  0
   -6.0615   -2.2371   -0.7296 H   0  0  0  0  0  0  0  0  0  0  0  0
   -4.9951   -0.0917   -0.9031 H   0  0  0  0  0  0  0  0  0  0  0  0
    2.6152   -2.6948    2.1241 H   0  0  0  0  0  0  0  0  0  0  0  0
    1.1812   -3.7190    1.9099 H   0  0  0  0  0  0  0  0  0  0  0  0
    2.3898   -3.6163    0.6135 H   0  0  0  0  0  0  0  0  0  0  0  0
    3.7935   -1.5049    0.8974 H   0  0  0  0  0  0  0  0  0  0  0  0
    7.1615   -0.3775    0.0750 H   0  0  0  0  0  0  0  0  0  0  0  0
    5.7902   -1.3901    0.5749 H   0  0  0  0  0  0  0  0  0  0  0  0
    6.3563   -0.1546    1.7152 H   0  0  0  0  0  0  0  0  0  0  0  0
    3.7228    2.3845   -0.7979 H   0  0  0  0  0  0  0  0  0  0  0  0
    1.3365    2.2694   -0.9921 H   0  0  0  0  0  0  0  0  0  0  0  0
  1  2  2  0
  2  3  1  0
  3  4  1  0
  4  5  1  0
  5  6  1  0
  6  7  2  0
  7  8  1  0
  8  9  2  0
  9 10  1  0
 10 11  2  0
 11 12  1  0
 12 13  2  0
  1 14  1  0
 14 15  2  0
 15 16  1  0
 16 17  1  0
 15 18  1  0
 18 19  2  0
 19 20  1  0
 20 21  1  0
 19 22  1  0
 22 23  2  0
  7  2  1  0
 13  8  1  0
 23 14  1  0
  1 24  1  0
  3 25  1  0
  3 26  1  0
  4 27  1  0
  4 28  1  0
  5 29  1  0
  5 30  1  0
  9 31  1  0
 11 32  1  0
 12 33  1  0
 13 34  1  0
 17 35  1  0
 17 36  1  0
 17 37  1  0
 18 38  1  0
 21 39  1  0
 21 40  1  0
 21 41  1  0
 22 42  1  0
 23 43  1  0
M  END
$$$$
