@<TRIPOS>MOLECULE
*****
 48 50 0 0 0
SMALL
GASTEIGER

@<TRIPOS>ATOM
      1 N          -4.1977    2.8496   -0.6791 N.pl3   1  UNL1       -0.3565
      2 C          -4.9676    2.1780    0.2898 C.ar    1  UNL1        0.0461
      3 C          -6.1123    2.7611    0.7861 C.ar    1  UNL1       -0.0392
      4 C          -6.8915    2.1390    1.7254 C.ar    1  UNL1       -0.0599
      5 C          -6.5186    0.8944    2.1870 C.ar    1  UNL1       -0.0599
      6 C          -5.3832    0.2940    1.7084 C.ar    1  UNL1       -0.0387
      7 C          -4.5996    0.9055    0.7718 C.ar    1  UNL1        0.0545
      8 N          -3.4240    0.3654    0.2080 N.am    1  UNL1       -0.2800
      9 C          -2.8775   -0.9240    0.4593 C.2     1  UNL1        0.2483
     10 O          -3.4624   -1.6876    1.2480 O.2     1  UNL1       -0.2699
     11 C          -1.6497   -1.4015   -0.1701 C.ar    1  UNL1        0.0370
     12 C          -1.2296   -2.6867    0.0953 C.ar    1  UNL1       -0.0493
     13 C          -0.0899   -3.2346   -0.4420 C.ar    1  UNL1       -0.0564
     14 C           0.7070   -2.4935   -1.2988 C.ar    1  UNL1       -0.0302
     15 C           1.9121   -3.0704   -1.8784 C.3     1  UNL1        0.0400
     16 N           3.1244   -2.9000   -1.1320 N.am    1  UNL1       -0.2770
     17 C           3.9242   -1.7074   -1.1155 C.2     1  UNL1        0.4008
     18 O           3.5360   -0.7456   -1.8071 O.2     1  UNL1       -0.2265
     19 O           5.0666   -1.5906   -0.3890 O.3     1  UNL1       -0.4456
     20 C           5.9334   -0.4949   -0.2936 C.3     1  UNL1        0.1205
     21 C           5.2569    0.7130    0.2170 C.ar    1  UNL1        0.0078
     22 C           5.1513    0.8481    1.5996 C.ar    1  UNL1       -0.0525
     23 C           4.5584    1.9565    2.1480 C.ar    1  UNL1       -0.0432
     24 C           4.0679    2.9377    1.2753 C.ar    1  UNL1        0.0276
     25 N           4.1829    2.7814   -0.0489 N.ar    1  UNL1       -0.2629
     26 C           4.7605    1.7026   -0.5922 C.ar    1  UNL1        0.0339
     27 C           0.2984   -1.2152   -1.5695 C.ar    1  UNL1       -0.0564
     28 C          -0.8646   -0.6559   -1.0214 C.ar    1  UNL1       -0.0493
     29 H          -3.8875    3.8545   -0.5589 H       1  UNL1        0.1424
     30 H          -3.8964    2.3662   -1.5783 H       1  UNL1        0.1424
     31 H          -6.4374    3.7464    0.4441 H       1  UNL1        0.0636
     32 H          -7.7935    2.5913    2.1214 H       1  UNL1        0.0618
     33 H          -7.1516    0.4152    2.9334 H       1  UNL1        0.0618
     34 H          -5.1440   -0.6658    2.1006 H       1  UNL1        0.0637
     35 H          -2.8678    0.9454   -0.4685 H       1  UNL1        0.1552
     36 H          -1.8087   -3.3455    0.7676 H       1  UNL1        0.0625
     37 H           0.2352   -4.2483   -0.2282 H       1  UNL1        0.0621
     38 H           1.6967   -4.1622   -2.0506 H       1  UNL1        0.0513
     39 H           2.0664   -2.6157   -2.8891 H       1  UNL1        0.0513
     40 H           3.4668   -3.6906   -0.5480 H       1  UNL1        0.1523
     41 H           6.3592   -0.3104   -1.3257 H       1  UNL1        0.0750
     42 H           6.8013   -0.7649    0.3767 H       1  UNL1        0.0750
     43 H           5.5240    0.1037    2.2733 H       1  UNL1        0.0622
     44 H           4.4790    2.0580    3.2154 H       1  UNL1        0.0633
     45 H           3.6019    3.8069    1.7265 H       1  UNL1        0.0829
     46 H           4.8545    1.5974   -1.6866 H       1  UNL1        0.0833
     47 H           0.8456   -0.5549   -2.2273 H       1  UNL1        0.0621
     48 H          -1.1553    0.3548   -1.2552 H       1  UNL1        0.0625
@<TRIPOS>BOND
     1     1     2    1
     2     2     3   ar
     3     3     4   ar
     4     4     5   ar
     5     5     6   ar
     6     6     7   ar
     7     7     8    1
     8     8     9   am
     9     9    10    2
    10     9    11    1
    11    11    12   ar
    12    12    13   ar
    13    13    14   ar
    14    14    15    1
    15    15    16    1
    16    16    17   am
    17    17    18    2
    18    17    19    1
    19    19    20    1
    20    20    21    1
    21    21    22   ar
    22    22    23   ar
    23    23    24   ar
    24    24    25   ar
    25    25    26   ar
    26    14    27   ar
    27    27    28   ar
    28     7     2   ar
    29    28    11   ar
    30    26    21   ar
    31     1    29    1
    32     1    30    1
    33     3    31    1
    34     4    32    1
    35     5    33    1
    36     6    34    1
    37     8    35    1
    38    12    36    1
    39    13    37    1
    40    15    38    1
    41    15    39    1
    42    16    40    1
    43    20    41    1
    44    20    42    1
    45    22    43    1
    46    23    44    1
    47    24    45    1
    48    26    46    1
    49    27    47    1
    50    28    48    1
