@<TRIPOS>MOLECULE
*****
 66 68 0 0 0
SMALL
GASTEIGER

@<TRIPOS>ATOM
      1 NH1         7.5162   -1.5119   -2.2132 N.pl3   1  UNL1       -0.1298
      2 CZ          7.0760   -1.4206   -1.0153 C.cat   1  UNL1        0.3762
      3 NH2         6.9609   -2.5969   -0.2314 N.pl3   1  UNL1       -0.2893
      4 NE          6.7132   -0.1356   -0.5048 N.pl3   1  UNL1       -0.2761
      5 CD          6.1544    0.8724   -1.3765 C.3     1  UNL1        0.0647
      6 CG          4.7562    0.4671   -1.8464 C.3     1  UNL1       -0.0202
      7 CB          3.8569    0.3112   -0.6674 C.3     1  UNL1       -0.0250
      8 CA          2.4491   -0.0818   -0.9599 C.3     1  UNL1        0.0786
      9 C           2.4320   -1.3934   -1.6472 C.2     1  UNL1        0.1404
     10 O           2.8969   -1.6264   -2.7431 O.2     1  UNL1       -0.2991
     11 N           1.7569   -0.2305    0.3146 N.am    1  UNL1       -0.3044
     12 C           0.5499    0.4929    0.5899 C.2     1  UNL1        0.2341
     13 O           0.1392    1.2324   -0.3034 O.2     1  UNL1       -0.2738
     14 CA         -0.0813    0.3131    1.8520 C.3     1  UNL1        0.1023
     15 CB         -0.1530   -1.1145    2.3721 C.3     1  UNL1       -0.0243
     16 CG         -0.8517   -0.8921    3.6972 C.3     1  UNL1       -0.0350
     17 CD         -1.3529    0.5344    3.6674 C.3     1  UNL1        0.0156
     18 N          -1.3553    0.8251    2.1701 N.am    1  UNL1       -0.2886
     19 C          -2.4635    1.4552    1.6281 C.2     1  UNL1        0.2335
     20 O          -3.3866    1.7514    2.5247 O.2     1  UNL1       -0.2739
     21 CA         -2.8433    1.8713    0.2902 C.3     1  UNL1        0.0881
     22 N          -4.0726    2.7231    0.3509 N.3     1  UNL1       -0.3054
     23 C          -5.2650    1.9623    0.4887 C.3     1  UNL1       -0.0032
     24 C          -5.5137    1.0428   -0.6883 C.3     1  UNL1       -0.0373
     25 C          -4.2990    1.0245   -1.5765 C.3     1  UNL1       -0.0352
     26 C          -4.4925    0.0236   -2.6532 C.3     1  UNL1       -0.0499
     27 C          -3.4801   -1.0684   -2.5569 C.3     1  UNL1       -0.0528
     28 C          -3.5152   -1.6049   -1.1522 C.3     1  UNL1       -0.0527
     29 C          -2.9928   -0.5753   -0.1648 C.3     1  UNL1       -0.0481
     30 C          -3.0329    0.8162   -0.7475 C.3     1  UNL1       -0.0142
     31 HH1         7.7818   -2.4414   -2.5938 H       1  UNL1        0.3062
     32 HH21        7.5758   -2.6958    0.6026 H       1  UNL1        0.2546
     33 HH22        6.2606   -3.3070   -0.5332 H       1  UNL1        0.2546
     34 HE          6.8491    0.0747    0.4996 H       1  UNL1        0.2579
     35 HD1         6.8208    1.0316   -2.2483 H       1  UNL1        0.0655
     36 HD2         6.0943    1.8429   -0.8391 H       1  UNL1        0.0655
     37 HG1         4.8248   -0.4165   -2.5039 H       1  UNL1        0.0296
     38 HG2         4.3726    1.3286   -2.4434 H       1  UNL1        0.0296
     39 HB1         3.8607    1.2768   -0.0824 H       1  UNL1        0.0288
     40 HB2         4.3566   -0.4171    0.0215 H       1  UNL1        0.0288
     41 HA          1.9153    0.6612   -1.5962 H       1  UNL1        0.0574
     42 H           1.9663   -2.2342   -1.1418 H       1  UNL1        0.1046
     43 H           2.1786   -0.8803    1.0054 H       1  UNL1        0.1494
     44 HA          0.6419    0.7968    2.6482 H       1  UNL1        0.0597
     45 HB1        -0.7415   -1.7246    1.6805 H       1  UNL1        0.0288
     46 HB2         0.8648   -1.5419    2.5122 H       1  UNL1        0.0288
     47 HG1        -1.6524   -1.6235    3.8916 H       1  UNL1        0.0281
     48 HG2        -0.0442   -0.9539    4.4853 H       1  UNL1        0.0281
     49 HD1        -0.5871    1.2385    4.0448 H       1  UNL1        0.0465
     50 HD2        -2.3480    0.6530    4.0790 H       1  UNL1        0.0465
     51 HA         -2.0977    2.6044   -0.0937 H       1  UNL1        0.0559
     52 H          -3.9419    3.2892    1.2183 H       1  UNL1        0.1226
     53 H          -5.3874    1.4064    1.4307 H       1  UNL1        0.0424
     54 H          -6.1135    2.7077    0.4912 H       1  UNL1        0.0424
     55 H          -5.7880    0.0334   -0.3660 H       1  UNL1        0.0280
     56 H          -6.3526    1.4127   -1.3121 H       1  UNL1        0.0280
     57 H          -4.2256    2.0446   -2.0609 H       1  UNL1        0.0304
     58 H          -4.4590    0.5078   -3.6743 H       1  UNL1        0.0268
     59 H          -5.5105   -0.4523   -2.5935 H       1  UNL1        0.0268
     60 H          -2.4604   -0.7142   -2.7951 H       1  UNL1        0.0265
     61 H          -3.7488   -1.9104   -3.2455 H       1  UNL1        0.0265
     62 H          -4.5308   -1.9108   -0.8500 H       1  UNL1        0.0265
     63 H          -2.8725   -2.5296   -1.1647 H       1  UNL1        0.0265
     64 H          -3.4982   -0.6538    0.7986 H       1  UNL1        0.0269
     65 H          -1.8944   -0.8185   -0.0936 H       1  UNL1        0.0269
     66 H          -2.2160    0.8488   -1.5341 H       1  UNL1        0.0323
@<TRIPOS>BOND
     1     1     2    2
     2     2     3    1
     3     2     4    1
     4     4     5    1
     5     5     6    1
     6     6     7    1
     7     7     8    1
     8     8     9    1
     9     9    10    2
    10     8    11    1
    11    11    12   am
    12    12    13    2
    13    12    14    1
    14    14    15    1
    15    15    16    1
    16    16    17    1
    17    17    18    1
    18    18    19   am
    19    19    20    2
    20    19    21    1
    21    21    22    1
    22    22    23    1
    23    23    24    1
    24    24    25    1
    25    25    26    1
    26    26    27    1
    27    27    28    1
    28    28    29    1
    29    29    30    1
    30    18    14    1
    31    30    21    1
    32    30    25    1
    33     1    31    1
    34     3    32    1
    35     3    33    1
    36     4    34    1
    37     5    35    1
    38     5    36    1
    39     6    37    1
    40     6    38    1
    41     7    39    1
    42     7    40    1
    43     8    41    1
    44     9    42    1
    45    11    43    1
    46    14    44    1
    47    15    45    1
    48    15    46    1
    49    16    47    1
    50    16    48    1
    51    17    49    1
    52    17    50    1
    53    21    51    1
    54    22    52    1
    55    23    53    1
    56    23    54    1
    57    24    55    1
    58    24    56    1
    59    25    57    1
    60    26    58    1
    61    26    59    1
    62    27    60    1
    63    27    61    1
    64    28    62    1
    65    28    63    1
    66    29    64    1
    67    29    65    1
    68    30    66    1
