
     RDKit          3D

 66 68  0  0  0  0  0  0  0  0999 V2000
    7.5162   -1.5119   -2.2132 N   0  0  0  0  0  0  0  0  0  0  0  0
    7.0760   -1.4206   -1.0153 C   0  0  0  0  0  0  0  0  0  0  0  0
    6.9609   -2.5969   -0.2314 N   0  0  0  0  0  0  0  0  0  0  0  0
    6.7132   -0.1356   -0.5048 N   0  0  0  0  0  0  0  0  0  0  0  0
    6.1544    0.8724   -1.3765 C   0  0  0  0  0  0  0  0  0  0  0  0
    4.7562    0.4671   -1.8464 C   0  0  0  0  0  0  0  0  0  0  0  0
    3.8569    0.3112   -0.6674 C   0  0  0  0  0  0  0  0  0  0  0  0
    2.4491   -0.0818   -0.9599 C   0  0  1  0  0  0  0  0  0  0  0  0
    2.4320   -1.3934   -1.6472 C   0  0  0  0  0  0  0  0  0  0  0  0
    2.8969   -1.6264   -2.7431 O   0  0  0  0  0  0  0  0  0  0  0  0
    1.7569   -0.2305    0.3146 N   0  0  0  0  0  0  0  0  0  0  0  0
    0.5499    0.4929    0.5899 C   0  0  0  0  0  0  0  0  0  0  0  0
    0.1392    1.2324   -0.3034 O   0  0  0  0  0  0  0  0  0  0  0  0
   -0.0813    0.3131    1.8520 C   0  0  2  0  0  0  0  0  0  0  0  0
   -0.1530   -1.1145    2.3721 C   0  0  0  0  0  0  0  0  0  0  0  0
   -0.8517   -0.8921    3.6972 C   0  0  0  0  0  0  0  0  0  0  0  0
   -1.3529    0.5344    3.6674 C   0  0  0  0  0  0  0  0  0  0  0  0
   -1.3553    0.8251    2.1701 N   0  0  0  0  0  0  0  0  0  0  0  0
   -2.4635    1.4552    1.6281 C   0  0  0  0  0  0  0  0  0  0  0  0
   -3.3866    1.7514    2.5247 O   0  0  0  0  0  0  0  0  0  0  0  0
   -2.8433    1.8713    0.2902 C   0  0  2  0  0  0  0  0  0  0  0  0
   -4.0726    2.7231    0.3509 N   0  0  0  0  0  0  0  0  0  0  0  0
   -5.2650    1.9623    0.4887 C   0  0  0  0  0  0  0  0  0  0  0  0
   -5.5137    1.0428   -0.6883 C   0  0  0  0  0  0  0  0  0  0  0  0
   -4.2990    1.0245   -1.5765 C   0  0  2  0  0  0  0  0  0  0  0  0
   -4.4925    0.0236   -2.6532 C   0  0  0  0  0  0  0  0  0  0  0  0
   -3.4801   -1.0684   -2.5569 C   0  0  0  0  0  0  0  0  0  0  0  0
   -3.5152   -1.6049   -1.1522 C   0  0  0  0  0  0  0  0  0  0  0  0
   -2.9928   -0.5753   -0.1648 C   0  0  0  0  0  0  0  0  0  0  0  0
   -3.0329    0.8162   -0.7475 C   0  0  2  0  0  0  0  0  0  0  0  0
    7.7818   -2.4414   -2.5938 H   0  0  0  0  0  0  0  0  0  0  0  0
    7.5758   -2.6958    0.6026 H   0  0  0  0  0  0  0  0  0  0  0  0
    6.2606   -3.3070   -0.5332 H   0  0  0  0  0  0  0  0  0  0  0  0
    6.8491    0.0747    0.4996 H   0  0  0  0  0  0  0  0  0  0  0  0
    6.8208    1.0316   -2.2483 H   0  0  0  0  0  0  0  0  0  0  0  0
    6.0943    1.8429   -0.8391 H   0  0  0  0  0  0  0  0  0  0  0  0
    4.8248   -0.4165   -2.5039 H   0  0  0  0  0  0  0  0  0  0  0  0
    4.3726    1.3286   -2.4434 H   0  0  0  0  0  0  0  0  0  0  0  0
    3.8607    1.2768   -0.0824 H   0  0  0  0  0  0  0  0  0  0  0  0
    4.3566   -0.4171    0.0215 H   0  0  0  0  0  0  0  0  0  0  0  0
    1.9153    0.6612   -1.5962 H   0  0  0  0  0  0  0  0  0  0  0  0
    1.9663   -2.2342   -1.1418 H   0  0  0  0  0  0  0  0  0  0  0  0
    2.1786   -0.8803    1.0054 H   0  0  0  0  0  0  0  0  0  0  0  0
    0.6419    0.7968    2.6482 H   0  0  0  0  0  0  0  0  0  0  0  0
   -0.7415   -1.7246    1.6805 H   0  0  0  0  0  0  0  0  0  0  0  0
    0.8648   -1.5419    2.5122 H   0  0  0  0  0  0  0  0  0  0  0  0
   -1.6524   -1.6235    3.8916 H   0  0  0  0  0  0  0  0  0  0  0  0
   -0.0442   -0.9539    4.4853 H   0  0  0  0  0  0  0  0  0  0  0  0
   -0.5871    1.2385    4.0448 H   0  0  0  0  0  0  0  0  0  0  0  0
   -2.3480    0.6530    4.0790 H   0  0  0  0  0  0  0  0  0  0  0  0
   -2.0977    2.6044   -0.0937 H   0  0  0  0  0  0  0  0  0  0  0  0
   -3.9419    3.2892    1.2183 H   0  0  0  0  0  0  0  0  0  0  0  0
   -5.3874    1.4064    1.4307 H   0  0  0  0  0  0  0  0  0  0  0  0
   -6.1135    2.7077    0.4912 H   0  0  0  0  0  0  0  0  0  0  0  0
   -5.7880    0.0334   -0.3660 H   0  0  0  0  0  0  0  0  0  0  0  0
   -6.3526    1.4127   -1.3121 H   0  0  0  0  0  0  0  0  0  0  0  0
   -4.2256    2.0446   -2.0609 H   0  0  0  0  0  0  0  0  0  0  0  0
   -4.4590    0.5078   -3.6743 H   0  0  0  0  0  0  0  0  0  0  0  0
   -5.5105   -0.4523   -2.5935 H   0  0  0  0  0  0  0  0  0  0  0  0
   -2.4604   -0.7142   -2.7951 H   0  0  0  0  0  0  0  0  0  0  0  0
   -3.7488   -1.9104   -3.2455 H   0  0  0  0  0  0  0  0  0  0  0  0
   -4.5308   -1.9108   -0.8500 H   0  0  0  0  0  0  0  0  0  0  0  0
   -2.8725   -2.5296   -1.1647 H   0  0  0  0  0  0  0  0  0  0  0  0
   -3.4982   -0.6538    0.7986 H   0  0  0  0  0  0  0  0  0  0  0  0
   -1.8944   -0.8185   -0.0936 H   0  0  0  0  0  0  0  0  0  0  0  0
   -2.2160    0.8488   -1.5341 H   0  0  0  0  0  0  0  0  0  0  0  0
  1  2  2  3
  2  3  1  0
  2  4  1  0
  4  5  1  0
  5  6  1  0
  6  7  1  0
  7  8  1  0
  8  9  1  0
  9 10  2  0
  8 11  1  0
 11 12  1  0
 12 13  2  0
 12 14  1  0
 14 15  1  0
 15 16  1  0
 16 17  1  0
 17 18  1  0
 18 19  1  0
 19 20  2  0
 19 21  1  0
 21 22  1  0
 22 23  1  0
 23 24  1  0
 24 25  1  0
 25 26  1  0
 26 27  1  0
 27 28  1  0
 28 29  1  0
 29 30  1  0
 18 14  1  0
 30 21  1  0
 30 25  1  0
  1 31  1  0
  3 32  1  0
  3 33  1  0
  4 34  1  0
  5 35  1  0
  5 36  1  0
  6 37  1  0
  6 38  1  0
  7 39  1  0
  7 40  1  0
  8 41  1  6
  9 42  1  0
 11 43  1  0
 14 44  1  1
 15 45  1  0
 15 46  1  0
 16 47  1  0
 16 48  1  0
 17 49  1  0
 17 50  1  0
 21 51  1  6
 22 52  1  0
 23 53  1  0
 23 54  1  0
 24 55  1  0
 24 56  1  0
 25 57  1  6
 26 58  1  0
 26 59  1  0
 27 60  1  0
 27 61  1  0
 28 62  1  0
 28 63  1  0
 29 64  1  0
 29 65  1  0
 30 66  1  6
M  END
$$$$
