@<TRIPOS>MOLECULE
*****
 33 34 0 0 0
SMALL
GASTEIGER

@<TRIPOS>ATOM
      1 C           4.3820   -0.6920    0.1299 C.3     1  UNL1       -0.0482
      2 C           3.4186    0.4717    0.1480 C.3     1  UNL1        0.0784
      3 C           3.8382    1.4094   -0.9125 C.2     1  UNL1        0.3119
      4 O           3.0762    1.6263   -1.8698 O.2     1  UNL1       -0.2503
      5 O           5.0546    2.0398   -0.8515 O.3     1  UNL1       -0.4802
      6 C           2.0545   -0.0884   -0.1487 C.ar    1  UNL1       -0.0333
      7 C           1.8034   -0.8234   -1.2928 C.ar    1  UNL1       -0.0578
      8 C           0.5584   -1.3344   -1.5822 C.ar    1  UNL1       -0.0608
      9 C          -0.5072   -1.1191   -0.7102 C.ar    1  UNL1       -0.0509
     10 C          -0.2590   -0.3883    0.4280 C.ar    1  UNL1        0.0225
     11 C          -1.3394   -0.1065    1.3478 C.2     1  UNL1        0.1931
     12 O          -1.0364    0.1081    2.5590 O.2     1  UNL1       -0.2867
     13 C          -2.7414   -0.0619    0.9305 C.ar    1  UNL1        0.0223
     14 C          -3.7145   -0.3967    1.8420 C.ar    1  UNL1       -0.0509
     15 C          -5.0668   -0.3550    1.5141 C.ar    1  UNL1       -0.0611
     16 C          -5.4357    0.0262    0.2609 C.ar    1  UNL1       -0.0617
     17 C          -4.4667    0.3647   -0.6623 C.ar    1  UNL1       -0.0611
     18 C          -3.1070    0.3225   -0.3307 C.ar    1  UNL1       -0.0509
     19 C           0.9939    0.1151    0.7027 C.ar    1  UNL1       -0.0470
     20 H           5.3006   -0.3870    0.6966 H       1  UNL1        0.0241
     21 H           4.7230   -0.8114   -0.9310 H       1  UNL1        0.0241
     22 H           3.9660   -1.6268    0.5423 H       1  UNL1        0.0241
     23 H           3.3506    0.9682    1.1441 H       1  UNL1        0.0459
     24 H           5.2767    2.8846   -1.3787 H       1  UNL1        0.2951
     25 H           2.6332   -0.9841   -1.9644 H       1  UNL1        0.0621
     26 H           0.3880   -1.9176   -2.5015 H       1  UNL1        0.0618
     27 H          -1.4718   -1.5505   -0.9673 H       1  UNL1        0.0625
     28 H          -3.4307   -0.6971    2.8294 H       1  UNL1        0.0625
     29 H          -5.8480   -0.6191    2.2274 H       1  UNL1        0.0618
     30 H          -6.4694    0.0869   -0.0777 H       1  UNL1        0.0618
     31 H          -4.7661    0.6683   -1.6611 H       1  UNL1        0.0618
     32 H          -2.3706    0.6006   -1.0606 H       1  UNL1        0.0625
     33 H           1.2128    0.6968    1.6006 H       1  UNL1        0.0628
@<TRIPOS>BOND
     1     1     2    1
     2     2     3    1
     3     3     4    2
     4     3     5    1
     5     2     6    1
     6     6     7   ar
     7     7     8   ar
     8     8     9   ar
     9     9    10   ar
    10    10    11    1
    11    11    12    2
    12    11    13    1
    13    13    14   ar
    14    14    15   ar
    15    15    16   ar
    16    16    17   ar
    17    17    18   ar
    18    10    19   ar
    19    19     6   ar
    20    18    13   ar
    21     1    20    1
    22     1    21    1
    23     1    22    1
    24     2    23    1
    25     5    24    1
    26     7    25    1
    27     8    26    1
    28     9    27    1
    29    14    28    1
    30    15    29    1
    31    16    30    1
    32    17    31    1
    33    18    32    1
    34    19    33    1
