
     RDKit          3D

 33 34  0  0  0  0  0  0  0  0999 V2000
    4.3820   -0.6920    0.1299 C   0  0  0  0  0  0  0  0  0  0  0  0
    3.4186    0.4717    0.1480 C   0  0  0  0  0  0  0  0  0  0  0  0
    3.8382    1.4094   -0.9125 C   0  0  0  0  0  0  0  0  0  0  0  0
    3.0762    1.6263   -1.8698 O   0  0  0  0  0  0  0  0  0  0  0  0
    5.0546    2.0398   -0.8515 O   0  0  0  0  0  0  0  0  0  0  0  0
    2.0545   -0.0884   -0.1487 C   0  0  0  0  0  0  0  0  0  0  0  0
    1.8034   -0.8234   -1.2928 C   0  0  0  0  0  0  0  0  0  0  0  0
    0.5584   -1.3344   -1.5822 C   0  0  0  0  0  0  0  0  0  0  0  0
   -0.5072   -1.1191   -0.7102 C   0  0  0  0  0  0  0  0  0  0  0  0
   -0.2590   -0.3883    0.4280 C   0  0  0  0  0  0  0  0  0  0  0  0
   -1.3394   -0.1065    1.3478 C   0  0  0  0  0  0  0  0  0  0  0  0
   -1.0364    0.1081    2.5590 O   0  0  0  0  0  0  0  0  0  0  0  0
   -2.7414   -0.0619    0.9305 C   0  0  0  0  0  0  0  0  0  0  0  0
   -3.7145   -0.3967    1.8420 C   0  0  0  0  0  0  0  0  0  0  0  0
   -5.0668   -0.3550    1.5141 C   0  0  0  0  0  0  0  0  0  0  0  0
   -5.4357    0.0262    0.2609 C   0  0  0  0  0  0  0  0  0  0  0  0
   -4.4667    0.3647   -0.6623 C   0  0  0  0  0  0  0  0  0  0  0  0
   -3.1070    0.3225   -0.3307 C   0  0  0  0  0  0  0  0  0  0  0  0
    0.9939    0.1151    0.7027 C   0  0  0  0  0  0  0  0  0  0  0  0
    5.3006   -0.3870    0.6966 H   0  0  0  0  0  0  0  0  0  0  0  0
    4.7230   -0.8114   -0.9310 H   0  0  0  0  0  0  0  0  0  0  0  0
    3.9660   -1.6268    0.5423 H   0  0  0  0  0  0  0  0  0  0  0  0
    3.3506    0.9682    1.1441 H   0  0  0  0  0  0  0  0  0  0  0  0
    5.2767    2.8846   -1.3787 H   0  0  0  0  0  0  0  0  0  0  0  0
    2.6332   -0.9841   -1.9644 H   0  0  0  0  0  0  0  0  0  0  0  0
    0.3880   -1.9176   -2.5015 H   0  0  0  0  0  0  0  0  0  0  0  0
   -1.4718   -1.5505   -0.9673 H   0  0  0  0  0  0  0  0  0  0  0  0
   -3.4307   -0.6971    2.8294 H   0  0  0  0  0  0  0  0  0  0  0  0
   -5.8480   -0.6191    2.2274 H   0  0  0  0  0  0  0  0  0  0  0  0
   -6.4694    0.0869   -0.0777 H   0  0  0  0  0  0  0  0  0  0  0  0
   -4.7661    0.6683   -1.6611 H   0  0  0  0  0  0  0  0  0  0  0  0
   -2.3706    0.6006   -1.0606 H   0  0  0  0  0  0  0  0  0  0  0  0
    1.2128    0.6968    1.6006 H   0  0  0  0  0  0  0  0  0  0  0  0
  1  2  1  0
  2  3  1  0
  3  4  2  0
  3  5  1  0
  2  6  1  0
  6  7  2  0
  7  8  1  0
  8  9  2  0
  9 10  1  0
 10 11  1  0
 11 12  2  0
 11 13  1  0
 13 14  2  0
 14 15  1  0
 15 16  2  0
 16 17  1  0
 17 18  2  0
 10 19  2  0
 19  6  1  0
 18 13  1  0
  1 20  1  0
  1 21  1  0
  1 22  1  0
  2 23  1  0
  5 24  1  0
  7 25  1  0
  8 26  1  0
  9 27  1  0
 14 28  1  0
 15 29  1  0
 16 30  1  0
 17 31  1  0
 18 32  1  0
 19 33  1  0
M  END
$$$$
