@<TRIPOS>MOLECULE
*****
 61 65 0 0 0
SMALL
GASTEIGER

@<TRIPOS>ATOM
      1 C           3.7179    5.2178   -2.3057 C.3     1  UNL1       -0.0206
      2 C           3.2941    3.8996   -1.7423 C.ar    1  UNL1        0.0611
      3 C           2.0063    3.4024   -1.6169 C.ar    1  UNL1       -0.0084
      4 C           2.0649    2.1505   -1.0463 C.ar    1  UNL1        0.1296
      5 C           0.9247    1.2731   -0.7375 C.2     1  UNL1        0.2667
      6 O           1.0898    0.1422   -0.2134 O.2     1  UNL1       -0.2682
      7 N          -0.4105    1.6603   -1.0156 N.am    1  UNL1       -0.2802
      8 C          -1.5160    0.8163   -0.7192 C.ar    1  UNL1        0.0338
      9 C          -2.0282   -0.1080   -1.6036 C.ar    1  UNL1       -0.0399
     10 C          -3.1033   -0.9033   -1.2680 C.ar    1  UNL1       -0.0522
     11 C          -3.7053   -0.7954   -0.0205 C.ar    1  UNL1       -0.0159
     12 C          -4.8094   -1.6789    0.2986 C.ar    1  UNL1        0.0084
     13 C          -4.5877   -3.0469    0.5081 C.ar    1  UNL1       -0.0522
     14 C          -5.5990   -3.9177    0.8413 C.ar    1  UNL1       -0.0611
     15 C          -6.8883   -3.4523    0.9806 C.ar    1  UNL1       -0.0599
     16 C          -7.1250   -2.1177    0.7793 C.ar    1  UNL1       -0.0348
     17 C          -6.0946   -1.2283    0.4388 C.ar    1  UNL1        0.1127
     18 S          -6.5144    0.4544    0.1647 S.O2    1  UNL1        0.0565
     19 N          -8.2478    0.6572    0.3568 N.3     1  UNL1       -0.2035
     20 O          -6.1955    0.8698   -1.2407 O.2     1  UNL1       -0.1532
     21 O          -5.9032    1.3553    1.1844 O.2     1  UNL1       -0.1532
     22 C          -3.2213    0.1037    0.8673 C.ar    1  UNL1       -0.0522
     23 C          -2.1276    0.9061    0.5115 C.ar    1  UNL1       -0.0399
     24 N           3.3646    1.8999   -0.8327 N.ar    1  UNL1       -0.2266
     25 C           3.8916    0.7054   -0.2519 C.ar    1  UNL1        0.0789
     26 C           4.3488   -0.3447   -1.0138 C.ar    1  UNL1       -0.0278
     27 C           4.8638   -1.5120   -0.4531 C.ar    1  UNL1       -0.0158
     28 C           5.3062   -2.5289   -1.2478 C.ar    1  UNL1       -0.0540
     29 C           5.8138   -3.6787   -0.6337 C.ar    1  UNL1       -0.0612
     30 C           5.8674   -3.7859    0.7289 C.ar    1  UNL1       -0.0612
     31 C           5.4167   -2.7504    1.5041 C.ar    1  UNL1       -0.0540
     32 C           4.9041   -1.5887    0.9261 C.ar    1  UNL1       -0.0170
     33 C           4.4444   -0.5330    1.6754 C.ar    1  UNL1       -0.0399
     34 C           3.9294    0.6346    1.1294 C.ar    1  UNL1        0.0624
     35 C           3.4557    1.7231    1.9707 C.2     1  UNL1        0.2436
     36 N           3.5247    1.5815    3.3748 N.am    1  UNL1       -0.3253
     37 O           2.9922    2.7738    1.4802 O.2     1  UNL1       -0.2703
     38 N           4.0942    2.9398   -1.2466 N.ar    1  UNL1       -0.1709
     39 H           2.9102    5.9670   -2.2374 H       1  UNL1        0.0293
     40 H           3.9330    5.0696   -3.3800 H       1  UNL1        0.0293
     41 H           4.6308    5.5278   -1.7324 H       1  UNL1        0.0293
     42 H           1.0956    3.9209   -1.9216 H       1  UNL1        0.0659
     43 H          -0.5397    2.6153   -1.4574 H       1  UNL1        0.1552
     44 H          -1.5467   -0.1835   -2.5807 H       1  UNL1        0.0636
     45 H          -3.4950   -1.6258   -1.9744 H       1  UNL1        0.0624
     46 H          -3.5716   -3.3833    0.3927 H       1  UNL1        0.0624
     47 H          -5.3883   -4.9703    0.9955 H       1  UNL1        0.0618
     48 H          -7.6531   -4.1726    1.2443 H       1  UNL1        0.0618
     49 H          -8.1390   -1.7678    0.8918 H       1  UNL1        0.0637
     50 H          -8.5875    1.4456   -0.2210 H       1  UNL1        0.1442
     51 H          -8.4538    0.7836    1.3816 H       1  UNL1        0.1442
     52 H          -3.6272    0.2231    1.8602 H       1  UNL1        0.0624
     53 H          -1.7652    1.6070    1.2274 H       1  UNL1        0.0636
     54 H           4.3148   -0.2793   -2.1026 H       1  UNL1        0.0645
     55 H           5.2767   -2.4733   -2.3146 H       1  UNL1        0.0624
     56 H           6.1570   -4.4680   -1.3001 H       1  UNL1        0.0618
     57 H           6.2552   -4.6644    1.1903 H       1  UNL1        0.0618
     58 H           5.4421   -2.7963    2.5885 H       1  UNL1        0.0624
     59 H           4.4873   -0.6189    2.7505 H       1  UNL1        0.0632
     60 H           2.6057    1.3738    3.8639 H       1  UNL1        0.1453
     61 H           4.4202    1.6741    3.9043 H       1  UNL1        0.1453
@<TRIPOS>BOND
     1     1     2    1
     2     2     3   ar
     3     3     4   ar
     4     4     5    1
     5     5     6    2
     6     5     7   am
     7     7     8    1
     8     8     9   ar
     9     9    10   ar
    10    10    11   ar
    11    11    12    1
    12    12    13   ar
    13    13    14   ar
    14    14    15   ar
    15    15    16   ar
    16    16    17   ar
    17    17    18    1
    18    18    19    1
    19    18    20    2
    20    18    21    2
    21    11    22   ar
    22    22    23   ar
    23     4    24   ar
    24    24    25    1
    25    25    26   ar
    26    26    27   ar
    27    27    28   ar
    28    28    29   ar
    29    29    30   ar
    30    30    31   ar
    31    31    32   ar
    32    32    33   ar
    33    33    34   ar
    34    34    35    1
    35    35    36   am
    36    35    37    2
    37    24    38   ar
    38    38     2   ar
    39    23     8   ar
    40    34    25   ar
    41    17    12   ar
    42    32    27   ar
    43     1    39    1
    44     1    40    1
    45     1    41    1
    46     3    42    1
    47     7    43    1
    48     9    44    1
    49    10    45    1
    50    13    46    1
    51    14    47    1
    52    15    48    1
    53    16    49    1
    54    19    50    1
    55    19    51    1
    56    22    52    1
    57    23    53    1
    58    26    54    1
    59    28    55    1
    60    29    56    1
    61    30    57    1
    62    31    58    1
    63    33    59    1
    64    36    60    1
    65    36    61    1
