@<TRIPOS>MOLECULE
*****
 64 64 0 0 0
SMALL
GASTEIGER

@<TRIPOS>ATOM
      1 O           6.5343   -2.3989   -1.1978 O.3     1  UNL1       -0.3925
      2 C           7.4696   -1.3908   -1.4353 C.3     1  UNL1        0.0701
      3 C           7.4347   -0.4451   -0.2642 C.3     1  UNL1        0.0782
      4 O           8.3484    0.5724   -0.4579 O.3     1  UNL1       -0.3895
      5 C           6.0043    0.1942   -0.2602 C.3     1  UNL1       -0.0247
      6 C           5.9434    1.1281    0.8814 C.3     1  UNL1       -0.0506
      7 C           4.8035    1.9775    1.1176 C.3     1  UNL1       -0.0506
      8 C           3.4278    1.5998    1.3823 C.3     1  UNL1       -0.0268
      9 C           2.6161    0.9228    0.3720 C.3     1  UNL1        0.0576
     10 O           3.0357   -0.2866   -0.0446 O.3     1  UNL1       -0.3917
     11 C           1.1552    0.8491    0.9068 C.3     1  UNL1       -0.0007
     12 C           0.3352    0.1486   -0.1478 C.3     1  UNL1        0.0576
     13 O           0.7554   -1.1249   -0.4309 O.3     1  UNL1       -0.3917
     14 C          -1.1522    0.2339    0.2075 C.3     1  UNL1       -0.0267
     15 C          -1.4494   -0.3978    1.5042 C.3     1  UNL1       -0.0483
     16 C          -2.8374   -0.3633    1.9802 C.3     1  UNL1       -0.0252
     17 C          -3.9295   -1.0681    1.3108 C.3     1  UNL1        0.0730
     18 O          -5.0964   -0.7589    2.1066 O.3     1  UNL1       -0.3902
     19 C          -4.2434   -0.8604   -0.1109 C.3     1  UNL1        0.0627
     20 N          -5.4242   -1.6645   -0.5146 N.3     1  UNL1       -0.3016
     21 CA         -6.4525   -0.7364   -0.8665 C.3     1  UNL1        0.0598
     22 C          -6.7885   -0.8277   -2.3526 C.3     1  UNL1        0.0620
     23 O          -7.7850    0.0720   -2.6925 O.3     1  UNL1       -0.3934
     24 C          -6.0009    0.6470   -0.5185 C.3     1  UNL1        0.1000
     25 O          -6.4434    1.0968    0.7057 O.3     1  UNL1       -0.3876
     26 C          -4.4853    0.5211   -0.5768 C.3     1  UNL1        0.1002
     27 O          -4.1586    0.5732   -1.9519 O.3     1  UNL1       -0.3875
     28 H           6.5064   -3.0538   -1.9487 H       1  UNL1        0.2095
     29 H           8.4549   -1.8403   -1.5566 H       1  UNL1        0.0583
     30 H           7.1820   -0.8113   -2.3510 H       1  UNL1        0.0583
     31 H           7.5827   -1.0133    0.6584 H       1  UNL1        0.0616
     32 H           8.6389    0.5710   -1.3869 H       1  UNL1        0.2099
     33 H           5.3534   -0.7126   -0.1226 H       1  UNL1        0.0291
     34 H           5.8680    0.6854   -1.2234 H       1  UNL1        0.0291
     35 H           6.1839    0.5247    1.8449 H       1  UNL1        0.0266
     36 H           6.8853    1.7883    0.7931 H       1  UNL1        0.0266
     37 H           5.0907    2.6936    2.0131 H       1  UNL1        0.0266
     38 H           4.8005    2.7957    0.2654 H       1  UNL1        0.0266
     39 H           3.4264    0.8999    2.3014 H       1  UNL1        0.0290
     40 H           2.8666    2.5289    1.7610 H       1  UNL1        0.0290
     41 H           2.4760    1.5619   -0.5565 H       1  UNL1        0.0594
     42 H           2.9445   -1.0287    0.6133 H       1  UNL1        0.2098
     43 H           0.8351    1.8789    1.0626 H       1  UNL1        0.0315
     44 H           1.1544    0.2761    1.8564 H       1  UNL1        0.0315
     45 H           0.4246    0.7376   -1.1068 H       1  UNL1        0.0594
     46 H           0.0484   -1.7762   -0.5976 H       1  UNL1        0.2098
     47 H          -1.7032   -0.1624   -0.6189 H       1  UNL1        0.0290
     48 H          -1.3631    1.3451    0.2997 H       1  UNL1        0.0290
     49 H          -0.7917    0.0368    2.3286 H       1  UNL1        0.0267
     50 H          -1.1359   -1.5032    1.4972 H       1  UNL1        0.0267
     51 H          -3.1846    0.7190    2.1549 H       1  UNL1        0.0291
     52 H          -2.7759   -0.7538    3.0747 H       1  UNL1        0.0291
     53 H          -3.8122   -2.1705    1.4785 H       1  UNL1        0.0610
     54 H          -4.8647   -1.1325    2.9907 H       1  UNL1        0.2098
     55 H          -3.4384   -1.3411   -0.7442 H       1  UNL1        0.0512
     56 H          -5.6766   -2.3371    0.2192 H       1  UNL1        0.1228
     57 HA         -7.3807   -0.9396   -0.2910 H       1  UNL1        0.0509
     58 H1         -7.1853   -1.8558   -2.5135 H       1  UNL1        0.0573
     59 H2         -5.8755   -0.7235   -2.9637 H       1  UNL1        0.0573
     60 H          -7.4357    0.9634   -2.9627 H       1  UNL1        0.2095
     61 H          -6.2843    1.3948   -1.3059 H       1  UNL1        0.0636
     62 H          -7.3493    0.7412    0.8598 H       1  UNL1        0.2100
     63 H          -3.9792    1.3044   -0.0150 H       1  UNL1        0.0636
     64 H          -4.1031    1.4954   -2.2724 H       1  UNL1        0.2100
@<TRIPOS>BOND
     1     1     2    1
     2     2     3    1
     3     3     4    1
     4     3     5    1
     5     5     6    1
     6     6     7    1
     7     7     8    1
     8     8     9    1
     9     9    10    1
    10     9    11    1
    11    11    12    1
    12    12    13    1
    13    12    14    1
    14    14    15    1
    15    15    16    1
    16    16    17    1
    17    17    18    1
    18    17    19    1
    19    19    20    1
    20    20    21    1
    21    21    22    1
    22    22    23    1
    23    21    24    1
    24    24    25    1
    25    24    26    1
    26    26    27    1
    27    26    19    1
    28     1    28    1
    29     2    29    1
    30     2    30    1
    31     3    31    1
    32     4    32    1
    33     5    33    1
    34     5    34    1
    35     6    35    1
    36     6    36    1
    37     7    37    1
    38     7    38    1
    39     8    39    1
    40     8    40    1
    41     9    41    1
    42    10    42    1
    43    11    43    1
    44    11    44    1
    45    12    45    1
    46    13    46    1
    47    14    47    1
    48    14    48    1
    49    15    49    1
    50    15    50    1
    51    16    51    1
    52    16    52    1
    53    17    53    1
    54    18    54    1
    55    19    55    1
    56    20    56    1
    57    21    57    1
    58    22    58    1
    59    22    59    1
    60    23    60    1
    61    24    61    1
    62    25    62    1
    63    26    63    1
    64    27    64    1
