@<TRIPOS>MOLECULE
*****
 61 63 0 0 0
SMALL
GASTEIGER

@<TRIPOS>ATOM
      1 C          -7.1213   -1.9378    0.0860 C.3     1  UNL1       -0.0596
      2 C          -5.8522   -1.6113   -0.6869 C.3     1  UNL1       -0.0124
      3 C          -5.4166   -2.8317   -1.4326 C.3     1  UNL1       -0.0596
      4 C          -4.8120   -1.2111    0.3039 C.3     1  UNL1        0.0919
      5 O          -3.5729   -0.8773   -0.2689 O.3     1  UNL1       -0.4917
      6 C          -2.5470   -0.4922    0.5836 C.ar    1  UNL1        0.1211
      7 C          -2.7269   -0.4341    1.9714 C.ar    1  UNL1       -0.0199
      8 C          -1.6884   -0.0479    2.7878 C.ar    1  UNL1       -0.0577
      9 C          -0.4946    0.2737    2.2244 C.ar    1  UNL1       -0.0524
     10 C          -0.2921    0.2246    0.8566 C.ar    1  UNL1        0.0035
     11 C           1.0433    0.5665    0.3188 C.ar    1  UNL1        0.0697
     12 C           2.1834   -0.0217    0.8258 C.ar    1  UNL1       -0.0108
     13 C           3.2956    0.4953    0.1623 C.ar    1  UNL1        0.0892
     14 C           4.6992    0.1219    0.4244 C.3     1  UNL1        0.0928
     15 O           5.1556   -0.8410   -0.3589 O.3     1  UNL1       -0.3566
     16 C           4.6884   -2.0777   -0.4621 C.3     1  UNL1        0.1602
     17 C           4.6333   -2.8705    0.8307 C.3     1  UNL1       -0.0256
     18 C           3.3641   -2.1832   -1.1419 C.3     1  UNL1       -0.0256
     19 C           5.6514   -2.8426   -1.3494 C.2     1  UNL1        0.3365
     20 O           6.6343   -2.2502   -1.7978 O.2     1  UNL1       -0.2478
     21 O           5.4141   -4.1608   -1.6322 O.3     1  UNL1       -0.4786
     22 N           2.7909    1.3735   -0.7177 N.ar    1  UNL1       -0.1730
     23 N           1.4449    1.4076   -0.6144 N.ar    1  UNL1       -0.2590
     24 C           0.5910    2.2697   -1.4073 C.3     1  UNL1        0.0699
     25 C           0.3895    3.5872   -0.7495 C.ar    1  UNL1        0.0091
     26 C          -0.7707    3.9390   -0.0989 C.ar    1  UNL1       -0.0541
     27 C          -0.9148    5.1890    0.5044 C.ar    1  UNL1       -0.0613
     28 C           0.1238    6.0925    0.4498 C.ar    1  UNL1       -0.0590
     29 C           1.2732    5.7318   -0.1999 C.ar    1  UNL1       -0.0261
     30 C           1.4187    4.4995   -0.7962 C.ar    1  UNL1        0.1283
     31 F           2.5737    4.1869   -1.4274 F       1  UNL1       -0.2051
     32 C          -1.3187   -0.1586    0.0425 C.ar    1  UNL1       -0.0108
     33 H          -7.7554   -2.6744   -0.4215 H       1  UNL1        0.0233
     34 H          -6.8818   -2.3170    1.0946 H       1  UNL1        0.0233
     35 H          -7.7010   -0.9831    0.1872 H       1  UNL1        0.0233
     36 H          -6.0188   -0.7590   -1.3890 H       1  UNL1        0.0328
     37 H          -4.9123   -2.5944   -2.3890 H       1  UNL1        0.0233
     38 H          -6.3521   -3.3851   -1.7269 H       1  UNL1        0.0233
     39 H          -4.7840   -3.4561   -0.7847 H       1  UNL1        0.0233
     40 H          -5.1881   -0.3382    0.8858 H       1  UNL1        0.0699
     41 H          -4.6253   -2.0872    0.9854 H       1  UNL1        0.0699
     42 H          -3.6884   -0.6974    2.3694 H       1  UNL1        0.0654
     43 H          -1.8177   -0.0004    3.8580 H       1  UNL1        0.0619
     44 H           0.3440    0.5817    2.8333 H       1  UNL1        0.0624
     45 H           2.2464   -0.7759    1.6200 H       1  UNL1        0.0658
     46 H           5.3027    1.0731    0.2450 H       1  UNL1        0.0626
     47 H           4.7808   -0.0562    1.5271 H       1  UNL1        0.0626
     48 H           3.6377   -2.7079    1.3257 H       1  UNL1        0.0263
     49 H           5.4837   -2.6988    1.4876 H       1  UNL1        0.0263
     50 H           4.6446   -3.9418    0.5388 H       1  UNL1        0.0263
     51 H           3.3644   -3.0160   -1.9157 H       1  UNL1        0.0263
     52 H           2.5921   -2.5418   -0.4095 H       1  UNL1        0.0263
     53 H           3.0680   -1.2329   -1.6138 H       1  UNL1        0.0263
     54 H           6.1149   -4.7697   -2.0579 H       1  UNL1        0.2951
     55 H           1.1122    2.4437   -2.3919 H       1  UNL1        0.0559
     56 H          -0.3693    1.8410   -1.6530 H       1  UNL1        0.0559
     57 H          -1.5652    3.2137   -0.0719 H       1  UNL1        0.0622
     58 H          -1.8139    5.4747    1.0140 H       1  UNL1        0.0618
     59 H           0.0309    7.0814    0.9180 H       1  UNL1        0.0618
     60 H           2.0892    6.4376   -0.2445 H       1  UNL1        0.0646
     61 H          -1.1781   -0.2224   -1.0512 H       1  UNL1        0.0661
@<TRIPOS>BOND
     1     1     2    1
     2     2     3    1
     3     2     4    1
     4     4     5    1
     5     5     6    1
     6     6     7   ar
     7     7     8   ar
     8     8     9   ar
     9     9    10   ar
    10    10    11    1
    11    11    12   ar
    12    12    13   ar
    13    13    14    1
    14    14    15    1
    15    15    16    1
    16    16    17    1
    17    16    18    1
    18    16    19    1
    19    19    20    2
    20    19    21    1
    21    13    22   ar
    22    22    23   ar
    23    23    24    1
    24    24    25    1
    25    25    26   ar
    26    26    27   ar
    27    27    28   ar
    28    28    29   ar
    29    29    30   ar
    30    30    31    1
    31    10    32   ar
    32    32     6   ar
    33    23    11   ar
    34    30    25   ar
    35     1    33    1
    36     1    34    1
    37     1    35    1
    38     2    36    1
    39     3    37    1
    40     3    38    1
    41     3    39    1
    42     4    40    1
    43     4    41    1
    44     7    42    1
    45     8    43    1
    46     9    44    1
    47    12    45    1
    48    14    46    1
    49    14    47    1
    50    17    48    1
    51    17    49    1
    52    17    50    1
    53    18    51    1
    54    18    52    1
    55    18    53    1
    56    21    54    1
    57    24    55    1
    58    24    56    1
    59    26    57    1
    60    27    58    1
    61    28    59    1
    62    29    60    1
    63    32    61    1
