
     RDKit          3D

 61 63  0  0  0  0  0  0  0  0999 V2000
   -7.1213   -1.9378    0.0860 C   0  0  0  0  0  0  0  0  0  0  0  0
   -5.8522   -1.6113   -0.6869 C   0  0  0  0  0  0  0  0  0  0  0  0
   -5.4166   -2.8317   -1.4326 C   0  0  0  0  0  0  0  0  0  0  0  0
   -4.8120   -1.2111    0.3039 C   0  0  0  0  0  0  0  0  0  0  0  0
   -3.5729   -0.8773   -0.2689 O   0  0  0  0  0  0  0  0  0  0  0  0
   -2.5470   -0.4922    0.5836 C   0  0  0  0  0  0  0  0  0  0  0  0
   -2.7269   -0.4341    1.9714 C   0  0  0  0  0  0  0  0  0  0  0  0
   -1.6884   -0.0479    2.7878 C   0  0  0  0  0  0  0  0  0  0  0  0
   -0.4946    0.2737    2.2244 C   0  0  0  0  0  0  0  0  0  0  0  0
   -0.2921    0.2246    0.8566 C   0  0  0  0  0  0  0  0  0  0  0  0
    1.0433    0.5665    0.3188 C   0  0  0  0  0  0  0  0  0  0  0  0
    2.1834   -0.0217    0.8258 C   0  0  0  0  0  0  0  0  0  0  0  0
    3.2956    0.4953    0.1623 C   0  0  0  0  0  0  0  0  0  0  0  0
    4.6992    0.1219    0.4244 C   0  0  0  0  0  0  0  0  0  0  0  0
    5.1556   -0.8410   -0.3589 O   0  0  0  0  0  0  0  0  0  0  0  0
    4.6884   -2.0777   -0.4621 C   0  0  0  0  0  0  0  0  0  0  0  0
    4.6333   -2.8705    0.8307 C   0  0  0  0  0  0  0  0  0  0  0  0
    3.3641   -2.1832   -1.1419 C   0  0  0  0  0  0  0  0  0  0  0  0
    5.6514   -2.8426   -1.3494 C   0  0  0  0  0  0  0  0  0  0  0  0
    6.6343   -2.2502   -1.7978 O   0  0  0  0  0  0  0  0  0  0  0  0
    5.4141   -4.1608   -1.6322 O   0  0  0  0  0  0  0  0  0  0  0  0
    2.7909    1.3735   -0.7177 N   0  0  0  0  0  0  0  0  0  0  0  0
    1.4449    1.4076   -0.6144 N   0  0  0  0  0  0  0  0  0  0  0  0
    0.5910    2.2697   -1.4073 C   0  0  0  0  0  0  0  0  0  0  0  0
    0.3895    3.5872   -0.7495 C   0  0  0  0  0  0  0  0  0  0  0  0
   -0.7707    3.9390   -0.0989 C   0  0  0  0  0  0  0  0  0  0  0  0
   -0.9148    5.1890    0.5044 C   0  0  0  0  0  0  0  0  0  0  0  0
    0.1238    6.0925    0.4498 C   0  0  0  0  0  0  0  0  0  0  0  0
    1.2732    5.7318   -0.1999 C   0  0  0  0  0  0  0  0  0  0  0  0
    1.4187    4.4995   -0.7962 C   0  0  0  0  0  0  0  0  0  0  0  0
    2.5737    4.1869   -1.4274 F   0  0  0  0  0  0  0  0  0  0  0  0
   -1.3187   -0.1586    0.0425 C   0  0  0  0  0  0  0  0  0  0  0  0
   -7.7554   -2.6744   -0.4215 H   0  0  0  0  0  0  0  0  0  0  0  0
   -6.8818   -2.3170    1.0946 H   0  0  0  0  0  0  0  0  0  0  0  0
   -7.7010   -0.9831    0.1872 H   0  0  0  0  0  0  0  0  0  0  0  0
   -6.0188   -0.7590   -1.3890 H   0  0  0  0  0  0  0  0  0  0  0  0
   -4.9123   -2.5944   -2.3890 H   0  0  0  0  0  0  0  0  0  0  0  0
   -6.3521   -3.3851   -1.7269 H   0  0  0  0  0  0  0  0  0  0  0  0
   -4.7840   -3.4561   -0.7847 H   0  0  0  0  0  0  0  0  0  0  0  0
   -5.1881   -0.3382    0.8858 H   0  0  0  0  0  0  0  0  0  0  0  0
   -4.6253   -2.0872    0.9854 H   0  0  0  0  0  0  0  0  0  0  0  0
   -3.6884   -0.6974    2.3694 H   0  0  0  0  0  0  0  0  0  0  0  0
   -1.8177   -0.0004    3.8580 H   0  0  0  0  0  0  0  0  0  0  0  0
    0.3440    0.5817    2.8333 H   0  0  0  0  0  0  0  0  0  0  0  0
    2.2464   -0.7759    1.6200 H   0  0  0  0  0  0  0  0  0  0  0  0
    5.3027    1.0731    0.2450 H   0  0  0  0  0  0  0  0  0  0  0  0
    4.7808   -0.0562    1.5271 H   0  0  0  0  0  0  0  0  0  0  0  0
    3.6377   -2.7079    1.3257 H   0  0  0  0  0  0  0  0  0  0  0  0
    5.4837   -2.6988    1.4876 H   0  0  0  0  0  0  0  0  0  0  0  0
    4.6446   -3.9418    0.5388 H   0  0  0  0  0  0  0  0  0  0  0  0
    3.3644   -3.0160   -1.9157 H   0  0  0  0  0  0  0  0  0  0  0  0
    2.5921   -2.5418   -0.4095 H   0  0  0  0  0  0  0  0  0  0  0  0
    3.0680   -1.2329   -1.6138 H   0  0  0  0  0  0  0  0  0  0  0  0
    6.1149   -4.7697   -2.0579 H   0  0  0  0  0  0  0  0  0  0  0  0
    1.1122    2.4437   -2.3919 H   0  0  0  0  0  0  0  0  0  0  0  0
   -0.3693    1.8410   -1.6530 H   0  0  0  0  0  0  0  0  0  0  0  0
   -1.5652    3.2137   -0.0719 H   0  0  0  0  0  0  0  0  0  0  0  0
   -1.8139    5.4747    1.0140 H   0  0  0  0  0  0  0  0  0  0  0  0
    0.0309    7.0814    0.9180 H   0  0  0  0  0  0  0  0  0  0  0  0
    2.0892    6.4376   -0.2445 H   0  0  0  0  0  0  0  0  0  0  0  0
   -1.1781   -0.2224   -1.0512 H   0  0  0  0  0  0  0  0  0  0  0  0
  1  2  1  0
  2  3  1  0
  2  4  1  0
  4  5  1  0
  5  6  1  0
  6  7  2  0
  7  8  1  0
  8  9  2  0
  9 10  1  0
 10 11  1  0
 11 12  2  0
 12 13  1  0
 13 14  1  0
 14 15  1  0
 15 16  1  0
 16 17  1  0
 16 18  1  0
 16 19  1  0
 19 20  2  0
 19 21  1  0
 13 22  2  0
 22 23  1  0
 23 24  1  0
 24 25  1  0
 25 26  2  0
 26 27  1  0
 27 28  2  0
 28 29  1  0
 29 30  2  0
 30 31  1  0
 10 32  2  0
 32  6  1  0
 23 11  1  0
 30 25  1  0
  1 33  1  0
  1 34  1  0
  1 35  1  0
  2 36  1  0
  3 37  1  0
  3 38  1  0
  3 39  1  0
  4 40  1  0
  4 41  1  0
  7 42  1  0
  8 43  1  0
  9 44  1  0
 12 45  1  0
 14 46  1  0
 14 47  1  0
 17 48  1  0
 17 49  1  0
 17 50  1  0
 18 51  1  0
 18 52  1  0
 18 53  1  0
 21 54  1  0
 24 55  1  0
 24 56  1  0
 26 57  1  0
 27 58  1  0
 28 59  1  0
 29 60  1  0
 32 61  1  0
M  END
$$$$
