
     RDKit          3D

 56 59  0  0  0  0  0  0  0  0999 V2000
   -2.2323   -6.0483    1.8809 C   0  0  0  0  0  0  0  0  0  0  0  0
   -1.5036   -4.7860    2.2953 C   0  0  0  0  0  0  0  0  0  0  0  0
   -1.5593   -3.8911    1.2005 O   0  0  0  0  0  0  0  0  0  0  0  0
   -1.0098   -2.6448    1.1976 C   0  0  0  0  0  0  0  0  0  0  0  0
   -0.4081   -2.2336    2.2167 O   0  0  0  0  0  0  0  0  0  0  0  0
   -1.0691   -1.6889    0.0288 C   0  0  0  0  0  0  0  0  0  0  0  0
   -2.4388   -1.3697   -0.3218 C   0  0  0  0  0  0  0  0  0  0  0  0
   -3.4272   -2.5157   -0.5462 C   0  0  0  0  0  0  0  0  0  0  0  0
   -2.8636   -0.1809   -0.4535 N   0  0  0  0  0  0  0  0  0  0  0  0
   -2.0163    0.9593   -0.2668 C   0  0  0  0  0  0  0  0  0  0  0  0
   -2.5243    2.2077   -0.3921 N   0  0  0  0  0  0  0  0  0  0  0  0
   -1.7906    3.3181   -0.2062 C   0  0  0  0  0  0  0  0  0  0  0  0
   -0.4652    3.1961    0.1262 C   0  0  0  0  0  0  0  0  0  0  0  0
    0.0607    1.9268    0.2555 C   0  0  0  0  0  0  0  0  0  0  0  0
    1.4348    1.8224    0.6038 N   0  0  0  0  0  0  0  0  0  0  0  0
   -0.7006    0.7704    0.0619 C   0  0  0  0  0  0  0  0  0  0  0  0
   -0.1415   -0.5732    0.1755 C   0  0  0  0  0  0  0  0  0  0  0  0
    1.0836   -0.7299   -0.6880 C   0  0  0  0  0  0  0  0  0  0  0  0
    0.9178   -0.8262   -2.0630 C   0  0  0  0  0  0  0  0  0  0  0  0
    2.0517   -0.9821   -2.8460 C   0  0  0  0  0  0  0  0  0  0  0  0
    3.3069   -1.0397   -2.2734 C   0  0  0  0  0  0  0  0  0  0  0  0
    3.4759   -0.9447   -0.9107 C   0  0  0  0  0  0  0  0  0  0  0  0
    4.7289   -0.9983   -0.2912 O   0  0  0  0  0  0  0  0  0  0  0  0
    5.9254   -1.1524   -0.9875 C   0  0  0  0  0  0  0  0  0  0  0  0
    2.3389   -0.7892   -0.1353 C   0  0  0  0  0  0  0  0  0  0  0  0
    0.4282    4.3601    0.3528 C   0  0  0  0  0  0  0  0  0  0  0  0
   -0.2721    5.6680    0.2294 C   0  0  0  0  0  0  0  0  0  0  0  0
   -1.7210    5.5537    0.6914 C   0  0  0  0  0  0  0  0  0  0  0  0
   -2.4025    4.6649   -0.3574 C   0  0  0  0  0  0  0  0  0  0  0  0
   -2.0601   -6.1742    0.7829 H   0  0  0  0  0  0  0  0  0  0  0  0
   -3.3143   -5.9791    2.0300 H   0  0  0  0  0  0  0  0  0  0  0  0
   -1.7816   -6.9468    2.3531 H   0  0  0  0  0  0  0  0  0  0  0  0
   -1.9104   -4.3457    3.2277 H   0  0  0  0  0  0  0  0  0  0  0  0
   -0.4484   -5.0966    2.5074 H   0  0  0  0  0  0  0  0  0  0  0  0
   -0.6752   -2.3503   -0.8340 H   0  0  0  0  0  0  0  0  0  0  0  0
   -4.3816   -2.1125   -0.9300 H   0  0  0  0  0  0  0  0  0  0  0  0
   -3.6313   -2.9673    0.4370 H   0  0  0  0  0  0  0  0  0  0  0  0
   -3.0288   -3.2100   -1.2937 H   0  0  0  0  0  0  0  0  0  0  0  0
    2.1954    2.0931   -0.0331 H   0  0  0  0  0  0  0  0  0  0  0  0
    1.6590    1.4553    1.5510 H   0  0  0  0  0  0  0  0  0  0  0  0
    0.2684   -0.6359    1.2477 H   0  0  0  0  0  0  0  0  0  0  0  0
   -0.0548   -0.7841   -2.5377 H   0  0  0  0  0  0  0  0  0  0  0  0
    2.0010   -1.0642   -3.9251 H   0  0  0  0  0  0  0  0  0  0  0  0
    4.2090   -1.1625   -2.8813 H   0  0  0  0  0  0  0  0  0  0  0  0
    6.7010   -1.4853   -0.2531 H   0  0  0  0  0  0  0  0  0  0  0  0
    5.8866   -1.8566   -1.8239 H   0  0  0  0  0  0  0  0  0  0  0  0
    6.2518   -0.1261   -1.3252 H   0  0  0  0  0  0  0  0  0  0  0  0
    2.4969   -0.7201    0.9489 H   0  0  0  0  0  0  0  0  0  0  0  0
    1.3204    4.3315   -0.2751 H   0  0  0  0  0  0  0  0  0  0  0  0
    0.7984    4.2840    1.4172 H   0  0  0  0  0  0  0  0  0  0  0  0
   -0.3358    5.9279   -0.8626 H   0  0  0  0  0  0  0  0  0  0  0  0
    0.2291    6.4775    0.7577 H   0  0  0  0  0  0  0  0  0  0  0  0
   -2.1526    6.5532    0.7328 H   0  0  0  0  0  0  0  0  0  0  0  0
   -1.7654    5.0725    1.7023 H   0  0  0  0  0  0  0  0  0  0  0  0
   -2.2044    5.1202   -1.3412 H   0  0  0  0  0  0  0  0  0  0  0  0
   -3.4790    4.6491   -0.0909 H   0  0  0  0  0  0  0  0  0  0  0  0
  1  2  1  0
  2  3  1  0
  3  4  1  0
  4  5  2  0
  4  6  1  0
  6  7  1  0
  7  8  1  0
  7  9  2  0
  9 10  1  0
 10 11  2  0
 11 12  1  0
 12 13  2  0
 13 14  1  0
 14 15  1  0
 14 16  2  0
 16 17  1  0
 17 18  1  0
 18 19  2  0
 19 20  1  0
 20 21  2  0
 21 22  1  0
 22 23  1  0
 23 24  1  0
 22 25  2  0
 13 26  1  0
 26 27  1  0
 27 28  1  0
 28 29  1  0
 17  6  1  0
 25 18  1  0
 16 10  1  0
 29 12  1  0
  1 30  1  0
  1 31  1  0
  1 32  1  0
  2 33  1  0
  2 34  1  0
  6 35  1  0
  8 36  1  0
  8 37  1  0
  8 38  1  0
 15 39  1  0
 15 40  1  0
 17 41  1  0
 19 42  1  0
 20 43  1  0
 21 44  1  0
 24 45  1  0
 24 46  1  0
 24 47  1  0
 25 48  1  0
 26 49  1  0
 26 50  1  0
 27 51  1  0
 27 52  1  0
 28 53  1  0
 28 54  1  0
 29 55  1  0
 29 56  1  0
M  END
$$$$
