@<TRIPOS>MOLECULE
*****
 56 59 0 0 0
SMALL
GASTEIGER

@<TRIPOS>ATOM
      1 C          -2.2323   -6.0483    1.8809 C.3     1  UNL1       -0.0306
      2 C          -1.5036   -4.7860    2.2953 C.3     1  UNL1        0.0897
      3 O          -1.5593   -3.8911    1.2005 O.3     1  UNL1       -0.4644
      4 C          -1.0098   -2.6448    1.1976 C.2     1  UNL1        0.3167
      5 O          -0.4081   -2.2336    2.2167 O.2     1  UNL1       -0.2501
      6 C          -1.0691   -1.6889    0.0288 C.3     1  UNL1        0.1052
      7 C          -2.4388   -1.3697   -0.3218 C.2     1  UNL1        0.0328
      8 C          -3.4272   -2.5157   -0.5462 C.3     1  UNL1       -0.0254
      9 N          -2.8636   -0.1809   -0.4535 N.2     1  UNL1       -0.2362
     10 C          -2.0163    0.9593   -0.2668 C.ar    1  UNL1        0.1583
     11 N          -2.5243    2.2077   -0.3921 N.ar    1  UNL1       -0.2322
     12 C          -1.7906    3.3181   -0.2062 C.ar    1  UNL1        0.0486
     13 C          -0.4652    3.1961    0.1262 C.ar    1  UNL1       -0.0050
     14 C           0.0607    1.9268    0.2555 C.ar    1  UNL1        0.0369
     15 N           1.4348    1.8224    0.6038 N.pl3   1  UNL1       -0.3574
     16 C          -0.7006    0.7704    0.0619 C.ar    1  UNL1        0.0261
     17 C          -0.1415   -0.5732    0.1755 C.3     1  UNL1        0.0327
     18 C           1.0836   -0.7299   -0.6880 C.ar    1  UNL1       -0.0352
     19 C           0.9178   -0.8262   -2.0630 C.ar    1  UNL1       -0.0577
     20 C           2.0517   -0.9821   -2.8460 C.ar    1  UNL1       -0.0580
     21 C           3.3069   -1.0397   -2.2734 C.ar    1  UNL1       -0.0199
     22 C           3.4759   -0.9447   -0.9107 C.ar    1  UNL1        0.1204
     23 O           4.7289   -0.9983   -0.2912 O.3     1  UNL1       -0.4951
     24 C           5.9254   -1.1524   -0.9875 C.3     1  UNL1        0.0788
     25 C           2.3389   -0.7892   -0.1353 C.ar    1  UNL1       -0.0162
     26 C           0.4282    4.3601    0.3528 C.3     1  UNL1       -0.0242
     27 C          -0.2721    5.6680    0.2294 C.3     1  UNL1       -0.0486
     28 C          -1.7210    5.5537    0.6914 C.3     1  UNL1       -0.0473
     29 C          -2.4025    4.6649   -0.3574 C.3     1  UNL1       -0.0100
     30 H          -2.0601   -6.1742    0.7829 H       1  UNL1        0.0262
     31 H          -3.3143   -5.9791    2.0300 H       1  UNL1        0.0262
     32 H          -1.7816   -6.9468    2.3531 H       1  UNL1        0.0262
     33 H          -1.9104   -4.3457    3.2277 H       1  UNL1        0.0694
     34 H          -0.4484   -5.0966    2.5074 H       1  UNL1        0.0694
     35 H          -0.6752   -2.3503   -0.8340 H       1  UNL1        0.0484
     36 H          -4.3816   -2.1125   -0.9300 H       1  UNL1        0.0290
     37 H          -3.6313   -2.9673    0.4370 H       1  UNL1        0.0290
     38 H          -3.0288   -3.2100   -1.2937 H       1  UNL1        0.0290
     39 H           2.1954    2.0931   -0.0331 H       1  UNL1        0.1423
     40 H           1.6590    1.4553    1.5510 H       1  UNL1        0.1423
     41 H           0.2684   -0.6359    1.2477 H       1  UNL1        0.0411
     42 H          -0.0548   -0.7841   -2.5377 H       1  UNL1        0.0621
     43 H           2.0010   -1.0642   -3.9251 H       1  UNL1        0.0619
     44 H           4.2090   -1.1625   -2.8813 H       1  UNL1        0.0654
     45 H           6.7010   -1.4853   -0.2531 H       1  UNL1        0.0660
     46 H           5.8866   -1.8566   -1.8239 H       1  UNL1        0.0660
     47 H           6.2518   -0.1261   -1.3252 H       1  UNL1        0.0660
     48 H           2.4969   -0.7201    0.9489 H       1  UNL1        0.0657
     49 H           1.3204    4.3315   -0.2751 H       1  UNL1        0.0314
     50 H           0.7984    4.2840    1.4172 H       1  UNL1        0.0314
     51 H          -0.3358    5.9279   -0.8626 H       1  UNL1        0.0269
     52 H           0.2291    6.4775    0.7577 H       1  UNL1        0.0269
     53 H          -2.1526    6.5532    0.7328 H       1  UNL1        0.0269
     54 H          -1.7654    5.0725    1.7023 H       1  UNL1        0.0269
     55 H          -2.2044    5.1202   -1.3412 H       1  UNL1        0.0328
     56 H          -3.4790    4.6491   -0.0909 H       1  UNL1        0.0328
@<TRIPOS>BOND
     1     1     2    1
     2     2     3    1
     3     3     4    1
     4     4     5    2
     5     4     6    1
     6     6     7    1
     7     7     8    1
     8     7     9    2
     9     9    10    1
    10    10    11   ar
    11    11    12   ar
    12    12    13   ar
    13    13    14   ar
    14    14    15    1
    15    14    16   ar
    16    16    17    1
    17    17    18    1
    18    18    19   ar
    19    19    20   ar
    20    20    21   ar
    21    21    22   ar
    22    22    23    1
    23    23    24    1
    24    22    25   ar
    25    13    26    1
    26    26    27    1
    27    27    28    1
    28    28    29    1
    29    17     6    1
    30    25    18   ar
    31    16    10   ar
    32    29    12    1
    33     1    30    1
    34     1    31    1
    35     1    32    1
    36     2    33    1
    37     2    34    1
    38     6    35    1
    39     8    36    1
    40     8    37    1
    41     8    38    1
    42    15    39    1
    43    15    40    1
    44    17    41    1
    45    19    42    1
    46    20    43    1
    47    21    44    1
    48    24    45    1
    49    24    46    1
    50    24    47    1
    51    25    48    1
    52    26    49    1
    53    26    50    1
    54    27    51    1
    55    27    52    1
    56    28    53    1
    57    28    54    1
    58    29    55    1
    59    29    56    1
