@<TRIPOS>MOLECULE
*****
 54 55 0 0 0
SMALL
GASTEIGER

@<TRIPOS>ATOM
      1 C          -3.7776   -2.3001    1.7802 C.3     1  UNL1       -0.0370
      2 C          -3.6981   -2.0736    0.2849 C.3     1  UNL1        0.0766
      3 C          -4.2809   -3.2944   -0.3752 C.3     1  UNL1       -0.0370
      4 O          -2.4192   -1.7900   -0.0607 O.3     1  UNL1       -0.2731
      5 N          -2.1428   -0.6369   -0.5982 N.3     1  UNL1       -0.0419
      6 C          -2.2998    0.4994    0.2551 C.3     1  UNL1        0.1387
      7 C          -1.2139    0.6752    1.2512 C.2     1  UNL1        0.2570
      8 O          -0.9872    1.7306    1.8614 O.2     1  UNL1       -0.2718
      9 N          -0.3793   -0.4378    1.5287 N.am    1  UNL1       -0.1961
     10 O           0.6374   -0.2986    2.4459 O.3     1  UNL1       -0.2951
     11 C          -2.7082    1.7154   -0.4563 C.3     1  UNL1       -0.0185
     12 C          -2.8921    2.9389    0.4038 C.3     1  UNL1       -0.0607
     13 C          -4.0065    1.5033   -1.2058 C.3     1  UNL1       -0.0607
     14 S          -0.9369   -0.5003   -1.7383 S.O2    1  UNL1        0.0832
     15 O          -0.9340   -1.8149   -2.5426 O.2     1  UNL1       -0.1509
     16 O          -1.2044    0.5403   -2.8234 O.2     1  UNL1       -0.1509
     17 C           0.6865   -0.2873   -1.2255 C.ar    1  UNL1        0.1077
     18 C           1.5836   -1.2943   -0.9778 C.ar    1  UNL1       -0.0347
     19 C           2.8788   -1.0660   -0.5665 C.ar    1  UNL1       -0.0522
     20 C           3.3467    0.2208   -0.3794 C.ar    1  UNL1       -0.0178
     21 C           4.7193    0.4815    0.0572 C.ar    1  UNL1       -0.0179
     22 C           5.0942    1.5573    0.8239 C.ar    1  UNL1       -0.0540
     23 C           6.4177    1.7251    1.1909 C.ar    1  UNL1       -0.0612
     24 C           7.3990    0.8343    0.8088 C.ar    1  UNL1       -0.0617
     25 C           7.0248   -0.2467    0.0390 C.ar    1  UNL1       -0.0612
     26 C           5.6918   -0.4150   -0.3303 C.ar    1  UNL1       -0.0540
     27 C           2.4559    1.2478   -0.6245 C.ar    1  UNL1       -0.0522
     28 C           1.1590    1.0019   -1.0369 C.ar    1  UNL1       -0.0347
     29 H          -3.0783   -1.7075    2.3650 H       1  UNL1        0.0255
     30 H          -3.5042   -3.3815    1.9622 H       1  UNL1        0.0255
     31 H          -4.8398   -2.2292    2.1243 H       1  UNL1        0.0255
     32 H          -4.3464   -1.2056    0.0483 H       1  UNL1        0.0611
     33 H          -3.5953   -4.1565   -0.3650 H       1  UNL1        0.0255
     34 H          -5.1780   -3.5850    0.2108 H       1  UNL1        0.0255
     35 H          -4.6207   -3.1093   -1.4048 H       1  UNL1        0.0255
     36 H          -3.1845    0.2126    0.9370 H       1  UNL1        0.0604
     37 H          -0.4649   -1.3743    1.1101 H       1  UNL1        0.1822
     38 H           0.5638    0.5878    2.8818 H       1  UNL1        0.2414
     39 H          -1.9429    2.0040   -1.2175 H       1  UNL1        0.0317
     40 H          -1.9226    3.4647    0.5904 H       1  UNL1        0.0233
     41 H          -3.4987    3.6549   -0.1965 H       1  UNL1        0.0233
     42 H          -3.4597    2.7444    1.3232 H       1  UNL1        0.0233
     43 H          -4.1632    2.3165   -1.9419 H       1  UNL1        0.0233
     44 H          -4.8259    1.5858   -0.4628 H       1  UNL1        0.0233
     45 H          -4.0397    0.4920   -1.6815 H       1  UNL1        0.0233
     46 H           1.2642   -2.3037   -1.1097 H       1  UNL1        0.0637
     47 H           3.5607   -1.9056   -0.3806 H       1  UNL1        0.0624
     48 H           4.3406    2.2585    1.1283 H       1  UNL1        0.0624
     49 H           6.7054    2.5665    1.7895 H       1  UNL1        0.0618
     50 H           8.4430    0.9616    1.0951 H       1  UNL1        0.0618
     51 H           7.7783   -0.9650   -0.2766 H       1  UNL1        0.0618
     52 H           5.4296   -1.2742   -0.9354 H       1  UNL1        0.0624
     53 H           2.8335    2.2566   -0.4744 H       1  UNL1        0.0624
     54 H           0.5319    1.8754   -1.2046 H       1  UNL1        0.0637
@<TRIPOS>BOND
     1     1     2    1
     2     2     3    1
     3     2     4    1
     4     4     5    1
     5     5     6    1
     6     6     7    1
     7     7     8    2
     8     7     9   am
     9     9    10    1
    10     6    11    1
    11    11    12    1
    12    11    13    1
    13     5    14    1
    14    14    15    2
    15    14    16    2
    16    14    17    1
    17    17    18   ar
    18    18    19   ar
    19    19    20   ar
    20    20    21    1
    21    21    22   ar
    22    22    23   ar
    23    23    24   ar
    24    24    25   ar
    25    25    26   ar
    26    20    27   ar
    27    27    28   ar
    28    28    17   ar
    29    26    21   ar
    30     1    29    1
    31     1    30    1
    32     1    31    1
    33     2    32    1
    34     3    33    1
    35     3    34    1
    36     3    35    1
    37     6    36    1
    38     9    37    1
    39    10    38    1
    40    11    39    1
    41    12    40    1
    42    12    41    1
    43    12    42    1
    44    13    43    1
    45    13    44    1
    46    13    45    1
    47    18    46    1
    48    19    47    1
    49    22    48    1
    50    23    49    1
    51    24    50    1
    52    25    51    1
    53    26    52    1
    54    27    53    1
    55    28    54    1
