@<TRIPOS>MOLECULE
*****
 37 39 0 0 0
SMALL
GASTEIGER

@<TRIPOS>ATOM
      1 N           5.8796   -0.7252    0.8321 N.3     1  UNL1       -0.2035
      2 S           4.8762   -0.7789   -0.5702 S.O2    1  UNL1        0.0559
      3 O           5.4939    0.1254   -1.5993 O.2     1  UNL1       -0.1533
      4 O           4.8554   -2.1907   -1.1139 O.2     1  UNL1       -0.1533
      5 C           3.2446   -0.2615   -0.2564 C.ar    1  UNL1        0.1051
      6 C           2.9347    1.0757   -0.4031 C.ar    1  UNL1       -0.0334
      7 C           1.6466    1.4659   -0.1523 C.ar    1  UNL1       -0.0344
      8 C           0.6173    0.6050    0.2434 C.ar    1  UNL1        0.0661
      9 C           0.9472   -0.7266    0.3843 C.ar    1  UNL1       -0.0344
     10 C           2.2558   -1.1278    0.1303 C.ar    1  UNL1       -0.0334
     11 N          -0.6637    1.1848    0.4609 N.ar    1  UNL1       -0.2316
     12 N          -0.8136    2.3635    1.0791 N.ar    1  UNL1       -0.1618
     13 C          -2.1233    2.6672    1.1471 C.ar    1  UNL1        0.1662
     14 C          -2.8214    1.6172    0.5367 C.ar    1  UNL1       -0.0039
     15 C          -1.8719    0.7069    0.1191 C.ar    1  UNL1        0.0752
     16 C          -2.1404   -0.5489   -0.5703 C.ar    1  UNL1        0.0005
     17 C          -3.1957   -1.2553    0.0199 C.ar    1  UNL1       -0.0515
     18 C          -3.6197   -2.4626   -0.4635 C.ar    1  UNL1       -0.0471
     19 C          -3.0013   -3.0108   -1.5601 C.ar    1  UNL1        0.0179
     20 BR         -3.5626   -4.6945   -2.2668 Br      1  UNL1       -0.0503
     21 C          -1.9671   -2.3179   -2.1381 C.ar    1  UNL1       -0.0471
     22 C          -1.5194   -1.1013   -1.6730 C.ar    1  UNL1       -0.0515
     23 C          -2.7516    3.8593    1.7382 C.3     1  UNL1        0.4360
     24 F          -1.8304    4.4280    2.6161 F       1  UNL1       -0.1644
     25 F          -3.8341    3.4886    2.5080 F       1  UNL1       -0.1644
     26 F          -3.1402    4.7528    0.7776 F       1  UNL1       -0.1644
     27 H           6.8673   -0.7229    0.4928 H       1  UNL1        0.1442
     28 H           5.7332   -1.5596    1.4431 H       1  UNL1        0.1442
     29 H           3.6870    1.7731   -0.7036 H       1  UNL1        0.0638
     30 H           1.4477    2.5319   -0.2810 H       1  UNL1        0.0639
     31 H           0.1474   -1.3881    0.6905 H       1  UNL1        0.0639
     32 H           2.4993   -2.1764    0.2452 H       1  UNL1        0.0638
     33 H          -3.8945    1.5590    0.4287 H       1  UNL1        0.0660
     34 H          -3.7640   -0.9200    0.8962 H       1  UNL1        0.0624
     35 H          -4.4381   -3.0330   -0.0234 H       1  UNL1        0.0629
     36 H          -1.4501   -2.7109   -3.0040 H       1  UNL1        0.0629
     37 H          -0.7302   -0.4913   -2.0507 H       1  UNL1        0.0624
@<TRIPOS>BOND
     1     1     2    1
     2     2     3    2
     3     2     4    2
     4     2     5    1
     5     5     6   ar
     6     6     7   ar
     7     7     8   ar
     8     8     9   ar
     9     9    10   ar
    10     8    11    1
    11    11    12   ar
    12    12    13   ar
    13    13    14   ar
    14    14    15   ar
    15    15    16    1
    16    16    17   ar
    17    17    18   ar
    18    18    19   ar
    19    19    20    1
    20    19    21   ar
    21    21    22   ar
    22    13    23    1
    23    23    24    1
    24    23    25    1
    25    23    26    1
    26    10     5   ar
    27    15    11   ar
    28    22    16   ar
    29     1    27    1
    30     1    28    1
    31     6    29    1
    32     7    30    1
    33     9    31    1
    34    10    32    1
    35    14    33    1
    36    17    34    1
    37    18    35    1
    38    21    36    1
    39    22    37    1
