
     RDKit          3D

 37 39  0  0  0  0  0  0  0  0999 V2000
    5.8796   -0.7252    0.8321 N   0  0  0  0  0  0  0  0  0  0  0  0
    4.8762   -0.7789   -0.5702 S   0  0  0  0  0  0  0  0  0  0  0  0
    5.4939    0.1254   -1.5993 O   0  0  0  0  0  0  0  0  0  0  0  0
    4.8554   -2.1907   -1.1139 O   0  0  0  0  0  0  0  0  0  0  0  0
    3.2446   -0.2615   -0.2564 C   0  0  0  0  0  0  0  0  0  0  0  0
    2.9347    1.0757   -0.4031 C   0  0  0  0  0  0  0  0  0  0  0  0
    1.6466    1.4659   -0.1523 C   0  0  0  0  0  0  0  0  0  0  0  0
    0.6173    0.6050    0.2434 C   0  0  0  0  0  0  0  0  0  0  0  0
    0.9472   -0.7266    0.3843 C   0  0  0  0  0  0  0  0  0  0  0  0
    2.2558   -1.1278    0.1303 C   0  0  0  0  0  0  0  0  0  0  0  0
   -0.6637    1.1848    0.4609 N   0  0  0  0  0  0  0  0  0  0  0  0
   -0.8136    2.3635    1.0791 N   0  0  0  0  0  0  0  0  0  0  0  0
   -2.1233    2.6672    1.1471 C   0  0  0  0  0  0  0  0  0  0  0  0
   -2.8214    1.6172    0.5367 C   0  0  0  0  0  0  0  0  0  0  0  0
   -1.8719    0.7069    0.1191 C   0  0  0  0  0  0  0  0  0  0  0  0
   -2.1404   -0.5489   -0.5703 C   0  0  0  0  0  0  0  0  0  0  0  0
   -3.1957   -1.2553    0.0199 C   0  0  0  0  0  0  0  0  0  0  0  0
   -3.6197   -2.4626   -0.4635 C   0  0  0  0  0  0  0  0  0  0  0  0
   -3.0013   -3.0108   -1.5601 C   0  0  0  0  0  0  0  0  0  0  0  0
   -3.5626   -4.6945   -2.2668 Br  0  0  0  0  0  0  0  0  0  0  0  0
   -1.9671   -2.3179   -2.1381 C   0  0  0  0  0  0  0  0  0  0  0  0
   -1.5194   -1.1013   -1.6730 C   0  0  0  0  0  0  0  0  0  0  0  0
   -2.7516    3.8593    1.7382 C   0  0  0  0  0  0  0  0  0  0  0  0
   -1.8304    4.4280    2.6161 F   0  0  0  0  0  0  0  0  0  0  0  0
   -3.8341    3.4886    2.5080 F   0  0  0  0  0  0  0  0  0  0  0  0
   -3.1402    4.7528    0.7776 F   0  0  0  0  0  0  0  0  0  0  0  0
    6.8673   -0.7229    0.4928 H   0  0  0  0  0  0  0  0  0  0  0  0
    5.7332   -1.5596    1.4431 H   0  0  0  0  0  0  0  0  0  0  0  0
    3.6870    1.7731   -0.7036 H   0  0  0  0  0  0  0  0  0  0  0  0
    1.4477    2.5319   -0.2810 H   0  0  0  0  0  0  0  0  0  0  0  0
    0.1474   -1.3881    0.6905 H   0  0  0  0  0  0  0  0  0  0  0  0
    2.4993   -2.1764    0.2452 H   0  0  0  0  0  0  0  0  0  0  0  0
   -3.8945    1.5590    0.4287 H   0  0  0  0  0  0  0  0  0  0  0  0
   -3.7640   -0.9200    0.8962 H   0  0  0  0  0  0  0  0  0  0  0  0
   -4.4381   -3.0330   -0.0234 H   0  0  0  0  0  0  0  0  0  0  0  0
   -1.4501   -2.7109   -3.0040 H   0  0  0  0  0  0  0  0  0  0  0  0
   -0.7302   -0.4913   -2.0507 H   0  0  0  0  0  0  0  0  0  0  0  0
  1  2  1  0
  2  3  2  0
  2  4  2  0
  2  5  1  0
  5  6  2  0
  6  7  1  0
  7  8  2  0
  8  9  1  0
  9 10  2  0
  8 11  1  0
 11 12  1  0
 12 13  2  0
 13 14  1  0
 14 15  2  0
 15 16  1  0
 16 17  2  0
 17 18  1  0
 18 19  2  0
 19 20  1  0
 19 21  1  0
 21 22  2  0
 13 23  1  0
 23 24  1  0
 23 25  1  0
 23 26  1  0
 10  5  1  0
 15 11  1  0
 22 16  1  0
  1 27  1  0
  1 28  1  0
  6 29  1  0
  7 30  1  0
  9 31  1  0
 10 32  1  0
 14 33  1  0
 17 34  1  0
 18 35  1  0
 21 36  1  0
 22 37  1  0
M  END
$$$$
