@<TRIPOS>MOLECULE
*****
 49 52 0 0 0
SMALL
GASTEIGER

@<TRIPOS>ATOM
      1 C           6.3815   -1.9168    0.4630 C.3     1  UNL1        0.0001
      2 N           5.1458   -1.1657    0.4783 N.am    1  UNL1       -0.3172
      3 C           4.9869    0.0315   -0.2940 C.2     1  UNL1        0.2296
      4 O           5.9869    0.3747   -0.9753 O.2     1  UNL1       -0.2743
      5 C           3.7573    0.8208   -0.3085 C.3     1  UNL1        0.1052
      6 C           3.2328    1.4235    1.0022 C.3     1  UNL1       -0.0220
      7 C           2.4892    0.3826    0.3030 C.3     1  UNL1        0.0134
      8 C           1.2720    0.5591   -0.5184 C.3     1  UNL1        0.0935
      9 C           1.3768   -0.3984   -1.7184 C.3     1  UNL1       -0.0351
     10 C           0.0777    0.1589    0.2706 C.ar    1  UNL1        0.0158
     11 C          -0.6980   -0.9277   -0.0635 C.ar    1  UNL1       -0.0463
     12 C          -1.8215   -1.3007    0.6888 C.ar    1  UNL1       -0.0217
     13 C          -2.5379   -2.4909    0.2893 C.2     1  UNL1       -0.0172
     14 C          -3.8227   -2.4530    0.0181 C.2     1  UNL1        0.1492
     15 F          -4.3633   -3.6693   -0.3391 F       1  UNL1       -0.2032
     16 C          -4.6574   -1.2711   -0.0102 C.ar    1  UNL1        0.0990
     17 C          -6.0137   -1.4687   -0.2269 C.ar    1  UNL1       -0.0324
     18 C          -6.8957   -0.4374   -0.3093 C.ar    1  UNL1       -0.0442
     19 C          -6.4344    0.8599   -0.1734 C.ar    1  UNL1        0.0360
     20 BR         -7.6181    2.3500   -0.2786 Br      1  UNL1       -0.0487
     21 C          -5.0783    1.0000    0.0403 C.ar    1  UNL1        0.0423
     22 N          -4.2288   -0.0168    0.1185 N.ar    1  UNL1       -0.2516
     23 C          -2.1788   -0.5812    1.7921 C.ar    1  UNL1       -0.0518
     24 C          -1.4233    0.5126    2.1532 C.ar    1  UNL1       -0.0255
     25 C          -0.3254    0.8557    1.3952 C.ar    1  UNL1        0.1289
     26 F           0.3817    1.9349    1.7836 F       1  UNL1       -0.2051
     27 N           1.0328    1.9097   -0.9858 N.2     1  UNL1       -0.2521
     28 C           1.9160    2.6402   -1.5208 C.2     1  UNL1        0.1485
     29 N           1.6249    3.9401   -1.9543 N.pl3   1  UNL1       -0.3380
     30 S           3.5562    1.9700   -1.7064 S.3     1  UNL1       -0.0746
     31 H           7.2031   -1.3375   -0.0151 H       1  UNL1        0.0426
     32 H           6.7303   -2.1764    1.4884 H       1  UNL1        0.0426
     33 H           6.2836   -2.8444   -0.1664 H       1  UNL1        0.0426
     34 H           4.3668   -1.4965    1.0537 H       1  UNL1        0.1484
     35 H           2.8671    2.4467    0.9959 H       1  UNL1        0.0287
     36 H           3.7880    1.1602    1.9303 H       1  UNL1        0.0287
     37 H           2.5362   -0.6420    0.7813 H       1  UNL1        0.0346
     38 H           2.2845   -0.1471   -2.3211 H       1  UNL1        0.0256
     39 H           1.5394   -1.4162   -1.3164 H       1  UNL1        0.0256
     40 H           0.4659   -0.3677   -2.3214 H       1  UNL1        0.0256
     41 H          -0.4390   -1.5126   -0.9271 H       1  UNL1        0.0628
     42 H          -1.9511   -3.4060    0.2292 H       1  UNL1        0.0653
     43 H          -6.4385   -2.4778   -0.3425 H       1  UNL1        0.0640
     44 H          -7.9566   -0.5526   -0.4766 H       1  UNL1        0.0630
     45 H          -4.7255    2.0318    0.1462 H       1  UNL1        0.0841
     46 H          -3.0279   -0.8659    2.3888 H       1  UNL1        0.0624
     47 H          -1.7035    1.0855    3.0264 H       1  UNL1        0.0646
     48 H           2.0389    4.7493   -1.4217 H       1  UNL1        0.1442
     49 H           1.0170    4.1427   -2.7801 H       1  UNL1        0.1442
@<TRIPOS>BOND
     1     1     2    1
     2     2     3   am
     3     3     4    2
     4     5     3    1
     5     5     6    1
     6     6     7    1
     7     7     8    1
     8     8     9    1
     9     8    10    1
    10    10    11   ar
    11    11    12   ar
    12    12    13    1
    13    13    14    2
    14    14    15    1
    15    14    16    1
    16    16    17   ar
    17    17    18   ar
    18    18    19   ar
    19    19    20    1
    20    19    21   ar
    21    21    22   ar
    22    12    23   ar
    23    23    24   ar
    24    24    25   ar
    25    25    26    1
    26     8    27    1
    27    27    28    2
    28    28    29    1
    29    28    30    1
    30     7     5    1
    31    25    10   ar
    32    30     5    1
    33    22    16   ar
    34     1    31    1
    35     1    32    1
    36     1    33    1
    37     2    34    1
    38     6    35    1
    39     6    36    1
    40     7    37    1
    41     9    38    1
    42     9    39    1
    43     9    40    1
    44    11    41    1
    45    13    42    1
    46    17    43    1
    47    18    44    1
    48    21    45    1
    49    23    46    1
    50    24    47    1
    51    29    48    1
    52    29    49    1
