
     RDKit          3D

 44 47  0  0  0  0  0  0  0  0999 V2000
    7.3509    0.9921    0.0848 C   0  0  0  0  0  0  0  0  0  0  0  0
    7.5581   -0.3091   -1.1340 S   0  0  0  0  0  6  0  0  0  0  0  0
    7.3755    0.2151   -2.5141 O   0  0  0  0  0  0  0  0  0  0  0  0
    8.9856   -0.8118   -1.0223 O   0  0  0  0  0  0  0  0  0  0  0  0
    6.4364   -1.5735   -0.8191 N   0  0  0  0  0  0  0  0  0  0  0  0
    5.0483   -1.2875   -0.8738 C   0  0  0  0  0  0  0  0  0  0  0  0
    4.2440   -1.7773    0.1629 C   0  0  0  0  0  0  0  0  0  0  0  0
    2.9120   -1.5062    0.1185 C   0  0  0  0  0  0  0  0  0  0  0  0
    2.3035   -0.7793   -0.8831 C   0  0  0  0  0  0  0  0  0  0  0  0
    0.8652   -0.5565   -0.8172 C   0  0  0  0  0  0  0  0  0  0  0  0
    0.0378   -0.7140   -1.9307 C   0  0  0  0  0  0  0  0  0  0  0  0
   -1.2575   -0.5084   -1.8515 O   0  0  0  0  0  0  0  0  0  0  0  0
   -1.8667   -0.1470   -0.7476 C   0  0  0  0  0  0  0  0  0  0  0  0
   -3.2453    0.0598   -0.7118 C   0  0  0  0  0  0  0  0  0  0  0  0
   -3.9023    0.4401    0.4407 C   0  0  0  0  0  0  0  0  0  0  0  0
   -5.3386    0.6500    0.4557 C   0  0  0  0  0  0  0  0  0  0  0  0
   -6.5344    0.8087    0.4806 C   0  0  0  0  0  0  0  0  0  0  0  0
   -7.9877    1.0205    0.5125 C   0  0  0  0  0  0  0  0  0  0  0  0
   -8.7765    0.4543    1.6560 C   0  0  0  0  0  0  0  0  0  0  0  0
   -8.5175    1.9173    1.6518 C   0  0  0  0  0  0  0  0  0  0  0  0
   -3.1369    0.6117    1.5752 C   0  0  0  0  0  0  0  0  0  0  0  0
   -1.7677    0.4156    1.5773 C   0  0  0  0  0  0  0  0  0  0  0  0
   -1.1347    0.0354    0.4114 C   0  0  0  0  0  0  0  0  0  0  0  0
    0.2278   -0.1750    0.3518 C   0  0  0  0  0  0  0  0  0  0  0  0
    0.8959   -0.0094    1.4056 O   0  0  0  0  0  0  0  0  0  0  0  0
    3.0899   -0.3079   -1.8847 C   0  0  0  0  0  0  0  0  0  0  0  0
    4.4670   -0.5585   -1.8872 C   0  0  0  0  0  0  0  0  0  0  0  0
    8.1054    1.7809   -0.0902 H   0  0  0  0  0  0  0  0  0  0  0  0
    7.4807    0.5789    1.1029 H   0  0  0  0  0  0  0  0  0  0  0  0
    6.3252    1.4016    0.0315 H   0  0  0  0  0  0  0  0  0  0  0  0
    6.7663   -2.5325   -0.5921 H   0  0  0  0  0  0  0  0  0  0  0  0
    4.7052   -2.3604    0.9743 H   0  0  0  0  0  0  0  0  0  0  0  0
    2.2985   -1.9009    0.9437 H   0  0  0  0  0  0  0  0  0  0  0  0
    0.5137   -1.0124   -2.8579 H   0  0  0  0  0  0  0  0  0  0  0  0
   -3.8088   -0.0830   -1.6134 H   0  0  0  0  0  0  0  0  0  0  0  0
   -8.4524    1.1562   -0.4749 H   0  0  0  0  0  0  0  0  0  0  0  0
   -8.2838   -0.2125    2.3842 H   0  0  0  0  0  0  0  0  0  0  0  0
   -9.8364    0.1750    1.4099 H   0  0  0  0  0  0  0  0  0  0  0  0
   -9.3406    2.6117    1.4012 H   0  0  0  0  0  0  0  0  0  0  0  0
   -7.7712    2.2634    2.3993 H   0  0  0  0  0  0  0  0  0  0  0  0
   -3.6386    0.9077    2.4780 H   0  0  0  0  0  0  0  0  0  0  0  0
   -1.1527    0.5448    2.4539 H   0  0  0  0  0  0  0  0  0  0  0  0
    2.6622    0.2628   -2.6861 H   0  0  0  0  0  0  0  0  0  0  0  0
    5.0950   -0.1806   -2.6916 H   0  0  0  0  0  0  0  0  0  0  0  0
  1  2  1  0
  2  3  2  0
  2  4  2  0
  2  5  1  0
  5  6  1  0
  6  7  2  0
  7  8  1  0
  8  9  2  0
  9 10  1  0
 10 11  2  0
 11 12  1  0
 12 13  1  0
 13 14  2  0
 14 15  1  0
 15 16  1  0
 16 17  3  0
 17 18  1  0
 18 19  1  0
 19 20  1  0
 15 21  2  0
 21 22  1  0
 22 23  2  0
 23 24  1  0
 24 25  2  0
  9 26  1  0
 26 27  2  0
 27  6  1  0
 24 10  1  0
 23 13  1  0
 20 18  1  0
  1 28  1  0
  1 29  1  0
  1 30  1  0
  5 31  1  0
  7 32  1  0
  8 33  1  0
 11 34  1  0
 14 35  1  0
 18 36  1  0
 19 37  1  0
 19 38  1  0
 20 39  1  0
 20 40  1  0
 21 41  1  0
 22 42  1  0
 26 43  1  0
 27 44  1  0
M  END
$$$$
