@<TRIPOS>MOLECULE
*****
 44 47 0 0 0
SMALL
GASTEIGER

@<TRIPOS>ATOM
      1 C           7.3509    0.9921    0.0848 C.3     1  UNL1        0.0736
      2 S           7.5581   -0.3091   -1.1340 S.O2    1  UNL1        0.0403
      3 O           7.3755    0.2151   -2.5141 O.2     1  UNL1       -0.1555
      4 O           8.9856   -0.8118   -1.0223 O.2     1  UNL1       -0.1555
      5 N           6.4364   -1.5735   -0.8191 N.pl3   1  UNL1       -0.2209
      6 C           5.0483   -1.2875   -0.8738 C.ar    1  UNL1        0.0477
      7 C           4.2440   -1.7773    0.1629 C.ar    1  UNL1       -0.0388
      8 C           2.9120   -1.5062    0.1185 C.ar    1  UNL1       -0.0520
      9 C           2.3035   -0.7793   -0.8831 C.ar    1  UNL1       -0.0112
     10 C           0.8652   -0.5565   -0.8172 C.ar    1  UNL1        0.0643
     11 C           0.0378   -0.7140   -1.9307 C.ar    1  UNL1        0.1038
     12 O          -1.2575   -0.5084   -1.8515 O.2     1  UNL1       -0.4621
     13 C          -1.8667   -0.1470   -0.7476 C.ar    1  UNL1        0.1396
     14 C          -3.2453    0.0598   -0.7118 C.ar    1  UNL1       -0.0032
     15 C          -3.9023    0.4401    0.4407 C.ar    1  UNL1        0.0284
     16 C          -5.3386    0.6500    0.4557 C.1     1  UNL1       -0.0659
     17 C          -6.5344    0.8087    0.4806 C.1     1  UNL1       -0.0936
     18 C          -7.9877    1.0205    0.5125 C.3     1  UNL1        0.0211
     19 C          -8.7765    0.4543    1.6560 C.3     1  UNL1       -0.0382
     20 C          -8.5175    1.9173    1.6518 C.3     1  UNL1       -0.0382
     21 C          -3.1369    0.6117    1.5752 C.ar    1  UNL1       -0.0454
     22 C          -1.7677    0.4156    1.5773 C.ar    1  UNL1       -0.0462
     23 C          -1.1347    0.0354    0.4114 C.ar    1  UNL1        0.0646
     24 C           0.2278   -0.1750    0.3518 C.ar    1  UNL1        0.2001
     25 O           0.8959   -0.0094    1.4056 O.2     1  UNL1       -0.2864
     26 C           3.0899   -0.3079   -1.8847 C.ar    1  UNL1       -0.0520
     27 C           4.4670   -0.5585   -1.8872 C.ar    1  UNL1       -0.0388
     28 H           8.1054    1.7809   -0.0902 H       1  UNL1        0.0482
     29 H           7.4807    0.5789    1.1029 H       1  UNL1        0.0482
     30 H           6.3252    1.4016    0.0315 H       1  UNL1        0.0482
     31 H           6.7663   -2.5325   -0.5921 H       1  UNL1        0.1733
     32 H           4.7052   -2.3604    0.9743 H       1  UNL1        0.0637
     33 H           2.2985   -1.9009    0.9437 H       1  UNL1        0.0624
     34 H           0.5137   -1.0124   -2.8579 H       1  UNL1        0.1037
     35 H          -3.8088   -0.0830   -1.6134 H       1  UNL1        0.0667
     36 H          -8.4524    1.1562   -0.4749 H       1  UNL1        0.0433
     37 H          -8.2838   -0.2125    2.3842 H       1  UNL1        0.0277
     38 H          -9.8364    0.1750    1.4099 H       1  UNL1        0.0277
     39 H          -9.3406    2.6117    1.4012 H       1  UNL1        0.0277
     40 H          -7.7712    2.2634    2.3993 H       1  UNL1        0.0277
     41 H          -3.6386    0.9077    2.4780 H       1  UNL1        0.0630
     42 H          -1.1527    0.5448    2.4539 H       1  UNL1        0.0626
     43 H           2.6622    0.2628   -2.6861 H       1  UNL1        0.0624
     44 H           5.0950   -0.1806   -2.6916 H       1  UNL1        0.0637
@<TRIPOS>BOND
     1     1     2    1
     2     2     3    2
     3     2     4    2
     4     2     5    1
     5     5     6    1
     6     6     7   ar
     7     7     8   ar
     8     8     9   ar
     9     9    10    1
    10    10    11   ar
    11    11    12   ar
    12    12    13   ar
    13    13    14   ar
    14    14    15   ar
    15    15    16    1
    16    16    17    3
    17    17    18    1
    18    18    19    1
    19    19    20    1
    20    15    21   ar
    21    21    22   ar
    22    22    23   ar
    23    23    24   ar
    24    24    25    2
    25     9    26   ar
    26    26    27   ar
    27    27     6   ar
    28    24    10   ar
    29    23    13   ar
    30    20    18    1
    31     1    28    1
    32     1    29    1
    33     1    30    1
    34     5    31    1
    35     7    32    1
    36     8    33    1
    37    11    34    1
    38    14    35    1
    39    18    36    1
    40    19    37    1
    41    19    38    1
    42    20    39    1
    43    20    40    1
    44    21    41    1
    45    22    42    1
    46    26    43    1
    47    27    44    1
