@<TRIPOS>MOLECULE
*****
 38 40 0 0 0
SMALL
GASTEIGER

@<TRIPOS>ATOM
      1 O           3.5202    1.1491   -0.7899 O.2     1  UNL1       -0.2489
      2 C           3.6548    0.0045   -1.2589 C.2     1  UNL1        0.3256
      3 O           4.4114   -0.1920   -2.3958 O.3     1  UNL1       -0.4793
      4 C           3.0155   -1.1471   -0.6147 C.3     1  UNL1        0.1256
      5 C           4.0337   -1.7653    0.3535 C.3     1  UNL1       -0.0079
      6 C           2.8274   -1.9815    1.2148 C.3     1  UNL1        0.0192
      7 N           2.1441   -0.9350    0.4843 N.am    1  UNL1       -0.2718
      8 C           1.0372   -0.1090    0.8754 C.2     1  UNL1        0.3071
      9 O           0.5141   -0.2109    2.0305 O.2     1  UNL1       -0.2523
     10 N           0.4446    0.8648    0.0317 N.am    1  UNL1       -0.2687
     11 C          -0.6496    1.6637    0.4614 C.ar    1  UNL1        0.0440
     12 C          -0.4279    2.8875    1.0520 C.ar    1  UNL1       -0.0187
     13 C          -1.4563    3.6930    1.4977 C.ar    1  UNL1        0.0779
     14 CL         -1.1836    5.2467    2.2481 Cl      1  UNL1       -0.0805
     15 C          -2.7565    3.2729    1.3542 C.ar    1  UNL1        0.1423
     16 F          -3.8209    4.0183    1.7722 F       1  UNL1       -0.2039
     17 C          -2.9965    2.0602    0.7698 C.ar    1  UNL1       -0.0155
     18 C          -1.9543    1.2424    0.3173 C.ar    1  UNL1        0.0062
     19 C          -2.3113   -0.0203   -0.2909 C.ar    1  UNL1       -0.0160
     20 C          -3.1941   -0.8527    0.3488 C.ar    1  UNL1       -0.0540
     21 C          -3.5601   -2.0758   -0.2290 C.ar    1  UNL1       -0.0612
     22 C          -3.0197   -2.4336   -1.4537 C.ar    1  UNL1       -0.0617
     23 C          -2.1462   -1.6152   -2.0922 C.ar    1  UNL1       -0.0612
     24 C          -1.7958   -0.4005   -1.4971 C.ar    1  UNL1       -0.0540
     25 H           5.0601    0.4900   -2.7670 H       1  UNL1        0.2951
     26 H           2.6372   -1.9248   -1.3441 H       1  UNL1        0.0617
     27 H           4.4853   -2.6822   -0.0798 H       1  UNL1        0.0304
     28 H           4.7487   -1.0148    0.7219 H       1  UNL1        0.0304
     29 H           2.9641   -1.7814    2.2962 H       1  UNL1        0.0466
     30 H           2.4044   -3.0052    1.0031 H       1  UNL1        0.0466
     31 H           0.8377    0.9802   -0.9231 H       1  UNL1        0.1564
     32 H           0.5790    3.2556    1.1842 H       1  UNL1        0.0652
     33 H          -4.0251    1.6934    0.6393 H       1  UNL1        0.0653
     34 H          -3.6374   -0.6172    1.2978 H       1  UNL1        0.0624
     35 H          -4.2517   -2.7401    0.2604 H       1  UNL1        0.0618
     36 H          -3.3209   -3.3976   -1.8882 H       1  UNL1        0.0618
     37 H          -1.7080   -1.8560   -3.0378 H       1  UNL1        0.0618
     38 H          -1.1037    0.2361   -2.0286 H       1  UNL1        0.0624
@<TRIPOS>BOND
     1     1     2    2
     2     2     3    1
     3     2     4    1
     4     4     5    1
     5     5     6    1
     6     6     7    1
     7     7     8   am
     8     8     9    2
     9     8    10   am
    10    10    11    1
    11    11    12   ar
    12    12    13   ar
    13    13    14    1
    14    13    15   ar
    15    15    16    1
    16    15    17   ar
    17    17    18   ar
    18    18    19    1
    19    19    20   ar
    20    20    21   ar
    21    21    22   ar
    22    22    23   ar
    23    23    24   ar
    24     7     4    1
    25    18    11   ar
    26    24    19   ar
    27     3    25    1
    28     4    26    1
    29     5    27    1
    30     5    28    1
    31     6    29    1
    32     6    30    1
    33    10    31    1
    34    12    32    1
    35    17    33    1
    36    20    34    1
    37    21    35    1
    38    22    36    1
    39    23    37    1
    40    24    38    1
