
     RDKit          3D

 38 40  0  0  0  0  0  0  0  0999 V2000
    3.5202    1.1491   -0.7899 O   0  0  0  0  0  0  0  0  0  0  0  0
    3.6548    0.0045   -1.2589 C   0  0  0  0  0  0  0  0  0  0  0  0
    4.4114   -0.1920   -2.3958 O   0  0  0  0  0  0  0  0  0  0  0  0
    3.0155   -1.1471   -0.6147 C   0  0  1  0  0  0  0  0  0  0  0  0
    4.0337   -1.7653    0.3535 C   0  0  0  0  0  0  0  0  0  0  0  0
    2.8274   -1.9815    1.2148 C   0  0  0  0  0  0  0  0  0  0  0  0
    2.1441   -0.9350    0.4843 N   0  0  0  0  0  0  0  0  0  0  0  0
    1.0372   -0.1090    0.8754 C   0  0  0  0  0  0  0  0  0  0  0  0
    0.5141   -0.2109    2.0305 O   0  0  0  0  0  0  0  0  0  0  0  0
    0.4446    0.8648    0.0317 N   0  0  0  0  0  0  0  0  0  0  0  0
   -0.6496    1.6637    0.4614 C   0  0  0  0  0  0  0  0  0  0  0  0
   -0.4279    2.8875    1.0520 C   0  0  0  0  0  0  0  0  0  0  0  0
   -1.4563    3.6930    1.4977 C   0  0  0  0  0  0  0  0  0  0  0  0
   -1.1836    5.2467    2.2481 Cl  0  0  0  0  0  0  0  0  0  0  0  0
   -2.7565    3.2729    1.3542 C   0  0  0  0  0  0  0  0  0  0  0  0
   -3.8209    4.0183    1.7722 F   0  0  0  0  0  0  0  0  0  0  0  0
   -2.9965    2.0602    0.7698 C   0  0  0  0  0  0  0  0  0  0  0  0
   -1.9543    1.2424    0.3173 C   0  0  0  0  0  0  0  0  0  0  0  0
   -2.3113   -0.0203   -0.2909 C   0  0  0  0  0  0  0  0  0  0  0  0
   -3.1941   -0.8527    0.3488 C   0  0  0  0  0  0  0  0  0  0  0  0
   -3.5601   -2.0758   -0.2290 C   0  0  0  0  0  0  0  0  0  0  0  0
   -3.0197   -2.4336   -1.4537 C   0  0  0  0  0  0  0  0  0  0  0  0
   -2.1462   -1.6152   -2.0922 C   0  0  0  0  0  0  0  0  0  0  0  0
   -1.7958   -0.4005   -1.4971 C   0  0  0  0  0  0  0  0  0  0  0  0
    5.0601    0.4900   -2.7670 H   0  0  0  0  0  0  0  0  0  0  0  0
    2.6372   -1.9248   -1.3441 H   0  0  0  0  0  0  0  0  0  0  0  0
    4.4853   -2.6822   -0.0798 H   0  0  0  0  0  0  0  0  0  0  0  0
    4.7487   -1.0148    0.7219 H   0  0  0  0  0  0  0  0  0  0  0  0
    2.9641   -1.7814    2.2962 H   0  0  0  0  0  0  0  0  0  0  0  0
    2.4044   -3.0052    1.0031 H   0  0  0  0  0  0  0  0  0  0  0  0
    0.8377    0.9802   -0.9231 H   0  0  0  0  0  0  0  0  0  0  0  0
    0.5790    3.2556    1.1842 H   0  0  0  0  0  0  0  0  0  0  0  0
   -4.0251    1.6934    0.6393 H   0  0  0  0  0  0  0  0  0  0  0  0
   -3.6374   -0.6172    1.2978 H   0  0  0  0  0  0  0  0  0  0  0  0
   -4.2517   -2.7401    0.2604 H   0  0  0  0  0  0  0  0  0  0  0  0
   -3.3209   -3.3976   -1.8882 H   0  0  0  0  0  0  0  0  0  0  0  0
   -1.7080   -1.8560   -3.0378 H   0  0  0  0  0  0  0  0  0  0  0  0
   -1.1037    0.2361   -2.0286 H   0  0  0  0  0  0  0  0  0  0  0  0
  1  2  2  0
  2  3  1  0
  2  4  1  0
  4  5  1  0
  5  6  1  0
  6  7  1  0
  7  8  1  0
  8  9  2  0
  8 10  1  0
 10 11  1  0
 11 12  2  0
 12 13  1  0
 13 14  1  0
 13 15  2  0
 15 16  1  0
 15 17  1  0
 17 18  2  0
 18 19  1  0
 19 20  2  0
 20 21  1  0
 21 22  2  0
 22 23  1  0
 23 24  2  0
  7  4  1  0
 18 11  1  0
 24 19  1  0
  3 25  1  0
  4 26  1  6
  5 27  1  0
  5 28  1  0
  6 29  1  0
  6 30  1  0
 10 31  1  0
 12 32  1  0
 17 33  1  0
 20 34  1  0
 21 35  1  0
 22 36  1  0
 23 37  1  0
 24 38  1  0
M  END
$$$$
