@<TRIPOS>MOLECULE
*****
 29 30 0 0 0
SMALL
GASTEIGER

@<TRIPOS>ATOM
      1 N          -4.9726    1.1826   -0.5089 N.pl3   1  UNL1       -0.3580
      2 C          -3.7655    0.4509   -0.3398 C.ar    1  UNL1        0.0246
      3 C          -3.1995    0.3658    0.9154 C.ar    1  UNL1       -0.0392
      4 C          -2.0242   -0.3188    1.2072 C.ar    1  UNL1       -0.0347
      5 C          -1.4206   -0.9416    0.1210 C.ar    1  UNL1        0.0937
      6 C          -1.9258   -0.9016   -1.1638 C.ar    1  UNL1       -0.0347
      7 C          -3.0975   -0.1977   -1.3567 C.ar    1  UNL1       -0.0392
      8 S           0.0574   -1.8081    0.4620 S.O2    1  UNL1        0.0251
      9 O           0.1806   -2.9522   -0.4980 O.2     1  UNL1       -0.1643
     10 O           0.0677   -2.3224    1.8911 O.2     1  UNL1       -0.1643
     11 C           1.4572   -0.7828    0.2928 C.ar    1  UNL1        0.0937
     12 C           2.0576   -0.7247   -0.9573 C.ar    1  UNL1       -0.0347
     13 C           3.1695    0.0404   -1.2435 C.ar    1  UNL1       -0.0392
     14 C           3.6799    0.7723   -0.2007 C.ar    1  UNL1        0.0246
     15 N           4.8264    1.5906   -0.4051 N.pl3   1  UNL1       -0.3580
     16 C           3.1240    0.7577    1.0774 C.ar    1  UNL1       -0.0392
     17 C           1.9981   -0.0354    1.3111 C.ar    1  UNL1       -0.0347
     18 H          -5.8181    0.8686    0.0051 H       1  UNL1        0.1423
     19 H          -5.1889    2.0374   -1.0930 H       1  UNL1        0.1423
     20 H          -3.6972    0.8651    1.7462 H       1  UNL1        0.0636
     21 H          -1.6180   -0.3579    2.2080 H       1  UNL1        0.0637
     22 H          -1.4127   -1.4067   -1.9761 H       1  UNL1        0.0637
     23 H          -3.5188   -0.1479   -2.3534 H       1  UNL1        0.0636
     24 H           1.6502   -1.3103   -1.7940 H       1  UNL1        0.0637
     25 H           3.6118    0.0619   -2.2300 H       1  UNL1        0.0636
     26 H           5.8249    1.3355   -0.4646 H       1  UNL1        0.1423
     27 H           4.8878    2.6311   -0.5381 H       1  UNL1        0.1423
     28 H           3.5446    1.3423    1.8800 H       1  UNL1        0.0636
     29 H           1.5216   -0.0941    2.2640 H       1  UNL1        0.0637
@<TRIPOS>BOND
     1     1     2    1
     2     2     3   ar
     3     3     4   ar
     4     4     5   ar
     5     5     6   ar
     6     6     7   ar
     7     5     8    1
     8     8     9    2
     9     8    10    2
    10     8    11    1
    11    11    12   ar
    12    12    13   ar
    13    13    14   ar
    14    14    15    1
    15    14    16   ar
    16    16    17   ar
    17     7     2   ar
    18    17    11   ar
    19     1    18    1
    20     1    19    1
    21     3    20    1
    22     4    21    1
    23     6    22    1
    24     7    23    1
    25    12    24    1
    26    13    25    1
    27    15    26    1
    28    15    27    1
    29    16    28    1
    30    17    29    1
