@<TRIPOS>MOLECULE
*****
 54 56 0 0 0
SMALL
GASTEIGER

@<TRIPOS>ATOM
      1 C          -7.2830   -1.1863   -0.5254 C.3     1  UNL1       -0.0457
      2 C          -6.2029   -0.1492   -0.1693 C.3     1  UNL1        0.0316
      3 C          -4.9785   -0.5124   -0.9754 C.3     1  UNL1       -0.0457
      4 C          -6.7461    1.1918   -0.6202 C.3     1  UNL1       -0.0457
      5 N          -6.0134   -0.2250    1.2416 N.3     1  UNL1       -0.1846
      6 S          -4.9446    0.8905    1.9322 S.O2    1  UNL1        0.0589
      7 O          -4.8994    0.6148    3.4318 O.2     1  UNL1       -0.1530
      8 O          -5.4119    2.3156    1.8076 O.2     1  UNL1       -0.1530
      9 C          -3.3038    0.7871    1.3669 C.ar    1  UNL1        0.1053
     10 C          -2.8760    1.6080    0.3458 C.ar    1  UNL1       -0.0348
     11 C          -1.5687    1.5123   -0.0906 C.ar    1  UNL1       -0.0517
     12 C          -0.6785    0.6257    0.4585 C.ar    1  UNL1       -0.0112
     13 C           0.6566    0.5936   -0.0518 C.ar    1  UNL1        0.0206
     14 C           1.3016    1.2769   -1.0139 C.ar    1  UNL1       -0.0359
     15 C           2.5956    1.0197   -1.2750 C.ar    1  UNL1        0.0300
     16 C           3.4344    1.6238   -2.2340 C.ar    1  UNL1        0.1245
     17 N           2.9578    2.6562   -3.1004 N.pl3   1  UNL1       -0.3426
     18 N           4.7054    1.2462   -2.3618 N.ar    1  UNL1       -0.2393
     19 C           5.3287    0.3041   -1.6486 C.ar    1  UNL1        0.0429
     20 C           4.5448   -0.3245   -0.6869 C.ar    1  UNL1        0.0691
     21 C           5.0403   -1.3600    0.1731 C.2     1  UNL1        0.2467
     22 O           4.2887   -2.2205    0.6989 O.2     1  UNL1       -0.2701
     23 N           6.4319   -1.4578    0.4727 N.am    1  UNL1       -0.3091
     24 C           6.9128   -2.5160    1.3463 C.3     1  UNL1        0.0351
     25 C           8.4090   -2.3989    1.5010 C.3     1  UNL1        0.0597
     26 O           8.7597   -1.1762    2.0514 O.3     1  UNL1       -0.3935
     27 C           3.2102    0.0487   -0.5288 C.ar    1  UNL1        0.0367
     28 S           1.9654   -0.5210    0.5599 S.2     1  UNL1       -0.0873
     29 C          -1.1092   -0.1921    1.4775 C.ar    1  UNL1       -0.0517
     30 C          -2.4196   -0.1097    1.9291 C.ar    1  UNL1       -0.0348
     31 H          -7.2308   -1.3788   -1.6174 H       1  UNL1        0.0248
     32 H          -7.0534   -2.1579   -0.0309 H       1  UNL1        0.0248
     33 H          -8.2868   -0.8246   -0.2349 H       1  UNL1        0.0248
     34 H          -4.2116   -0.8657   -0.2427 H       1  UNL1        0.0248
     35 H          -4.6084    0.3476   -1.5722 H       1  UNL1        0.0248
     36 H          -5.2183   -1.3870   -1.6052 H       1  UNL1        0.0248
     37 H          -7.0575    1.8055    0.2319 H       1  UNL1        0.0248
     38 H          -7.6308    1.0793   -1.2800 H       1  UNL1        0.0248
     39 H          -5.9663    1.6890   -1.2628 H       1  UNL1        0.0248
     40 H          -6.9423   -0.1308    1.7024 H       1  UNL1        0.1486
     41 H          -3.5572    2.3210   -0.1104 H       1  UNL1        0.0637
     42 H          -1.2713    2.1724   -0.8927 H       1  UNL1        0.0624
     43 H           0.7044    2.0606   -1.5751 H       1  UNL1        0.0636
     44 H           2.2005    2.4930   -3.7868 H       1  UNL1        0.1437
     45 H           3.3825    3.5993   -3.0417 H       1  UNL1        0.1437
     46 H           6.3474   -0.0115   -1.7373 H       1  UNL1        0.0838
     47 H           7.0953   -0.7664    0.0607 H       1  UNL1        0.1491
     48 H           6.4535   -2.4524    2.3644 H       1  UNL1        0.0485
     49 H           6.7139   -3.5266    0.9266 H       1  UNL1        0.0485
     50 H           8.8259   -2.3873    0.4510 H       1  UNL1        0.0573
     51 H           8.8618   -3.2656    1.9875 H       1  UNL1        0.0573
     52 H           9.5121   -0.7366    1.5986 H       1  UNL1        0.2095
     53 H          -0.4014   -0.8943    1.9105 H       1  UNL1        0.0624
     54 H          -2.7685   -0.7475    2.7290 H       1  UNL1        0.0637
@<TRIPOS>BOND
     1     1     2    1
     2     2     3    1
     3     2     4    1
     4     2     5    1
     5     5     6    1
     6     6     7    2
     7     6     8    2
     8     6     9    1
     9     9    10   ar
    10    10    11   ar
    11    11    12   ar
    12    12    13    1
    13    13    14   ar
    14    14    15   ar
    15    15    16   ar
    16    16    17    1
    17    16    18   ar
    18    18    19   ar
    19    19    20   ar
    20    20    21    1
    21    21    22    2
    22    21    23   am
    23    23    24    1
    24    24    25    1
    25    25    26    1
    26    20    27   ar
    27    27    28   ar
    28    12    29   ar
    29    29    30   ar
    30    30     9   ar
    31    28    13   ar
    32    27    15   ar
    33     1    31    1
    34     1    32    1
    35     1    33    1
    36     3    34    1
    37     3    35    1
    38     3    36    1
    39     4    37    1
    40     4    38    1
    41     4    39    1
    42     5    40    1
    43    10    41    1
    44    11    42    1
    45    14    43    1
    46    17    44    1
    47    17    45    1
    48    19    46    1
    49    23    47    1
    50    24    48    1
    51    24    49    1
    52    25    50    1
    53    25    51    1
    54    26    52    1
    55    29    53    1
    56    30    54    1
