
     RDKit          3D

 49 53  0  0  0  0  0  0  0  0999 V2000
   -7.3385    0.2523   -1.2702 C   0  0  0  0  0  0  0  0  0  0  0  0
   -6.4016   -0.0394   -0.1470 C   0  0  0  0  0  0  0  0  0  0  0  0
   -6.9172   -0.3421    1.0977 C   0  0  0  0  0  0  0  0  0  0  0  0
   -6.0315   -0.6084    2.1209 C   0  0  0  0  0  0  0  0  0  0  0  0
   -4.6891   -0.5661    1.8787 N   0  0  0  0  0  0  0  0  0  0  0  0
   -3.6675   -0.7832    2.6963 N   0  0  0  0  0  0  0  0  0  0  0  0
   -2.5128   -0.6319    2.0274 C   0  0  0  0  0  0  0  0  0  0  0  0
   -2.8522   -0.3067    0.7380 C   0  0  0  0  0  0  0  0  0  0  0  0
   -4.2233   -0.2681    0.6558 C   0  0  0  0  0  0  0  0  0  0  0  0
   -5.0803    0.0001   -0.3770 N   0  0  0  0  0  0  0  0  0  0  0  0
   -1.5764   -0.1320   -0.0355 C   0  0  0  0  0  0  0  0  0  0  0  0
   -0.6410    0.1082    1.0086 N   0  0  0  0  0  0  0  0  0  0  0  0
    0.7152    0.1690    0.6707 C   0  0  1  0  0  0  0  0  0  0  0  0
    1.3183   -1.0333    0.0494 C   0  0  0  0  0  0  0  0  0  0  0  0
    2.0906   -0.8662   -1.0508 O   0  0  0  0  0  0  0  0  0  0  0  0
    2.8649    0.2350   -1.1878 C   0  0  2  0  0  0  0  0  0  0  0  0
    4.3378   -0.0111   -1.0343 C   0  0  0  0  0  0  0  0  0  0  0  0
    4.8702   -0.7762   -0.0162 C   0  0  0  0  0  0  0  0  0  0  0  0
    6.2424   -0.9796    0.0929 C   0  0  0  0  0  0  0  0  0  0  0  0
    6.7466   -1.7343    1.0992 F   0  0  0  0  0  0  0  0  0  0  0  0
    7.1018   -0.4153   -0.8229 C   0  0  0  0  0  0  0  0  0  0  0  0
    8.4409   -0.6046   -0.7289 F   0  0  0  0  0  0  0  0  0  0  0  0
    6.6095    0.3521   -1.8496 C   0  0  0  0  0  0  0  0  0  0  0  0
    5.2645    0.5310   -1.9274 C   0  0  0  0  0  0  0  0  0  0  0  0
    4.7359    1.2910   -2.9385 F   0  0  0  0  0  0  0  0  0  0  0  0
    2.4360    1.4608   -0.4313 C   0  0  1  0  0  0  0  0  0  0  0  0
    2.6701    2.6808   -1.1990 N   0  0  0  0  0  0  0  0  0  0  0  0
    0.9307    1.3583   -0.2541 C   0  0  0  0  0  0  0  0  0  0  0  0
   -1.0052   -0.6796    2.1421 C   0  0  0  0  0  0  0  0  0  0  0  0
   -7.3240   -0.5691   -2.0076 H   0  0  0  0  0  0  0  0  0  0  0  0
   -7.0369    1.1681   -1.8053 H   0  0  0  0  0  0  0  0  0  0  0  0
   -8.3561    0.4512   -0.8689 H   0  0  0  0  0  0  0  0  0  0  0  0
   -7.9945   -0.3575    1.2173 H   0  0  0  0  0  0  0  0  0  0  0  0
   -6.4076   -0.8503    3.1138 H   0  0  0  0  0  0  0  0  0  0  0  0
   -1.3762   -1.0554   -0.6196 H   0  0  0  0  0  0  0  0  0  0  0  0
   -1.6541    0.7583   -0.7077 H   0  0  0  0  0  0  0  0  0  0  0  0
    1.2962    0.4051    1.6101 H   0  0  0  0  0  0  0  0  0  0  0  0
    1.8826   -1.6392    0.8236 H   0  0  0  0  0  0  0  0  0  0  0  0
    0.5065   -1.7696   -0.2624 H   0  0  0  0  0  0  0  0  0  0  0  0
    2.7678    0.5377   -2.2826 H   0  0  0  0  0  0  0  0  0  0  0  0
    4.2228   -1.2239    0.7075 H   0  0  0  0  0  0  0  0  0  0  0  0
    7.2275    0.8266   -2.6060 H   0  0  0  0  0  0  0  0  0  0  0  0
    2.9428    1.5323    0.5513 H   0  0  0  0  0  0  0  0  0  0  0  0
    1.8367    3.3105   -1.1970 H   0  0  0  0  0  0  0  0  0  0  0  0
    3.4963    3.1790   -0.8068 H   0  0  0  0  0  0  0  0  0  0  0  0
    0.4939    2.2414    0.2067 H   0  0  0  0  0  0  0  0  0  0  0  0
    0.4867    1.0908   -1.2318 H   0  0  0  0  0  0  0  0  0  0  0  0
   -0.7328   -1.7344    2.1000 H   0  0  0  0  0  0  0  0  0  0  0  0
   -0.7162   -0.1598    3.0581 H   0  0  0  0  0  0  0  0  0  0  0  0
  1  2  1  0
  2  3  1  0
  3  4  2  0
  4  5  1  0
  5  6  1  0
  6  7  2  0
  7  8  1  0
  8  9  2  0
  9 10  1  0
  8 11  1  0
 11 12  1  0
 12 13  1  0
 13 14  1  0
 14 15  1  0
 15 16  1  0
 16 17  1  0
 17 18  2  0
 18 19  1  0
 19 20  1  0
 19 21  2  0
 21 22  1  0
 21 23  1  0
 23 24  2  0
 24 25  1  0
 16 26  1  0
 26 27  1  0
 26 28  1  0
 12 29  1  0
 10  2  2  0
 28 13  1  0
  9  5  1  0
 24 17  1  0
 29  7  1  0
  1 30  1  0
  1 31  1  0
  1 32  1  0
  3 33  1  0
  4 34  1  0
 11 35  1  0
 11 36  1  0
 13 37  1  1
 14 38  1  0
 14 39  1  0
 16 40  1  6
 18 41  1  0
 23 42  1  0
 26 43  1  1
 27 44  1  0
 27 45  1  0
 28 46  1  0
 28 47  1  0
 29 48  1  0
 29 49  1  0
M  END
$$$$
