@<TRIPOS>MOLECULE
*****
 49 53 0 0 0
SMALL
GASTEIGER

@<TRIPOS>ATOM
      1 C          -7.3385    0.2523   -1.2702 C.3     1  UNL1       -0.0222
      2 C          -6.4016   -0.0394   -0.1470 C.ar    1  UNL1        0.0421
      3 C          -6.9172   -0.3421    1.0977 C.ar    1  UNL1       -0.0224
      4 C          -6.0315   -0.6084    2.1209 C.ar    1  UNL1        0.0331
      5 N          -4.6891   -0.5661    1.8787 N.ar    1  UNL1       -0.2211
      6 N          -3.6675   -0.7832    2.6963 N.ar    1  UNL1       -0.1683
      7 C          -2.5128   -0.6319    2.0274 C.ar    1  UNL1        0.0839
      8 C          -2.8522   -0.3067    0.7380 C.ar    1  UNL1        0.0349
      9 C          -4.2233   -0.2681    0.6558 C.ar    1  UNL1        0.1603
     10 N          -5.0803    0.0001   -0.3770 N.ar    1  UNL1       -0.2326
     11 C          -1.5764   -0.1320   -0.0355 C.3     1  UNL1        0.0301
     12 N          -0.6410    0.1082    1.0086 N.3     1  UNL1       -0.2871
     13 C           0.7152    0.1690    0.6707 C.3     1  UNL1        0.0360
     14 C           1.3183   -1.0333    0.0494 C.3     1  UNL1        0.0641
     15 O           2.0906   -0.8662   -1.0508 O.3     1  UNL1       -0.3688
     16 C           2.8649    0.2350   -1.1878 C.3     1  UNL1        0.1015
     17 C           4.3378   -0.0111   -1.0343 C.ar    1  UNL1        0.0207
     18 C           4.8702   -0.7762   -0.0162 C.ar    1  UNL1       -0.0152
     19 C           6.2424   -0.9796    0.0929 C.ar    1  UNL1        0.1589
     20 F           6.7466   -1.7343    1.0992 F       1  UNL1       -0.2025
     21 C           7.1018   -0.4153   -0.8229 C.ar    1  UNL1        0.1611
     22 F           8.4409   -0.6046   -0.7289 F       1  UNL1       -0.2024
     23 C           6.6095    0.3521   -1.8496 C.ar    1  UNL1        0.0120
     24 C           5.2645    0.5310   -1.9274 C.ar    1  UNL1        0.1320
     25 F           4.7359    1.2910   -2.9385 F       1  UNL1       -0.2050
     26 C           2.4360    1.4608   -0.4313 C.3     1  UNL1        0.0371
     27 N           2.6701    2.6808   -1.1990 N.3     1  UNL1       -0.3248
     28 C           0.9307    1.3583   -0.2541 C.3     1  UNL1       -0.0172
     29 C          -1.0052   -0.6796    2.1421 C.3     1  UNL1        0.0440
     30 H          -7.3240   -0.5691   -2.0076 H       1  UNL1        0.0293
     31 H          -7.0369    1.1681   -1.8053 H       1  UNL1        0.0293
     32 H          -8.3561    0.4512   -0.8689 H       1  UNL1        0.0293
     33 H          -7.9945   -0.3575    1.2173 H       1  UNL1        0.0650
     34 H          -6.4076   -0.8503    3.1138 H       1  UNL1        0.0831
     35 H          -1.3762   -1.0554   -0.6196 H       1  UNL1        0.0478
     36 H          -1.6541    0.7583   -0.7077 H       1  UNL1        0.0478
     37 H           1.2962    0.4051    1.6101 H       1  UNL1        0.0486
     38 H           1.8826   -1.6392    0.8236 H       1  UNL1        0.0576
     39 H           0.5065   -1.7696   -0.2624 H       1  UNL1        0.0576
     40 H           2.7678    0.5377   -2.2826 H       1  UNL1        0.0663
     41 H           4.2228   -1.2239    0.7075 H       1  UNL1        0.0651
     42 H           7.2275    0.8266   -2.6060 H       1  UNL1        0.0676
     43 H           2.9428    1.5323    0.5513 H       1  UNL1        0.0488
     44 H           1.8367    3.3105   -1.1970 H       1  UNL1        0.1186
     45 H           3.4963    3.1790   -0.8068 H       1  UNL1        0.1186
     46 H           0.4939    2.2414    0.2067 H       1  UNL1        0.0297
     47 H           0.4867    1.0908   -1.2318 H       1  UNL1        0.0297
     48 H          -0.7328   -1.7344    2.1000 H       1  UNL1        0.0492
     49 H          -0.7162   -0.1598    3.0581 H       1  UNL1        0.0492
@<TRIPOS>BOND
     1     1     2    1
     2     2     3   ar
     3     3     4   ar
     4     4     5   ar
     5     5     6   ar
     6     6     7   ar
     7     7     8   ar
     8     8     9   ar
     9     9    10   ar
    10     8    11    1
    11    11    12    1
    12    12    13    1
    13    13    14    1
    14    14    15    1
    15    15    16    1
    16    16    17    1
    17    17    18   ar
    18    18    19   ar
    19    19    20    1
    20    19    21   ar
    21    21    22    1
    22    21    23   ar
    23    23    24   ar
    24    24    25    1
    25    16    26    1
    26    26    27    1
    27    26    28    1
    28    12    29    1
    29    10     2   ar
    30    28    13    1
    31     9     5   ar
    32    24    17   ar
    33    29     7    1
    34     1    30    1
    35     1    31    1
    36     1    32    1
    37     3    33    1
    38     4    34    1
    39    11    35    1
    40    11    36    1
    41    13    37    1
    42    14    38    1
    43    14    39    1
    44    16    40    1
    45    18    41    1
    46    23    42    1
    47    26    43    1
    48    27    44    1
    49    27    45    1
    50    28    46    1
    51    28    47    1
    52    29    48    1
    53    29    49    1
