
     RDKit          3D

 57 63  0  0  0  0  0  0  0  0999 V2000
    5.1249   -0.9957   -2.6354 C   0  0  0  0  0  0  0  0  0  0  0  0
    4.2818   -0.6413   -1.4699 C   0  0  0  0  0  0  0  0  0  0  0  0
    2.9270   -0.8694   -1.4703 C   0  0  0  0  0  0  0  0  0  0  0  0
    2.1298   -0.5457   -0.3949 C   0  0  0  0  0  0  0  0  0  0  0  0
    0.7317   -0.7977   -0.4342 N   0  0  0  0  0  0  0  0  0  0  0  0
    0.0180   -1.9564   -0.0332 C   0  0  0  0  0  0  0  0  0  0  0  0
    0.5534   -2.9874    0.4478 O   0  0  0  0  0  0  0  0  0  0  0  0
   -1.4074   -1.7610   -0.2660 C   0  0  0  0  0  0  0  0  0  0  0  0
   -2.6609   -2.3210   -0.1771 C   0  0  0  0  0  0  0  0  0  0  0  0
   -3.0685   -3.6461    0.3399 C   0  0  0  0  0  0  0  0  0  0  0  0
   -3.6508   -3.5436    1.7512 C   0  0  0  0  0  0  0  0  0  0  0  0
   -2.4042   -4.3661    1.4185 C   0  0  0  0  0  0  0  0  0  0  0  0
   -3.5436   -1.3613   -0.6731 C   0  0  0  0  0  0  0  0  0  0  0  0
   -2.8779   -0.2674   -1.0481 N   0  0  0  0  0  0  0  0  0  0  0  0
   -3.4479    0.9611   -1.6192 C   0  0  0  0  0  0  0  0  0  0  0  0
   -4.9570    0.9030   -1.5978 C   0  0  0  0  0  0  0  0  0  0  0  0
   -4.9396    2.2867   -1.3460 O   0  0  0  0  0  0  0  0  0  0  0  0
   -3.7332    2.0483   -0.6471 C   0  0  0  0  0  0  0  0  0  0  0  0
   -1.5649   -0.4885   -0.8079 C   0  0  0  0  0  0  0  0  0  0  0  0
   -0.2339    0.1577   -0.9228 C   0  0  0  0  0  0  0  0  0  0  0  0
   -0.1595    1.4416   -0.1798 C   0  0  0  0  0  0  0  0  0  0  0  0
   -0.0684    1.4472    1.2066 C   0  0  0  0  0  0  0  0  0  0  0  0
    0.0020    2.6338    1.9122 C   0  0  0  0  0  0  0  0  0  0  0  0
   -0.0174    3.8458    1.2414 C   0  0  0  0  0  0  0  0  0  0  0  0
    0.0719    5.3599    2.1333 Cl  0  0  0  0  0  0  0  0  0  0  0  0
   -0.1067    3.8675   -0.1281 C   0  0  0  0  0  0  0  0  0  0  0  0
   -0.1761    2.6656   -0.8121 C   0  0  0  0  0  0  0  0  0  0  0  0
    2.7181    0.0123    0.6833 N   0  0  0  0  0  0  0  0  0  0  0  0
    4.0504    0.2406    0.6932 C   0  0  0  0  0  0  0  0  0  0  0  0
    4.8787   -0.0712   -0.3666 C   0  0  0  0  0  0  0  0  0  0  0  0
    6.1285    0.2860   -0.0214 N   0  0  0  0  0  0  0  0  0  0  0  0
    6.0898    0.7993    1.1996 N   0  0  0  0  0  0  0  0  0  0  0  0
    4.8462    0.7844    1.6561 N   0  0  0  0  0  0  0  0  0  0  0  0
    4.4662    1.2719    2.9515 C   0  0  0  0  0  0  0  0  0  0  0  0
    5.7802   -1.8474   -2.2890 H   0  0  0  0  0  0  0  0  0  0  0  0
    4.5180   -1.3498   -3.4791 H   0  0  0  0  0  0  0  0  0  0  0  0
    5.7328   -0.1341   -2.9534 H   0  0  0  0  0  0  0  0  0  0  0  0
    2.4794   -1.3155   -2.3413 H   0  0  0  0  0  0  0  0  0  0  0  0
   -3.7634   -4.2125   -0.3570 H   0  0  0  0  0  0  0  0  0  0  0  0
   -3.4968   -2.6267    2.3376 H   0  0  0  0  0  0  0  0  0  0  0  0
   -4.5771   -4.0714    1.9798 H   0  0  0  0  0  0  0  0  0  0  0  0
   -1.4736   -4.0290    1.8598 H   0  0  0  0  0  0  0  0  0  0  0  0
   -2.5714   -5.4856    1.4087 H   0  0  0  0  0  0  0  0  0  0  0  0
   -4.6133   -1.5122   -0.7328 H   0  0  0  0  0  0  0  0  0  0  0  0
   -2.9976    1.2696   -2.5695 H   0  0  0  0  0  0  0  0  0  0  0  0
   -5.4521    0.6086   -2.5224 H   0  0  0  0  0  0  0  0  0  0  0  0
   -5.3176    0.3987   -0.6787 H   0  0  0  0  0  0  0  0  0  0  0  0
   -3.8821    1.6861    0.3897 H   0  0  0  0  0  0  0  0  0  0  0  0
   -3.0622    2.9262   -0.7433 H   0  0  0  0  0  0  0  0  0  0  0  0
   -0.0431    0.4112   -2.0007 H   0  0  0  0  0  0  0  0  0  0  0  0
   -0.0523    0.4981    1.7463 H   0  0  0  0  0  0  0  0  0  0  0  0
    0.0712    2.6017    2.9781 H   0  0  0  0  0  0  0  0  0  0  0  0
   -0.1198    4.8300   -0.6249 H   0  0  0  0  0  0  0  0  0  0  0  0
   -0.2456    2.7164   -1.8882 H   0  0  0  0  0  0  0  0  0  0  0  0
    4.5809    0.4755    3.7104 H   0  0  0  0  0  0  0  0  0  0  0  0
    3.4186    1.6227    2.9170 H   0  0  0  0  0  0  0  0  0  0  0  0
    5.0865    2.1466    3.2696 H   0  0  0  0  0  0  0  0  0  0  0  0
  1  2  1  0
  2  3  2  0
  3  4  1  0
  4  5  1  0
  5  6  1  0
  6  7  2  0
  6  8  1  0
  8  9  1  0
  9 10  1  0
 10 11  1  0
 11 12  1  0
  9 13  2  0
 13 14  1  0
 14 15  1  0
 15 16  1  0
 16 17  1  0
 17 18  1  0
 14 19  1  0
 19 20  1  0
 20 21  1  0
 21 22  2  0
 22 23  1  0
 23 24  2  0
 24 25  1  0
 24 26  1  0
 26 27  2  0
  4 28  2  0
 28 29  1  0
 29 30  2  0
 30 31  1  0
 31 32  2  0
 32 33  1  0
 33 34  1  0
 30  2  1  0
 20  5  1  0
 27 21  1  0
 33 29  1  0
 19  8  2  0
 12 10  1  0
 18 15  1  0
  1 35  1  0
  1 36  1  0
  1 37  1  0
  3 38  1  0
 10 39  1  0
 11 40  1  0
 11 41  1  0
 12 42  1  0
 12 43  1  0
 13 44  1  0
 15 45  1  0
 16 46  1  0
 16 47  1  0
 18 48  1  0
 18 49  1  0
 20 50  1  0
 22 51  1  0
 23 52  1  0
 26 53  1  0
 27 54  1  0
 34 55  1  0
 34 56  1  0
 34 57  1  0
M  END
$$$$
