@<TRIPOS>MOLECULE
*****
 57 63 0 0 0
SMALL
GASTEIGER

@<TRIPOS>ATOM
      1 C           5.1249   -0.9957   -2.6354 C.3     1  UNL1       -0.0374
      2 C           4.2818   -0.6413   -1.4699 C.ar    1  UNL1       -0.0164
      3 C           2.9270   -0.8694   -1.4703 C.ar    1  UNL1       -0.0161
      4 C           2.1298   -0.5457   -0.3949 C.ar    1  UNL1        0.1313
      5 N           0.7317   -0.7977   -0.4342 N.am    1  UNL1       -0.2388
      6 C           0.0180   -1.9564   -0.0332 C.2     1  UNL1        0.2548
      7 O           0.5534   -2.9874    0.4478 O.2     1  UNL1       -0.2695
      8 C          -1.4074   -1.7610   -0.2660 C.ar    1  UNL1        0.0636
      9 C          -2.6609   -2.3210   -0.1771 C.ar    1  UNL1       -0.0143
     10 C          -3.0685   -3.6461    0.3399 C.3     1  UNL1       -0.0137
     11 C          -3.6508   -3.5436    1.7512 C.3     1  UNL1       -0.0456
     12 C          -2.4042   -4.3661    1.4185 C.3     1  UNL1       -0.0456
     13 C          -3.5436   -1.3613   -0.6731 C.ar    1  UNL1        0.0096
     14 N          -2.8779   -0.2674   -1.0481 N.ar    1  UNL1       -0.3403
     15 C          -3.4479    0.9611   -1.6192 C.3     1  UNL1        0.0808
     16 C          -4.9570    0.9030   -1.5978 C.3     1  UNL1        0.0706
     17 O          -4.9396    2.2867   -1.3460 O.3     1  UNL1       -0.3755
     18 C          -3.7332    2.0483   -0.6471 C.3     1  UNL1        0.0706
     19 C          -1.5649   -0.4885   -0.8079 C.ar    1  UNL1        0.0571
     20 C          -0.2339    0.1577   -0.9228 C.3     1  UNL1        0.0986
     21 C          -0.1595    1.4416   -0.1798 C.ar    1  UNL1       -0.0207
     22 C          -0.0684    1.4472    1.2066 C.ar    1  UNL1       -0.0550
     23 C           0.0020    2.6338    1.9122 C.ar    1  UNL1       -0.0431
     24 C          -0.0174    3.8458    1.2414 C.ar    1  UNL1        0.0410
     25 CL          0.0719    5.3599    2.1333 Cl      1  UNL1       -0.0835
     26 C          -0.1067    3.8675   -0.1281 C.ar    1  UNL1       -0.0431
     27 C          -0.1761    2.6656   -0.8121 C.ar    1  UNL1       -0.0550
     28 N           2.7181    0.0123    0.6833 N.ar    1  UNL1       -0.2108
     29 C           4.0504    0.2406    0.6932 C.ar    1  UNL1        0.1803
     30 C           4.8787   -0.0712   -0.3666 C.ar    1  UNL1        0.1345
     31 N           6.1285    0.2860   -0.0214 N.ar    1  UNL1       -0.1276
     32 N           6.0898    0.7993    1.1996 N.ar    1  UNL1       -0.0635
     33 N           4.8462    0.7844    1.6561 N.ar    1  UNL1       -0.2297
     34 C           4.4662    1.2719    2.9515 C.3     1  UNL1        0.0341
     35 H           5.7802   -1.8474   -2.2890 H       1  UNL1        0.0278
     36 H           4.5180   -1.3498   -3.4791 H       1  UNL1        0.0278
     37 H           5.7328   -0.1341   -2.9534 H       1  UNL1        0.0278
     38 H           2.4794   -1.3155   -2.3413 H       1  UNL1        0.0655
     39 H          -3.7634   -4.2125   -0.3570 H       1  UNL1        0.0349
     40 H          -3.4968   -2.6267    2.3376 H       1  UNL1        0.0271
     41 H          -4.5771   -4.0714    1.9798 H       1  UNL1        0.0271
     42 H          -1.4736   -4.0290    1.8598 H       1  UNL1        0.0271
     43 H          -2.5714   -5.4856    1.4087 H       1  UNL1        0.0271
     44 H          -4.6133   -1.5122   -0.7328 H       1  UNL1        0.0812
     45 H          -2.9976    1.2696   -2.5695 H       1  UNL1        0.0573
     46 H          -5.4521    0.6086   -2.5224 H       1  UNL1        0.0581
     47 H          -5.3176    0.3987   -0.6787 H       1  UNL1        0.0581
     48 H          -3.8821    1.6861    0.3897 H       1  UNL1        0.0581
     49 H          -3.0622    2.9262   -0.7433 H       1  UNL1        0.0581
     50 H          -0.0431    0.4112   -2.0007 H       1  UNL1        0.0620
     51 H          -0.0523    0.4981    1.7463 H       1  UNL1        0.0621
     52 H           0.0712    2.6017    2.9781 H       1  UNL1        0.0632
     53 H          -0.1198    4.8300   -0.6249 H       1  UNL1        0.0632
     54 H          -0.2456    2.7164   -1.8882 H       1  UNL1        0.0621
     55 H           4.5809    0.4755    3.7104 H       1  UNL1        0.0474
     56 H           3.4186    1.6227    2.9170 H       1  UNL1        0.0474
     57 H           5.0865    2.1466    3.2696 H       1  UNL1        0.0474
@<TRIPOS>BOND
     1     1     2    1
     2     2     3   ar
     3     3     4   ar
     4     4     5    1
     5     5     6   am
     6     6     7    2
     7     6     8    1
     8     8     9   ar
     9     9    10    1
    10    10    11    1
    11    11    12    1
    12     9    13   ar
    13    13    14   ar
    14    14    15    1
    15    15    16    1
    16    16    17    1
    17    17    18    1
    18    14    19   ar
    19    19    20    1
    20    20    21    1
    21    21    22   ar
    22    22    23   ar
    23    23    24   ar
    24    24    25    1
    25    24    26   ar
    26    26    27   ar
    27     4    28   ar
    28    28    29   ar
    29    29    30   ar
    30    30    31   ar
    31    31    32   ar
    32    32    33   ar
    33    33    34    1
    34    30     2   ar
    35    20     5    1
    36    27    21   ar
    37    33    29   ar
    38    19     8   ar
    39    12    10    1
    40    18    15    1
    41     1    35    1
    42     1    36    1
    43     1    37    1
    44     3    38    1
    45    10    39    1
    46    11    40    1
    47    11    41    1
    48    12    42    1
    49    12    43    1
    50    13    44    1
    51    15    45    1
    52    16    46    1
    53    16    47    1
    54    18    48    1
    55    18    49    1
    56    20    50    1
    57    22    51    1
    58    23    52    1
    59    26    53    1
    60    27    54    1
    61    34    55    1
    62    34    56    1
    63    34    57    1
