
     RDKit          3D

 60 64  0  0  0  0  0  0  0  0999 V2000
    7.0903    1.0168    0.9246 C   0  0  0  0  0  0  0  0  0  0  0  0
    5.6483    0.5670    0.8617 C   0  0  0  0  0  0  0  0  0  0  0  0
    5.4318   -0.5400   -0.1407 C   0  0  1  0  0  0  0  0  0  0  0  0
    5.8181   -0.0335   -1.3950 O   0  0  0  0  0  0  0  0  0  0  0  0
    6.2771   -1.7161    0.1201 C   0  0  0  0  0  0  0  0  0  0  0  0
    7.4801   -1.7022   -0.2495 O   0  0  0  0  0  0  0  0  0  0  0  0
    5.6396   -2.7573    0.7694 O   0  0  0  0  0  0  0  0  0  0  0  0
    4.3377   -3.1781    0.5212 C   0  0  0  0  0  0  0  0  0  0  0  0
    3.4151   -2.0706    0.1741 C   0  0  0  0  0  0  0  0  0  0  0  0
    3.9792   -0.8551   -0.1279 C   0  0  0  0  0  0  0  0  0  0  0  0
    3.0949    0.1535   -0.4461 C   0  0  0  0  0  0  0  0  0  0  0  0
    1.7288   -0.0264   -0.4657 C   0  0  0  0  0  0  0  0  0  0  0  0
    1.2535   -1.2442   -0.1590 N   0  0  0  0  0  0  0  0  0  0  0  0
   -0.2015   -1.3441   -0.2054 C   0  0  0  0  0  0  0  0  0  0  0  0
   -0.6302    0.0205   -0.5927 C   0  0  0  0  0  0  0  0  0  0  0  0
   -1.8102    0.7055   -0.8389 C   0  0  0  0  0  0  0  0  0  0  0  0
   -3.0769   -0.0132   -0.6976 C   0  0  0  0  0  0  0  0  0  0  0  0
   -3.4420   -0.1074    0.7774 C   0  0  0  0  0  0  0  0  0  0  0  0
   -5.0457   -1.0153    1.0204 Si  0  0  0  0  0  4  0  0  0  0  0  0
   -6.3522    0.1652    1.6736 C   0  0  0  0  0  0  0  0  0  0  0  0
   -4.7993   -2.3825    2.2422 C   0  0  0  0  0  0  0  0  0  0  0  0
   -5.6403   -1.6459   -0.6298 C   0  0  0  0  0  0  0  0  0  0  0  0
   -1.7184    2.0470   -1.2010 C   0  0  0  0  0  0  0  0  0  0  0  0
   -2.8597    2.7621   -1.4509 C   0  0  0  0  0  0  0  0  0  0  0  0
   -2.8882    4.1012   -1.8161 C   0  0  0  0  0  0  0  0  0  0  0  0
   -1.6805    4.7663   -1.9381 C   0  0  0  0  0  0  0  0  0  0  0  0
   -0.5095    4.0795   -1.6944 C   0  0  0  0  0  0  0  0  0  0  0  0
   -0.5517    2.7564   -1.3368 C   0  0  0  0  0  0  0  0  0  0  0  0
    0.6081    2.0911   -1.0967 N   0  0  0  0  0  0  0  0  0  0  0  0
    0.5397    0.7730   -0.7400 C   0  0  0  0  0  0  0  0  0  0  0  0
    2.0594   -2.2842    0.1640 C   0  0  0  0  0  0  0  0  0  0  0  0
    1.6563   -3.4443    0.4585 O   0  0  0  0  0  0  0  0  0  0  0  0
    7.0784    2.0393    1.3627 H   0  0  0  0  0  0  0  0  0  0  0  0
    7.5966    0.3088    1.6219 H   0  0  0  0  0  0  0  0  0  0  0  0
    7.5899    1.0131   -0.0424 H   0  0  0  0  0  0  0  0  0  0  0  0
    5.0729    1.4503    0.5146 H   0  0  0  0  0  0  0  0  0  0  0  0
    5.2905    0.3495    1.8697 H   0  0  0  0  0  0  0  0  0  0  0  0
    5.0248    0.2644   -1.8751 H   0  0  0  0  0  0  0  0  0  0  0  0
    3.9468   -3.6386    1.4550 H   0  0  0  0  0  0  0  0  0  0  0  0
    4.2849   -3.9829   -0.2540 H   0  0  0  0  0  0  0  0  0  0  0  0
    3.4676    1.1239   -0.6915 H   0  0  0  0  0  0  0  0  0  0  0  0
   -0.5178   -2.0662   -1.0096 H   0  0  0  0  0  0  0  0  0  0  0  0
   -0.6242   -1.6626    0.7434 H   0  0  0  0  0  0  0  0  0  0  0  0
   -3.9205    0.3569   -1.2921 H   0  0  0  0  0  0  0  0  0  0  0  0
   -2.9123   -1.0677   -1.0624 H   0  0  0  0  0  0  0  0  0  0  0  0
   -2.5973   -0.5089    1.3278 H   0  0  0  0  0  0  0  0  0  0  0  0
   -3.5710    0.9535    1.1099 H   0  0  0  0  0  0  0  0  0  0  0  0
   -6.1353    0.4612    2.7148 H   0  0  0  0  0  0  0  0  0  0  0  0
   -7.3283   -0.3417    1.6632 H   0  0  0  0  0  0  0  0  0  0  0  0
   -6.3821    1.0841    1.0535 H   0  0  0  0  0  0  0  0  0  0  0  0
   -3.9178   -2.1418    2.8625 H   0  0  0  0  0  0  0  0  0  0  0  0
   -5.6850   -2.4177    2.9311 H   0  0  0  0  0  0  0  0  0  0  0  0
   -4.6514   -3.3707    1.7484 H   0  0  0  0  0  0  0  0  0  0  0  0
   -5.7739   -0.7655   -1.2907 H   0  0  0  0  0  0  0  0  0  0  0  0
   -4.9012   -2.3105   -1.1195 H   0  0  0  0  0  0  0  0  0  0  0  0
   -6.6303   -2.1395   -0.4970 H   0  0  0  0  0  0  0  0  0  0  0  0
   -3.8400    2.3293   -1.3787 H   0  0  0  0  0  0  0  0  0  0  0  0
   -3.7527    4.6836   -2.0170 H   0  0  0  0  0  0  0  0  0  0  0  0
   -1.5274    5.8131   -2.2159 H   0  0  0  0  0  0  0  0  0  0  0  0
    0.4641    4.5386   -1.7721 H   0  0  0  0  0  0  0  0  0  0  0  0
  1  2  1  0
  2  3  1  0
  3  4  1  6
  3  5  1  0
  5  6  2  0
  5  7  1  0
  7  8  1  0
  8  9  1  0
  9 10  2  0
 10 11  1  0
 11 12  2  0
 12 13  1  0
 13 14  1  0
 14 15  1  0
 15 16  2  0
 16 17  1  0
 17 18  1  0
 18 19  1  0
 19 20  1  0
 19 21  1  0
 19 22  1  0
 16 23  1  0
 23 24  2  0
 24 25  1  0
 25 26  2  0
 26 27  1  0
 27 28  2  0
 28 29  1  0
 29 30  2  0
 13 31  1  0
 31 32  2  0
 10  3  1  0
 30 12  1  0
 31  9  1  0
 30 15  1  0
 28 23  1  0
  1 33  1  0
  1 34  1  0
  1 35  1  0
  2 36  1  0
  2 37  1  0
  4 38  1  0
  8 39  1  0
  8 40  1  0
 11 41  1  0
 14 42  1  0
 14 43  1  0
 17 44  1  0
 17 45  1  0
 18 46  1  0
 18 47  1  0
 20 48  1  0
 20 49  1  0
 20 50  1  0
 21 51  1  0
 21 52  1  0
 21 53  1  0
 22 54  1  0
 22 55  1  0
 22 56  1  0
 24 57  1  0
 25 58  1  0
 26 59  1  0
 27 60  1  0
M  END
$$$$
