
     RDKit          3D

 38 42  0  0  0  0  0  0  0  0999 V2000
   -0.6939    0.5296   -3.9430 O   0  0  0  0  0  0  0  0  0  0  0  0
   -0.2361    0.3558   -2.7880 C   0  0  0  0  0  0  0  0  0  0  0  0
    1.0680    0.2524   -2.5233 N   0  0  0  0  0  0  0  0  0  0  0  0
    1.5463    0.0649   -1.2712 C   0  0  0  0  0  0  0  0  0  0  0  0
    2.8987   -0.0353   -1.0506 C   0  0  0  0  0  0  0  0  0  0  0  0
    3.4588   -0.2261    0.1932 C   0  0  0  0  0  0  0  0  0  0  0  0
    4.8772   -0.3267    0.3899 C   0  0  0  0  0  0  0  0  0  0  0  0
    5.9379   -0.2787   -0.4144 C   0  0  0  0  0  0  0  0  0  0  0  0
    7.1838   -0.4059    0.0582 C   0  0  0  0  0  0  0  0  0  0  0  0
    7.3959   -0.5894    1.3862 C   0  0  0  0  0  0  0  0  0  0  0  0
    5.6360   -0.5821    2.0492 S   0  0  0  0  0  0  0  0  0  0  0  0
    2.5951   -0.3212    1.2816 C   0  0  0  0  0  0  0  0  0  0  0  0
    1.2340   -0.2241    1.0889 C   0  0  0  0  0  0  0  0  0  0  0  0
    0.7137   -0.0326   -0.1772 C   0  0  0  0  0  0  0  0  0  0  0  0
   -0.6459    0.0720   -0.4281 C   0  0  0  0  0  0  0  0  0  0  0  0
   -1.6982    0.0208    0.3983 N   0  0  0  0  0  0  0  0  0  0  0  0
   -2.8160    0.1764   -0.3463 C   0  0  0  0  0  0  0  0  0  0  0  0
   -4.2020    0.1865    0.1434 C   0  0  0  0  0  0  0  0  0  0  0  0
   -5.2439    0.3554   -0.7335 C   0  0  0  0  0  0  0  0  0  0  0  0
   -6.5739    0.3687   -0.2923 C   0  0  0  0  0  0  0  0  0  0  0  0
   -6.8289    0.2093    1.0421 C   0  0  0  0  0  0  0  0  0  0  0  0
   -5.7902    0.0358    1.9556 C   0  0  0  0  0  0  0  0  0  0  0  0
   -4.4979    0.0294    1.4768 C   0  0  0  0  0  0  0  0  0  0  0  0
   -3.1946   -0.1882    2.6223 Cl  0  0  0  0  0  0  0  0  0  0  0  0
   -2.4403    0.3226   -1.6292 N   0  0  0  0  0  0  0  0  0  0  0  0
   -1.1119    0.2629   -1.7123 C   0  0  0  0  0  0  0  0  0  0  0  0
    1.7311    0.3229   -3.3395 H   0  0  0  0  0  0  0  0  0  0  0  0
    3.5892    0.0387   -1.9046 H   0  0  0  0  0  0  0  0  0  0  0  0
    5.7757   -0.1245   -1.5368 H   0  0  0  0  0  0  0  0  0  0  0  0
    8.1003   -0.3683   -0.6069 H   0  0  0  0  0  0  0  0  0  0  0  0
    8.2142   -0.7140    2.0129 H   0  0  0  0  0  0  0  0  0  0  0  0
    2.9551   -0.4716    2.2954 H   0  0  0  0  0  0  0  0  0  0  0  0
    0.5186   -0.2911    1.8995 H   0  0  0  0  0  0  0  0  0  0  0  0
   -5.0818    0.4840   -1.7921 H   0  0  0  0  0  0  0  0  0  0  0  0
   -7.3705    0.5045   -1.0142 H   0  0  0  0  0  0  0  0  0  0  0  0
   -7.8276    0.2118    1.4317 H   0  0  0  0  0  0  0  0  0  0  0  0
   -6.0338   -0.0867    3.0011 H   0  0  0  0  0  0  0  0  0  0  0  0
   -3.1422    0.4619   -2.4178 H   0  0  0  0  0  0  0  0  0  0  0  0
  1  2  2  0
  2  3  1  0
  3  4  1  0
  4  5  2  0
  5  6  1  0
  6  7  1  0
  7  8  2  0
  8  9  1  0
  9 10  2  0
 10 11  1  0
  6 12  2  0
 12 13  1  0
 13 14  2  0
 14 15  1  0
 15 16  1  0
 16 17  2  0
 17 18  1  0
 18 19  2  0
 19 20  1  0
 20 21  2  0
 21 22  1  0
 22 23  2  0
 23 24  1  0
 17 25  1  0
 25 26  1  0
 26  2  1  0
 14  4  1  0
 26 15  2  0
 11  7  1  0
 23 18  1  0
  3 27  1  0
  5 28  1  0
  8 29  1  0
  9 30  1  0
 10 31  1  0
 12 32  1  0
 13 33  1  0
 19 34  1  0
 20 35  1  0
 21 36  1  0
 22 37  1  0
 25 38  1  0
M  END
$$$$
