@<TRIPOS>MOLECULE
*****
 38 42 0 0 0
SMALL
GASTEIGER

@<TRIPOS>ATOM
      1 O          -0.6939    0.5296   -3.9430 O.2     1  UNL1       -0.2656
      2 C          -0.2361    0.3558   -2.7880 C.ar    1  UNL1        0.2748
      3 N           1.0680    0.2524   -2.5233 N.ar    1  UNL1       -0.3203
      4 C           1.5463    0.0649   -1.2712 C.ar    1  UNL1        0.0519
      5 C           2.8987   -0.0353   -1.0506 C.ar    1  UNL1       -0.0294
      6 C           3.4588   -0.2261    0.1932 C.ar    1  UNL1       -0.0093
      7 C           4.8772   -0.3267    0.3899 C.ar    1  UNL1        0.0194
      8 C           5.9379   -0.2787   -0.4144 C.ar    1  UNL1       -0.0469
      9 C           7.1838   -0.4059    0.0582 C.ar    1  UNL1       -0.0541
     10 C           7.3959   -0.5894    1.3862 C.ar    1  UNL1       -0.0237
     11 S           5.6360   -0.5821    2.0492 S.2     1  UNL1       -0.0967
     12 C           2.5951   -0.3212    1.2816 C.ar    1  UNL1       -0.0528
     13 C           1.2340   -0.2241    1.0889 C.ar    1  UNL1       -0.0499
     14 C           0.7137   -0.0326   -0.1772 C.ar    1  UNL1        0.0260
     15 C          -0.6459    0.0720   -0.4281 C.ar    1  UNL1        0.1039
     16 N          -1.6982    0.0208    0.3983 N.ar    1  UNL1       -0.2269
     17 C          -2.8160    0.1764   -0.3463 C.ar    1  UNL1        0.1408
     18 C          -4.2020    0.1865    0.1434 C.ar    1  UNL1        0.0356
     19 C          -5.2439    0.3554   -0.7335 C.ar    1  UNL1       -0.0497
     20 C          -6.5739    0.3687   -0.2923 C.ar    1  UNL1       -0.0610
     21 C          -6.8289    0.2093    1.0421 C.ar    1  UNL1       -0.0603
     22 C          -5.7902    0.0358    1.9556 C.ar    1  UNL1       -0.0427
     23 C          -4.4979    0.0294    1.4768 C.ar    1  UNL1        0.0516
     24 CL         -3.1946   -0.1882    2.6223 Cl      1  UNL1       -0.0828
     25 N          -2.4403    0.3226   -1.6292 N.ar    1  UNL1       -0.3336
     26 C          -1.1119    0.2629   -1.7123 C.ar    1  UNL1        0.1322
     27 H           1.7311    0.3229   -3.3395 H       1  UNL1        0.1690
     28 H           3.5892    0.0387   -1.9046 H       1  UNL1        0.0644
     29 H           5.7757   -0.1245   -1.5368 H       1  UNL1        0.0629
     30 H           8.1003   -0.3683   -0.6069 H       1  UNL1        0.0623
     31 H           8.2142   -0.7140    2.0129 H       1  UNL1        0.0693
     32 H           2.9551   -0.4716    2.2954 H       1  UNL1        0.0624
     33 H           0.5186   -0.2911    1.8995 H       1  UNL1        0.0625
     34 H          -5.0818    0.4840   -1.7921 H       1  UNL1        0.0625
     35 H          -7.3705    0.5045   -1.0142 H       1  UNL1        0.0618
     36 H          -7.8276    0.2118    1.4317 H       1  UNL1        0.0618
     37 H          -6.0338   -0.0867    3.0011 H       1  UNL1        0.0632
     38 H          -3.1422    0.4619   -2.4178 H       1  UNL1        0.1675
@<TRIPOS>BOND
     1     1     2    2
     2     2     3   ar
     3     3     4   ar
     4     4     5   ar
     5     5     6   ar
     6     6     7    1
     7     7     8   ar
     8     8     9   ar
     9     9    10   ar
    10    10    11   ar
    11     6    12   ar
    12    12    13   ar
    13    13    14   ar
    14    14    15   ar
    15    15    16   ar
    16    16    17   ar
    17    17    18    1
    18    18    19   ar
    19    19    20   ar
    20    20    21   ar
    21    21    22   ar
    22    22    23   ar
    23    23    24    1
    24    17    25   ar
    25    25    26   ar
    26    26     2   ar
    27    14     4   ar
    28    26    15   ar
    29    11     7   ar
    30    23    18   ar
    31     3    27    1
    32     5    28    1
    33     8    29    1
    34     9    30    1
    35    10    31    1
    36    12    32    1
    37    13    33    1
    38    19    34    1
    39    20    35    1
    40    21    36    1
    41    22    37    1
    42    25    38    1
