
     RDKit          3D

 27 28  0  0  0  0  0  0  0  0999 V2000
    1.4915   -1.4695    1.3462 O   0  0  0  0  0  0  0  0  0  0  0  0
    1.3018   -1.1661    0.0000 C   0  0  2  0  0  0  0  0  0  0  0  0
    2.2610   -0.0386   -0.4179 C   0  0  2  0  0  0  0  0  0  0  0  0
    3.5336   -0.2443    0.0664 O   0  0  0  0  0  0  0  0  0  0  0  0
    1.5726    1.1488    0.1982 C   0  0  0  0  0  0  0  0  0  0  0  0
    0.2054    0.8029    0.4260 N   0  0  0  0  0  0  0  0  0  0  0  0
   -0.7478    1.7014   -0.1484 C   0  0  0  0  0  0  0  0  0  0  0  0
   -2.1350    1.2162    0.0763 C   0  0  0  0  0  0  0  0  0  0  0  0
   -2.3579   -0.2272   -0.2149 C   0  0  0  0  0  0  0  0  0  0  0  0
   -1.2054   -1.1096    0.2757 C   0  0  1  0  0  0  0  0  0  0  0  0
   -1.3511   -2.3885   -0.2039 O   0  0  0  0  0  0  0  0  0  0  0  0
    0.0169   -0.4828   -0.2651 C   0  0  2  0  0  0  0  0  0  0  0  0
    1.7775   -0.6998    1.8702 H   0  0  0  0  0  0  0  0  0  0  0  0
    1.4513   -2.0607   -0.6056 H   0  0  0  0  0  0  0  0  0  0  0  0
    2.1798    0.0438   -1.5008 H   0  0  0  0  0  0  0  0  0  0  0  0
    3.8985   -1.0421   -0.3730 H   0  0  0  0  0  0  0  0  0  0  0  0
    1.7246    2.0890   -0.3603 H   0  0  0  0  0  0  0  0  0  0  0  0
    2.0459    1.2913    1.2127 H   0  0  0  0  0  0  0  0  0  0  0  0
   -0.5301    1.8557   -1.2281 H   0  0  0  0  0  0  0  0  0  0  0  0
   -0.6421    2.6832    0.3888 H   0  0  0  0  0  0  0  0  0  0  0  0
   -2.8073    1.7992   -0.6195 H   0  0  0  0  0  0  0  0  0  0  0  0
   -2.4805    1.4300    1.1026 H   0  0  0  0  0  0  0  0  0  0  0  0
   -2.3541   -0.3559   -1.3353 H   0  0  0  0  0  0  0  0  0  0  0  0
   -3.3197   -0.5509    0.1785 H   0  0  0  0  0  0  0  0  0  0  0  0
   -1.2693   -1.0856    1.3826 H   0  0  0  0  0  0  0  0  0  0  0  0
   -2.1738   -2.8296    0.0954 H   0  0  0  0  0  0  0  0  0  0  0  0
   -0.0865   -0.3102   -1.3470 H   0  0  0  0  0  0  0  0  0  0  0  0
  1  2  1  0
  2  3  1  0
  3  4  1  0
  3  5  1  0
  5  6  1  0
  6  7  1  0
  7  8  1  0
  8  9  1  0
  9 10  1  0
 10 11  1  0
 10 12  1  0
 12  2  1  0
 12  6  1  0
  1 13  1  0
  2 14  1  6
  3 15  1  6
  4 16  1  0
  5 17  1  0
  5 18  1  0
  7 19  1  0
  7 20  1  0
  8 21  1  0
  8 22  1  0
  9 23  1  0
  9 24  1  0
 10 25  1  1
 11 26  1  0
 12 27  1  6
M  END
$$$$
