@<TRIPOS>MOLECULE
*****
 27 28 0 0 0
SMALL
GASTEIGER

@<TRIPOS>ATOM
      1 O           1.4915   -1.4695    1.3462 O.3     1  UNL1       -0.3875
      2 C           1.3018   -1.1661    0.0000 C.3     1  UNL1        0.1001
      3 C           2.2610   -0.0386   -0.4179 C.3     1  UNL1        0.0952
      4 O           3.5336   -0.2443    0.0664 O.3     1  UNL1       -0.3879
      5 C           1.5726    1.1488    0.1982 C.3     1  UNL1        0.0279
      6 N           0.2054    0.8029    0.4260 N.3     1  UNL1       -0.2921
      7 C          -0.7478    1.7014   -0.1484 C.3     1  UNL1       -0.0005
      8 C          -2.1350    1.2162    0.0763 C.3     1  UNL1       -0.0378
      9 C          -2.3579   -0.2272   -0.2149 C.3     1  UNL1       -0.0241
     10 C          -1.2054   -1.1096    0.2757 C.3     1  UNL1        0.0733
     11 O          -1.3511   -2.3885   -0.2039 O.3     1  UNL1       -0.3902
     12 C           0.0169   -0.4828   -0.2651 C.3     1  UNL1        0.0649
     13 H           1.7775   -0.6998    1.8702 H       1  UNL1        0.2100
     14 H           1.4513   -2.0607   -0.6056 H       1  UNL1        0.0636
     15 H           2.1798    0.0438   -1.5008 H       1  UNL1        0.0632
     16 H           3.8985   -1.0421   -0.3730 H       1  UNL1        0.2099
     17 H           1.7246    2.0890   -0.3603 H       1  UNL1        0.0453
     18 H           2.0459    1.2913    1.2127 H       1  UNL1        0.0453
     19 H          -0.5301    1.8557   -1.2281 H       1  UNL1        0.0427
     20 H          -0.6421    2.6832    0.3888 H       1  UNL1        0.0427
     21 H          -2.8073    1.7992   -0.6195 H       1  UNL1        0.0278
     22 H          -2.4805    1.4300    1.1026 H       1  UNL1        0.0278
     23 H          -2.3541   -0.3559   -1.3353 H       1  UNL1        0.0291
     24 H          -3.3197   -0.5509    0.1785 H       1  UNL1        0.0291
     25 H          -1.2693   -1.0856    1.3826 H       1  UNL1        0.0610
     26 H          -2.1738   -2.8296    0.0954 H       1  UNL1        0.2098
     27 H          -0.0865   -0.3102   -1.3470 H       1  UNL1        0.0514
@<TRIPOS>BOND
     1     1     2    1
     2     2     3    1
     3     3     4    1
     4     3     5    1
     5     5     6    1
     6     6     7    1
     7     7     8    1
     8     8     9    1
     9     9    10    1
    10    10    11    1
    11    10    12    1
    12    12     2    1
    13    12     6    1
    14     1    13    1
    15     2    14    1
    16     3    15    1
    17     4    16    1
    18     5    17    1
    19     5    18    1
    20     7    19    1
    21     7    20    1
    22     8    21    1
    23     8    22    1
    24     9    23    1
    25     9    24    1
    26    10    25    1
    27    11    26    1
    28    12    27    1
