@<TRIPOS>MOLECULE
*****
 57 61 0 0 0
SMALL
GASTEIGER

@<TRIPOS>ATOM
      1 O           3.2029    0.2482   -0.1713 O.2     1  UNL1       -0.2522
      2 C           3.0412   -0.7060   -0.9806 C.2     1  UNL1        0.3081
      3 N           2.2340   -0.4599   -2.1176 N.am    1  UNL1       -0.2692
      4 C           1.6114    0.8087   -2.3693 C.ar    1  UNL1        0.0354
      5 C           2.2905    1.7519   -3.0970 C.ar    1  UNL1       -0.0404
      6 C           1.6468    2.9480   -3.3075 C.ar    1  UNL1       -0.0594
      7 C           0.3702    3.1995   -2.8116 C.ar    1  UNL1       -0.0524
      8 C          -0.2867    2.2428   -2.0885 C.ar    1  UNL1        0.0036
      9 C          -1.6239    2.4495   -1.5446 C.ar    1  UNL1        0.0897
     10 C          -2.2983    3.6190   -1.7291 C.ar    1  UNL1        0.0373
     11 N          -3.5544    3.7866   -1.2067 N.ar    1  UNL1       -0.3018
     12 C          -4.4012    4.8371   -1.2583 C.ar    1  UNL1        0.0294
     13 C          -5.5125    4.4602   -0.5700 C.ar    1  UNL1        0.0465
     14 N          -5.3173    3.2125   -0.1250 N.ar    1  UNL1       -0.2330
     15 C          -4.1049    2.7823   -0.5136 C.ar    1  UNL1        0.1780
     16 C          -3.4412    1.5751   -0.3078 C.ar    1  UNL1        0.1629
     17 N          -4.0883    0.5661    0.4331 N.pl3   1  UNL1       -0.3220
     18 C          -3.4458   -0.7007    0.6745 C.3     1  UNL1        0.0359
     19 C          -4.2954   -1.6143    1.4701 C.ar    1  UNL1       -0.0275
     20 C          -4.2279   -1.6199    2.8477 C.ar    1  UNL1       -0.0389
     21 C          -5.0191   -2.4706    3.5854 C.ar    1  UNL1        0.0279
     22 N          -5.8709   -3.3095    2.9640 N.ar    1  UNL1       -0.2632
     23 C          -5.9635   -3.3321    1.6294 C.ar    1  UNL1        0.0279
     24 C          -5.1849   -2.4936    0.8782 C.ar    1  UNL1       -0.0389
     25 N          -2.2189    1.4464   -0.8310 N.ar    1  UNL1       -0.2270
     26 C           0.3508    1.0095   -1.8591 C.ar    1  UNL1       -0.0312
     27 N           3.6586   -1.9714   -0.7353 N.am    1  UNL1       -0.2692
     28 C           4.4653   -2.1937    0.4146 C.ar    1  UNL1        0.0353
     29 C           3.9226   -2.6555    1.6016 C.ar    1  UNL1       -0.0404
     30 C           4.7076   -2.8673    2.7061 C.ar    1  UNL1       -0.0595
     31 C           6.0679   -2.6102    2.6185 C.ar    1  UNL1       -0.0500
     32 C           6.5880   -2.1529    1.4336 C.ar    1  UNL1        0.0566
     33 C           8.0483   -1.8848    1.3649 C.3     1  UNL1        0.4175
     34 F           8.4379   -1.7938    0.0267 F       1  UNL1       -0.1659
     35 F           8.3698   -0.7038    2.0365 F       1  UNL1       -0.1659
     36 F           8.7463   -2.9308    1.9061 F       1  UNL1       -0.1659
     37 C           5.8178   -1.9327    0.3101 C.ar    1  UNL1       -0.0288
     38 H           2.1051   -1.2561   -2.7831 H       1  UNL1        0.1564
     39 H           3.2762    1.4946   -3.4527 H       1  UNL1        0.0636
     40 H           2.1478    3.7078   -3.8719 H       1  UNL1        0.0618
     41 H          -0.0792    4.1606   -3.0128 H       1  UNL1        0.0624
     42 H          -1.8556    4.4255   -2.2860 H       1  UNL1        0.0835
     43 H          -4.1673    5.7505   -1.7625 H       1  UNL1        0.0829
     44 H          -6.3976    5.0524   -0.4060 H       1  UNL1        0.0845
     45 H          -5.0385    0.7247    0.8145 H       1  UNL1        0.1479
     46 H          -3.2356   -1.1651   -0.3234 H       1  UNL1        0.0511
     47 H          -2.4515   -0.5735    1.1538 H       1  UNL1        0.0511
     48 H          -3.5533   -0.9575    3.3795 H       1  UNL1        0.0636
     49 H          -4.9795   -2.4885    4.6639 H       1  UNL1        0.0829
     50 H          -6.6420   -4.0005    1.1358 H       1  UNL1        0.0829
     51 H          -5.2558   -2.5079   -0.1963 H       1  UNL1        0.0636
     52 H          -0.1838    0.2641   -1.2850 H       1  UNL1        0.0643
     53 H           3.5023   -2.7375   -1.4270 H       1  UNL1        0.1564
     54 H           2.8458   -2.8643    1.6876 H       1  UNL1        0.0636
     55 H           4.2440   -3.2280    3.6115 H       1  UNL1        0.0618
     56 H           6.7052   -2.7698    3.4753 H       1  UNL1        0.0623
     57 H           6.2905   -1.5712   -0.5929 H       1  UNL1        0.0642
@<TRIPOS>BOND
     1     1     2    2
     2     2     3   am
     3     3     4    1
     4     4     5   ar
     5     5     6   ar
     6     6     7   ar
     7     7     8   ar
     8     8     9    1
     9     9    10   ar
    10    10    11   ar
    11    11    12   ar
    12    12    13   ar
    13    13    14   ar
    14    14    15   ar
    15    15    16   ar
    16    16    17    1
    17    17    18    1
    18    18    19    1
    19    19    20   ar
    20    20    21   ar
    21    21    22   ar
    22    22    23   ar
    23    23    24   ar
    24    16    25   ar
    25     8    26   ar
    26     2    27   am
    27    27    28    1
    28    28    29   ar
    29    29    30   ar
    30    30    31   ar
    31    31    32   ar
    32    32    33    1
    33    33    34    1
    34    33    35    1
    35    33    36    1
    36    32    37   ar
    37    26     4   ar
    38    37    28   ar
    39    25     9   ar
    40    15    11   ar
    41    24    19   ar
    42     3    38    1
    43     5    39    1
    44     6    40    1
    45     7    41    1
    46    10    42    1
    47    12    43    1
    48    13    44    1
    49    17    45    1
    50    18    46    1
    51    18    47    1
    52    20    48    1
    53    21    49    1
    54    23    50    1
    55    24    51    1
    56    26    52    1
    57    27    53    1
    58    29    54    1
    59    30    55    1
    60    31    56    1
    61    37    57    1
