
     RDKit          3D

 47 50  0  0  0  0  0  0  0  0999 V2000
    6.1097    2.5988   -1.4203 C   0  0  0  0  0  0  0  0  0  0  0  0
    6.1906    1.1889   -0.9589 C   0  0  0  0  0  0  0  0  0  0  0  0
    7.0646    0.1984   -0.7067 N   0  0  0  0  0  0  0  0  0  0  0  0
    6.4311   -0.8759   -0.2938 N   0  0  0  0  0  0  0  0  0  0  0  0
    5.1234   -0.5656   -0.2816 C   0  0  0  0  0  0  0  0  0  0  0  0
    4.9867    0.6949   -0.6886 O   0  0  0  0  0  0  0  0  0  0  0  0
    4.0901   -1.5215    0.1271 C   0  0  0  0  0  0  0  0  0  0  0  0
    4.3650   -2.8077    0.5303 C   0  0  0  0  0  0  0  0  0  0  0  0
    3.3166   -3.6238    0.8940 C   0  0  0  0  0  0  0  0  0  0  0  0
    2.0008   -3.2100    0.8726 C   0  0  0  0  0  0  0  0  0  0  0  0
    0.8918   -4.0965    1.2645 C   0  0  0  0  0  0  0  0  0  0  0  0
    1.6824   -1.9444    0.4802 C   0  0  0  0  0  0  0  0  0  0  0  0
    2.7587   -1.1279    0.1139 C   0  0  0  0  0  0  0  0  0  0  0  0
    0.3540   -1.3651    0.4057 C   0  0  0  0  0  0  0  0  0  0  0  0
   -0.6592   -1.4308    1.3117 C   0  0  0  0  0  0  0  0  0  0  0  0
   -1.8672   -0.8116    1.0678 C   0  0  0  0  0  0  0  0  0  0  0  0
   -2.0989   -0.1053   -0.0942 C   0  0  0  0  0  0  0  0  0  0  0  0
   -1.0889   -0.0144   -1.0459 C   0  0  0  0  0  0  0  0  0  0  0  0
    0.1061   -0.6457   -0.7690 C   0  0  0  0  0  0  0  0  0  0  0  0
   -3.3586    0.5648   -0.3951 C   0  0  0  0  0  0  0  0  0  0  0  0
   -3.5509    1.2030   -1.4585 O   0  0  0  0  0  0  0  0  0  0  0  0
   -4.4643    0.5484    0.4891 N   0  0  0  0  0  0  0  0  0  0  0  0
   -5.6087    1.2740   -0.0058 C   0  0  0  0  0  0  0  0  0  0  0  0
   -5.3236    2.7188   -0.2556 C   0  0  0  0  0  0  0  0  0  0  0  0
   -4.8786    3.6593    0.7692 C   0  0  0  0  0  0  0  0  0  0  0  0
   -6.3034    3.7136    0.4021 C   0  0  0  0  0  0  0  0  0  0  0  0
    5.4395    2.7093   -2.3137 H   0  0  0  0  0  0  0  0  0  0  0  0
    7.1166    2.9490   -1.6911 H   0  0  0  0  0  0  0  0  0  0  0  0
    5.6186    3.2530   -0.6460 H   0  0  0  0  0  0  0  0  0  0  0  0
    5.4072   -3.0921    0.5328 H   0  0  0  0  0  0  0  0  0  0  0  0
    3.5817   -4.6418    1.2089 H   0  0  0  0  0  0  0  0  0  0  0  0
    1.2185   -5.1392    1.0110 H   0  0  0  0  0  0  0  0  0  0  0  0
   -0.0486   -3.8504    0.7382 H   0  0  0  0  0  0  0  0  0  0  0  0
    0.7468   -4.0725    2.3595 H   0  0  0  0  0  0  0  0  0  0  0  0
    2.5566   -0.1099   -0.2065 H   0  0  0  0  0  0  0  0  0  0  0  0
   -0.4357   -1.9911    2.2038 H   0  0  0  0  0  0  0  0  0  0  0  0
   -2.6515   -0.8828    1.8079 H   0  0  0  0  0  0  0  0  0  0  0  0
   -1.2625    0.5320   -1.9493 H   0  0  0  0  0  0  0  0  0  0  0  0
    0.8625   -0.5371   -1.5586 H   0  0  0  0  0  0  0  0  0  0  0  0
   -4.4157    0.0527    1.3929 H   0  0  0  0  0  0  0  0  0  0  0  0
   -6.0118    0.7939   -0.9004 H   0  0  0  0  0  0  0  0  0  0  0  0
   -6.3961    1.1782    0.7952 H   0  0  0  0  0  0  0  0  0  0  0  0
   -5.1055    2.9435   -1.3328 H   0  0  0  0  0  0  0  0  0  0  0  0
   -4.2192    4.4909    0.4006 H   0  0  0  0  0  0  0  0  0  0  0  0
   -4.5383    3.3152    1.7783 H   0  0  0  0  0  0  0  0  0  0  0  0
   -7.0813    3.3067    1.0722 H   0  0  0  0  0  0  0  0  0  0  0  0
   -6.6514    4.5757   -0.2345 H   0  0  0  0  0  0  0  0  0  0  0  0
  1  2  1  0
  2  3  2  0
  3  4  1  0
  4  5  2  0
  5  6  1  0
  5  7  1  0
  7  8  2  0
  8  9  1  0
  9 10  2  0
 10 11  1  0
 10 12  1  0
 12 13  2  0
 12 14  1  0
 14 15  2  0
 15 16  1  0
 16 17  2  0
 17 18  1  0
 18 19  2  0
 17 20  1  0
 20 21  2  0
 20 22  1  0
 22 23  1  0
 23 24  1  0
 24 25  1  0
 25 26  1  0
  6  2  1  0
 13  7  1  0
 19 14  1  0
 26 24  1  0
  1 27  1  0
  1 28  1  0
  1 29  1  0
  8 30  1  0
  9 31  1  0
 11 32  1  0
 11 33  1  0
 11 34  1  0
 13 35  1  0
 15 36  1  0
 16 37  1  0
 18 38  1  0
 19 39  1  0
 22 40  1  0
 23 41  1  0
 23 42  1  0
 24 43  1  0
 25 44  1  0
 25 45  1  0
 26 46  1  0
 26 47  1  0
M  END
$$$$
