@<TRIPOS>MOLECULE
*****
 47 50 0 0 0
SMALL
GASTEIGER

@<TRIPOS>ATOM
      1 C           6.1097    2.5988   -1.4203 C.3     1  UNL1        0.0138
      2 C           6.1906    1.1889   -0.9589 C.ar    1  UNL1        0.2147
      3 N           7.0646    0.1984   -0.7067 N.ar    1  UNL1       -0.1124
      4 N           6.4311   -0.8759   -0.2938 N.ar    1  UNL1       -0.1073
      5 C           5.1234   -0.5656   -0.2816 C.ar    1  UNL1        0.2483
      6 O           4.9867    0.6949   -0.6886 O.2     1  UNL1       -0.4205
      7 C           4.0901   -1.5215    0.1271 C.ar    1  UNL1        0.0391
      8 C           4.3650   -2.8077    0.5303 C.ar    1  UNL1       -0.0492
      9 C           3.3166   -3.6238    0.8940 C.ar    1  UNL1       -0.0575
     10 C           2.0008   -3.2100    0.8726 C.ar    1  UNL1       -0.0427
     11 C           0.8918   -4.0965    1.2645 C.3     1  UNL1       -0.0391
     12 C           1.6824   -1.9444    0.4802 C.ar    1  UNL1       -0.0143
     13 C           2.7587   -1.1279    0.1139 C.ar    1  UNL1       -0.0415
     14 C           0.3540   -1.3651    0.4057 C.ar    1  UNL1       -0.0176
     15 C          -0.6592   -1.4308    1.3117 C.ar    1  UNL1       -0.0533
     16 C          -1.8672   -0.8116    1.0678 C.ar    1  UNL1       -0.0491
     17 C          -2.0989   -0.1053   -0.0942 C.ar    1  UNL1        0.0367
     18 C          -1.0889   -0.0144   -1.0459 C.ar    1  UNL1       -0.0491
     19 C           0.1061   -0.6457   -0.7690 C.ar    1  UNL1       -0.0533
     20 C          -3.3586    0.5648   -0.3951 C.2     1  UNL1        0.2441
     21 O          -3.5509    1.2030   -1.4585 O.2     1  UNL1       -0.2702
     22 N          -4.4643    0.5484    0.4891 N.am    1  UNL1       -0.3111
     23 C          -5.6087    1.2740   -0.0058 C.3     1  UNL1        0.0147
     24 C          -5.3236    2.7188   -0.2556 C.3     1  UNL1       -0.0254
     25 C          -4.8786    3.6593    0.7692 C.3     1  UNL1       -0.0485
     26 C          -6.3034    3.7136    0.4021 C.3     1  UNL1       -0.0485
     27 H           5.4395    2.7093   -2.3137 H       1  UNL1        0.0324
     28 H           7.1166    2.9490   -1.6911 H       1  UNL1        0.0324
     29 H           5.6186    3.2530   -0.6460 H       1  UNL1        0.0324
     30 H           5.4072   -3.0921    0.5328 H       1  UNL1        0.0625
     31 H           3.5817   -4.6418    1.2089 H       1  UNL1        0.0621
     32 H           1.2185   -5.1392    1.0110 H       1  UNL1        0.0278
     33 H          -0.0486   -3.8504    0.7382 H       1  UNL1        0.0278
     34 H           0.7468   -4.0725    2.3595 H       1  UNL1        0.0278
     35 H           2.5566   -0.1099   -0.2065 H       1  UNL1        0.0631
     36 H          -0.4357   -1.9911    2.2038 H       1  UNL1        0.0624
     37 H          -2.6515   -0.8828    1.8079 H       1  UNL1        0.0625
     38 H          -1.2625    0.5320   -1.9493 H       1  UNL1        0.0625
     39 H           0.8625   -0.5371   -1.5586 H       1  UNL1        0.0624
     40 H          -4.4157    0.0527    1.3929 H       1  UNL1        0.1490
     41 H          -6.0118    0.7939   -0.9004 H       1  UNL1        0.0465
     42 H          -6.3961    1.1782    0.7952 H       1  UNL1        0.0465
     43 H          -5.1055    2.9435   -1.3328 H       1  UNL1        0.0316
     44 H          -4.2192    4.4909    0.4006 H       1  UNL1        0.0269
     45 H          -4.5383    3.3152    1.7783 H       1  UNL1        0.0269
     46 H          -7.0813    3.3067    1.0722 H       1  UNL1        0.0269
     47 H          -6.6514    4.5757   -0.2345 H       1  UNL1        0.0269
@<TRIPOS>BOND
     1     1     2    1
     2     2     3   ar
     3     3     4   ar
     4     4     5   ar
     5     5     6   ar
     6     5     7    1
     7     7     8   ar
     8     8     9   ar
     9     9    10   ar
    10    10    11    1
    11    10    12   ar
    12    12    13   ar
    13    12    14    1
    14    14    15   ar
    15    15    16   ar
    16    16    17   ar
    17    17    18   ar
    18    18    19   ar
    19    17    20    1
    20    20    21    2
    21    20    22   am
    22    22    23    1
    23    23    24    1
    24    24    25    1
    25    25    26    1
    26     6     2   ar
    27    13     7   ar
    28    19    14   ar
    29    26    24    1
    30     1    27    1
    31     1    28    1
    32     1    29    1
    33     8    30    1
    34     9    31    1
    35    11    32    1
    36    11    33    1
    37    11    34    1
    38    13    35    1
    39    15    36    1
    40    16    37    1
    41    18    38    1
    42    19    39    1
    43    22    40    1
    44    23    41    1
    45    23    42    1
    46    24    43    1
    47    25    44    1
    48    25    45    1
    49    26    46    1
    50    26    47    1
