@<TRIPOS>MOLECULE
*****
 26 27 0 0 0
SMALL
GASTEIGER

@<TRIPOS>ATOM
      1 N          -2.5265   -1.5298    1.6309 N.pl3   1  UNL1       -0.3417
      2 C          -3.0574   -0.5538    0.7509 C.ar    1  UNL1        0.1412
      3 C          -2.2880    0.2754   -0.0194 C.ar    1  UNL1        0.1659
      4 N          -0.8922    0.3569   -0.1195 N.2     1  UNL1       -0.1423
      5 N          -0.0496   -0.4880    0.2392 N.2     1  UNL1       -0.1491
      6 C           1.3569   -0.3335    0.1044 C.ar    1  UNL1        0.0864
      7 C           2.1221   -1.2172    0.8535 C.ar    1  UNL1       -0.0311
      8 C           3.4984   -1.1267    0.7732 C.ar    1  UNL1       -0.0181
      9 C           4.0294   -0.1574   -0.0520 C.ar    1  UNL1        0.1170
     10 O           5.4204   -0.1185   -0.0885 O.3     1  UNL1       -0.5068
     11 C           3.3046    0.7379   -0.8111 C.ar    1  UNL1       -0.0181
     12 C           1.9160    0.6291   -0.7152 C.ar    1  UNL1       -0.0311
     13 C          -3.1297    1.1065   -0.7615 C.ar    1  UNL1        0.1672
     14 N          -2.7180    2.1249   -1.6976 N.pl3   1  UNL1       -0.3400
     15 N          -4.3865    0.7550   -0.4177 N.ar    1  UNL1       -0.1553
     16 N          -4.3336   -0.2225    0.4725 N.ar    1  UNL1       -0.2608
     17 H          -2.6635   -2.4831    1.2320 H       1  UNL1        0.1438
     18 H          -2.0572   -1.4736    2.5395 H       1  UNL1        0.1438
     19 H           1.6688   -1.9644    1.4897 H       1  UNL1        0.0640
     20 H           4.1159   -1.8019    1.3454 H       1  UNL1        0.0655
     21 H           5.9798    0.5957   -0.4928 H       1  UNL1        0.2921
     22 H           3.7829    1.4768   -1.4403 H       1  UNL1        0.0655
     23 H           1.2917    1.2982   -1.2822 H       1  UNL1        0.0640
     24 H          -3.0630    1.8066   -2.6299 H       1  UNL1        0.1438
     25 H          -2.1752    2.9923   -1.4065 H       1  UNL1        0.1438
     26 H          -5.1463   -0.6854    0.9096 H       1  UNL1        0.1904
@<TRIPOS>BOND
     1     1     2    1
     2     2     3   ar
     3     3     4    1
     4     4     5    2
     5     5     6    1
     6     6     7   ar
     7     7     8   ar
     8     8     9   ar
     9     9    10    1
    10     9    11   ar
    11    11    12   ar
    12     3    13   ar
    13    13    14    1
    14    13    15   ar
    15    15    16   ar
    16    16     2   ar
    17    12     6   ar
    18     1    17    1
    19     1    18    1
    20     7    19    1
    21     8    20    1
    22    10    21    1
    23    11    22    1
    24    12    23    1
    25    14    24    1
    26    14    25    1
    27    16    26    1
