
     RDKit          3D

 56 59  0  0  0  0  0  0  0  0999 V2000
    4.4845   -1.4156    1.1868 C   0  0  0  0  0  0  0  0  0  0  0  0
    5.2251   -0.6270    0.1501 C   0  0  0  0  0  0  0  0  0  0  0  0
    6.5536   -1.0134   -0.0972 C   0  0  0  0  0  0  0  0  0  0  0  0
    7.2882   -0.3910   -1.0707 C   0  0  0  0  0  0  0  0  0  0  0  0
    8.6938   -0.7333   -1.3989 C   0  0  0  0  0  0  0  0  0  0  0  0
    8.8225   -1.1489   -2.7182 F   0  0  0  0  0  0  0  0  0  0  0  0
    9.5406    0.3489   -1.2314 F   0  0  0  0  0  0  0  0  0  0  0  0
    6.6466    0.6110   -1.7671 C   0  0  0  0  0  0  0  0  0  0  0  0
    5.3897    0.9640   -1.5188 N   0  0  0  0  0  0  0  0  0  0  0  0
    4.6042    0.3705   -0.5481 C   0  0  0  0  0  0  0  0  0  0  0  0
    3.2814    0.8996   -0.3461 C   0  0  0  0  0  0  0  0  0  0  0  0
    2.7174    1.4437   -1.3569 O   0  0  0  0  0  0  0  0  0  0  0  0
    2.5699    0.8797    0.8345 N   0  0  0  0  0  0  0  0  0  0  0  0
    1.2505    1.4090    0.9834 C   0  0  0  0  0  0  0  0  0  0  0  0
    1.0815    2.7161    1.3470 C   0  0  0  0  0  0  0  0  0  0  0  0
   -0.2141    3.2409    1.4946 C   0  0  0  0  0  0  0  0  0  0  0  0
   -1.2956    2.3914    1.2598 C   0  0  0  0  0  0  0  0  0  0  0  0
   -2.5252    2.9615    1.4200 F   0  0  0  0  0  0  0  0  0  0  0  0
   -1.1312    1.0719    0.8928 C   0  0  0  0  0  0  0  0  0  0  0  0
   -2.3306    0.2586    0.6683 C   0  0  1  0  0  0  0  0  0  0  0  0
   -3.1802    0.3665    1.9176 C   0  0  0  0  0  0  0  0  0  0  0  0
   -3.0556    0.9084   -0.3988 N   0  0  0  0  0  0  0  0  0  0  0  0
   -4.1202    0.5121   -0.9599 C   0  0  0  0  0  0  0  0  0  0  0  0
   -4.6646    1.3219   -2.0018 N   0  0  0  0  0  0  0  0  0  0  0  0
   -4.7497   -0.7378   -0.5275 C   0  0  0  0  0  0  0  0  0  0  0  0
   -5.7476   -1.1955   -1.5774 C   0  0  0  0  0  0  0  0  0  0  0  0
   -6.6843   -1.5765   -0.4519 C   0  0  0  0  0  0  0  0  0  0  0  0
   -5.9234   -0.5947    0.4125 C   0  0  0  0  0  0  0  0  0  0  0  0
   -3.6041   -1.9671   -0.0397 S   0  0  0  0  0  6  0  0  0  0  0  0
   -4.1594   -2.6936    1.1548 O   0  0  0  0  0  0  0  0  0  0  0  0
   -3.3791   -2.9488   -1.1725 O   0  0  0  0  0  0  0  0  0  0  0  0
   -2.0810   -1.1850    0.4121 C   0  0  2  0  0  0  0  0  0  0  0  0
   -1.6011   -1.8285    1.5379 F   0  0  0  0  0  0  0  0  0  0  0  0
    0.1730    0.6185    0.7650 C   0  0  0  0  0  0  0  0  0  0  0  0
    4.9948   -2.4344    1.2644 H   0  0  0  0  0  0  0  0  0  0  0  0
    4.6052   -0.9991    2.1945 H   0  0  0  0  0  0  0  0  0  0  0  0
    3.4385   -1.5527    0.9410 H   0  0  0  0  0  0  0  0  0  0  0  0
    7.0145   -1.8028    0.4727 H   0  0  0  0  0  0  0  0  0  0  0  0
    9.0850   -1.5495   -0.7685 H   0  0  0  0  0  0  0  0  0  0  0  0
    7.2217    1.1122   -2.5447 H   0  0  0  0  0  0  0  0  0  0  0  0
    2.9784    0.4977    1.7101 H   0  0  0  0  0  0  0  0  0  0  0  0
    1.9210    3.3757    1.5293 H   0  0  0  0  0  0  0  0  0  0  0  0
   -0.2995    4.2654    1.7795 H   0  0  0  0  0  0  0  0  0  0  0  0
   -3.5075   -0.6273    2.2832 H   0  0  0  0  0  0  0  0  0  0  0  0
   -2.5558    0.7838    2.7317 H   0  0  0  0  0  0  0  0  0  0  0  0
   -4.0207    1.0896    1.7969 H   0  0  0  0  0  0  0  0  0  0  0  0
   -5.5675    1.8232   -1.9029 H   0  0  0  0  0  0  0  0  0  0  0  0
   -4.1619    1.4397   -2.9181 H   0  0  0  0  0  0  0  0  0  0  0  0
   -6.1751   -0.3290   -2.1199 H   0  0  0  0  0  0  0  0  0  0  0  0
   -5.3891   -2.0347   -2.1919 H   0  0  0  0  0  0  0  0  0  0  0  0
   -7.7409   -1.2719   -0.6056 H   0  0  0  0  0  0  0  0  0  0  0  0
   -6.6325   -2.6110   -0.1085 H   0  0  0  0  0  0  0  0  0  0  0  0
   -6.3295    0.4152    0.4783 H   0  0  0  0  0  0  0  0  0  0  0  0
   -5.6853   -1.0304    1.4036 H   0  0  0  0  0  0  0  0  0  0  0  0
   -1.3593   -1.3990   -0.3923 H   0  0  0  0  0  0  0  0  0  0  0  0
    0.2901   -0.3983    0.4821 H   0  0  0  0  0  0  0  0  0  0  0  0
  1  2  1  0
  2  3  2  0
  3  4  1  0
  4  5  1  0
  5  6  1  0
  5  7  1  0
  4  8  2  0
  8  9  1  0
  9 10  2  0
 10 11  1  0
 11 12  2  0
 11 13  1  0
 13 14  1  0
 14 15  2  0
 15 16  1  0
 16 17  2  0
 17 18  1  0
 17 19  1  0
 19 20  1  0
 20 21  1  1
 20 22  1  0
 22 23  2  0
 23 24  1  0
 23 25  1  0
 25 26  1  0
 26 27  1  0
 27 28  1  0
 25 29  1  0
 29 30  2  0
 29 31  2  0
 29 32  1  0
 32 33  1  0
 19 34  2  0
 10  2  1  0
 34 14  1  0
 32 20  1  0
 28 25  1  0
  1 35  1  0
  1 36  1  0
  1 37  1  0
  3 38  1  0
  5 39  1  0
  8 40  1  0
 13 41  1  0
 15 42  1  0
 16 43  1  0
 21 44  1  0
 21 45  1  0
 21 46  1  0
 24 47  1  0
 24 48  1  0
 26 49  1  0
 26 50  1  0
 27 51  1  0
 27 52  1  0
 28 53  1  0
 28 54  1  0
 32 55  1  6
 34 56  1  0
M  END
$$$$
