@<TRIPOS>MOLECULE
*****
 56 59 0 0 0
SMALL
GASTEIGER

@<TRIPOS>ATOM
      1 C           4.4845   -1.4156    1.1868 C.3     1  UNL1       -0.0375
      2 C           5.2251   -0.6270    0.1501 C.ar    1  UNL1       -0.0195
      3 C           6.5536   -1.0134   -0.0972 C.ar    1  UNL1       -0.0467
      4 C           7.2882   -0.3910   -1.0707 C.ar    1  UNL1        0.0358
      5 C           8.6938   -0.7333   -1.3989 C.3     1  UNL1        0.2658
      6 F           8.8225   -1.1489   -2.7182 F       1  UNL1       -0.2039
      7 F           9.5406    0.3489   -1.2314 F       1  UNL1       -0.2039
      8 C           6.6466    0.6110   -1.7671 C.ar    1  UNL1        0.0369
      9 N           5.3897    0.9640   -1.5188 N.ar    1  UNL1       -0.2496
     10 C           4.6042    0.3705   -0.5481 C.ar    1  UNL1        0.1286
     11 C           3.2814    0.8996   -0.3461 C.2     1  UNL1        0.2668
     12 O           2.7174    1.4437   -1.3569 O.2     1  UNL1       -0.2682
     13 N           2.5699    0.8797    0.8345 N.am    1  UNL1       -0.2802
     14 C           1.2505    1.4090    0.9834 C.ar    1  UNL1        0.0343
     15 C           1.0815    2.7161    1.3470 C.ar    1  UNL1       -0.0377
     16 C          -0.2141    3.2409    1.4946 C.ar    1  UNL1       -0.0243
     17 C          -1.2956    2.3914    1.2598 C.ar    1  UNL1        0.1312
     18 F          -2.5252    2.9615    1.4200 F       1  UNL1       -0.2050
     19 C          -1.1312    1.0719    0.8928 C.ar    1  UNL1        0.0450
     20 C          -2.3306    0.2586    0.6683 C.3     1  UNL1        0.2272
     21 C          -3.1802    0.3665    1.9176 C.3     1  UNL1       -0.0082
     22 N          -3.0556    0.9084   -0.3988 N.2     1  UNL1       -0.0696
     23 C          -4.1202    0.5121   -0.9599 C.2     1  UNL1        0.3075
     24 N          -4.6646    1.3219   -2.0018 N.pl3   1  UNL1       -0.2488
     25 C          -4.7497   -0.7378   -0.5275 C.3     1  UNL1        0.1918
     26 C          -5.7476   -1.1955   -1.5774 C.3     1  UNL1       -0.0163
     27 C          -6.6843   -1.5765   -0.4519 C.3     1  UNL1       -0.0479
     28 C          -5.9234   -0.5947    0.4125 C.3     1  UNL1       -0.0163
     29 S          -3.6041   -1.9671   -0.0397 S.O2    1  UNL1        0.0220
     30 O          -4.1594   -2.6936    1.1548 O.2     1  UNL1       -0.1703
     31 O          -3.3791   -2.9488   -1.1725 O.2     1  UNL1       -0.1703
     32 C          -2.0810   -1.1850    0.4121 C.3     1  UNL1        0.2674
     33 F          -1.6011   -1.8285    1.5379 F       1  UNL1       -0.2156
     34 C           0.1730    0.6185    0.7650 C.ar    1  UNL1       -0.0300
     35 H           4.9948   -2.4344    1.2644 H       1  UNL1        0.0278
     36 H           4.6052   -0.9991    2.1945 H       1  UNL1        0.0278
     37 H           3.4385   -1.5527    0.9410 H       1  UNL1        0.0278
     38 H           7.0145   -1.8028    0.4727 H       1  UNL1        0.0626
     39 H           9.0850   -1.5495   -0.7685 H       1  UNL1        0.1072
     40 H           7.2217    1.1122   -2.5447 H       1  UNL1        0.0834
     41 H           2.9784    0.4977    1.7101 H       1  UNL1        0.1552
     42 H           1.9210    3.3757    1.5293 H       1  UNL1        0.0637
     43 H          -0.2995    4.2654    1.7795 H       1  UNL1        0.0647
     44 H          -3.5075   -0.6273    2.2832 H       1  UNL1        0.0280
     45 H          -2.5558    0.7838    2.7317 H       1  UNL1        0.0280
     46 H          -4.0207    1.0896    1.7969 H       1  UNL1        0.0280
     47 H          -5.5675    1.8232   -1.9029 H       1  UNL1        0.2881
     48 H          -4.1619    1.4397   -2.9181 H       1  UNL1        0.2881
     49 H          -6.1751   -0.3290   -2.1199 H       1  UNL1        0.0292
     50 H          -5.3891   -2.0347   -2.1919 H       1  UNL1        0.0292
     51 H          -7.7409   -1.2719   -0.6056 H       1  UNL1        0.0267
     52 H          -6.6325   -2.6110   -0.1085 H       1  UNL1        0.0267
     53 H          -6.3295    0.4152    0.4783 H       1  UNL1        0.0292
     54 H          -5.6853   -1.0304    1.4036 H       1  UNL1        0.0292
     55 H          -1.3593   -1.3990   -0.3923 H       1  UNL1        0.0951
     56 H           0.2901   -0.3983    0.4821 H       1  UNL1        0.0641
@<TRIPOS>BOND
     1     1     2    1
     2     2     3   ar
     3     3     4   ar
     4     4     5    1
     5     5     6    1
     6     5     7    1
     7     4     8   ar
     8     8     9   ar
     9     9    10   ar
    10    10    11    1
    11    11    12    2
    12    11    13   am
    13    13    14    1
    14    14    15   ar
    15    15    16   ar
    16    16    17   ar
    17    17    18    1
    18    17    19   ar
    19    19    20    1
    20    20    21    1
    21    20    22    1
    22    22    23    2
    23    23    24    1
    24    23    25    1
    25    25    26    1
    26    26    27    1
    27    27    28    1
    28    25    29    1
    29    29    30    2
    30    29    31    2
    31    29    32    1
    32    32    33    1
    33    19    34   ar
    34    10     2   ar
    35    34    14   ar
    36    32    20    1
    37    28    25    1
    38     1    35    1
    39     1    36    1
    40     1    37    1
    41     3    38    1
    42     5    39    1
    43     8    40    1
    44    13    41    1
    45    15    42    1
    46    16    43    1
    47    21    44    1
    48    21    45    1
    49    21    46    1
    50    24    47    1
    51    24    48    1
    52    26    49    1
    53    26    50    1
    54    27    51    1
    55    27    52    1
    56    28    53    1
    57    28    54    1
    58    32    55    1
    59    34    56    1
