@<TRIPOS>MOLECULE
*****
 24 25 0 0 0
SMALL
GASTEIGER

@<TRIPOS>ATOM
      1 C           3.2224    0.4768   -0.1314 C.3     1  UNL1        0.0135
      2 N           2.0780   -0.4091   -0.0883 N.ar    1  UNL1       -0.3277
      3 C           2.1116   -1.7602   -0.0508 C.ar    1  UNL1        0.0986
      4 N           0.8583   -2.2505   -0.0172 N.ar    1  UNL1       -0.2177
      5 C           0.0400   -1.1758   -0.0344 C.ar    1  UNL1        0.1678
      6 C           0.8106   -0.0359   -0.0787 C.ar    1  UNL1        0.1512
      7 C           0.1585    1.1945   -0.1029 C.ar    1  UNL1        0.2822
      8 O           0.8745    2.2253   -0.1433 O.2     1  UNL1       -0.2652
      9 N          -1.1885    1.2467   -0.0831 N.ar    1  UNL1       -0.2622
     10 C          -1.7588    2.5643   -0.1111 C.3     1  UNL1        0.0196
     11 C          -1.9474    0.1332   -0.0397 C.ar    1  UNL1        0.3331
     12 O          -3.1971    0.2055   -0.0219 O.2     1  UNL1       -0.2462
     13 N          -1.2934   -1.0218   -0.0176 N.ar    1  UNL1       -0.2796
     14 C          -2.0742   -2.2395    0.0290 C.3     1  UNL1        0.0181
     15 H           3.4493    0.7593    0.9141 H       1  UNL1        0.0456
     16 H           4.0913   -0.0079   -0.6225 H       1  UNL1        0.0456
     17 H           3.0203    1.3955   -0.7209 H       1  UNL1        0.0456
     18 H           2.9769   -2.3996   -0.0466 H       1  UNL1        0.1029
     19 H          -1.1776    3.2901    0.5163 H       1  UNL1        0.0458
     20 H          -1.5826    2.9445   -1.1588 H       1  UNL1        0.0458
     21 H          -2.8253    2.6174    0.1163 H       1  UNL1        0.0458
     22 H          -1.6310   -2.8847    0.8182 H       1  UNL1        0.0458
     23 H          -1.8613   -2.7932   -0.9322 H       1  UNL1        0.0458
     24 H          -3.1546   -2.0749    0.1331 H       1  UNL1        0.0458
@<TRIPOS>BOND
     1     1     2    1
     2     2     3   ar
     3     3     4   ar
     4     4     5   ar
     5     5     6   ar
     6     6     7   ar
     7     7     8    2
     8     7     9   ar
     9     9    10    1
    10     9    11   ar
    11    11    12    2
    12    11    13   ar
    13    13    14    1
    14     6     2   ar
    15    13     5   ar
    16     1    15    1
    17     1    16    1
    18     1    17    1
    19     3    18    1
    20    10    19    1
    21    10    20    1
    22    10    21    1
    23    14    22    1
    24    14    23    1
    25    14    24    1
