
     RDKit          3D

 47 48  0  0  0  0  0  0  0  0999 V2000
   -6.4711   -1.4228    2.2587 C   0  0  0  0  0  0  0  0  0  0  0  0
   -6.7901   -1.1284    0.9322 O   0  0  0  0  0  0  0  0  0  0  0  0
   -5.9329   -0.5457    0.0015 C   0  0  0  0  0  0  0  0  0  0  0  0
   -4.6541   -0.1893    0.3298 C   0  0  0  0  0  0  0  0  0  0  0  0
   -3.7778    0.3995   -0.6090 C   0  0  0  0  0  0  0  0  0  0  0  0
   -2.5000    0.7824   -0.1037 C   0  0  0  0  0  0  0  0  0  0  0  0
   -1.3866    1.0383   -0.6414 C   0  0  0  0  0  0  0  0  0  0  0  0
   -0.9131    1.0492   -1.9761 C   0  0  0  0  0  0  0  0  0  0  0  0
   -1.4666    0.7732   -3.0465 O   0  0  0  0  0  0  0  0  0  0  0  0
    0.5563    1.4729   -2.1932 C   0  0  0  0  0  0  0  0  0  0  0  0
    0.9738    2.2162   -1.0204 C   0  0  0  0  0  0  0  0  0  0  0  0
    0.2883    3.2541   -0.7190 O   0  0  0  0  0  0  0  0  0  0  0  0
    2.0966    1.8628   -0.1886 C   0  0  0  0  0  0  0  0  0  0  0  0
    2.8239    0.8013   -0.4454 C   0  0  0  0  0  0  0  0  0  0  0  0
    3.9505    0.4507    0.3954 C   0  0  0  0  0  0  0  0  0  0  0  0
    4.3406    1.1572    1.4919 C   0  0  0  0  0  0  0  0  0  0  0  0
    5.4419    0.7422    2.2544 C   0  0  0  0  0  0  0  0  0  0  0  0
    6.1336   -0.3838    1.8964 C   0  0  0  0  0  0  0  0  0  0  0  0
    7.2251   -0.7874    2.6614 O   0  0  0  0  0  0  0  0  0  0  0  0
    5.7644   -1.1187    0.7944 C   0  0  0  0  0  0  0  0  0  0  0  0
    6.5040   -2.2702    0.4608 O   0  0  0  0  0  0  0  0  0  0  0  0
    6.0584   -2.9661   -0.6896 C   0  0  0  0  0  0  0  0  0  0  0  0
    4.6892   -0.6912    0.0711 C   0  0  0  0  0  0  0  0  0  0  0  0
   -4.2911    0.5903   -1.8592 C   0  0  0  0  0  0  0  0  0  0  0  0
   -5.5950    0.2199   -2.1741 C   0  0  0  0  0  0  0  0  0  0  0  0
   -6.4440   -0.3487   -1.2751 C   0  0  0  0  0  0  0  0  0  0  0  0
   -7.7442   -0.7208   -1.5780 O   0  0  0  0  0  0  0  0  0  0  0  0
   -7.0888   -2.2809    2.6505 H   0  0  0  0  0  0  0  0  0  0  0  0
   -6.5058   -0.5793    2.9593 H   0  0  0  0  0  0  0  0  0  0  0  0
   -5.4122   -1.8157    2.2814 H   0  0  0  0  0  0  0  0  0  0  0  0
   -4.3416   -0.3834    1.3531 H   0  0  0  0  0  0  0  0  0  0  0  0
   -2.4763    0.9061    1.0451 H   0  0  0  0  0  0  0  0  0  0  0  0
   -0.5787    1.3165    0.1469 H   0  0  0  0  0  0  0  0  0  0  0  0
    0.5249    2.1411   -3.1079 H   0  0  0  0  0  0  0  0  0  0  0  0
    1.0956    0.5491   -2.4319 H   0  0  0  0  0  0  0  0  0  0  0  0
    2.3460    2.5085    0.6869 H   0  0  0  0  0  0  0  0  0  0  0  0
    2.5994    0.1487   -1.3036 H   0  0  0  0  0  0  0  0  0  0  0  0
    3.8119    2.0584    1.8049 H   0  0  0  0  0  0  0  0  0  0  0  0
    5.6866    1.3559    3.1059 H   0  0  0  0  0  0  0  0  0  0  0  0
    7.2071   -0.7813    3.6627 H   0  0  0  0  0  0  0  0  0  0  0  0
    6.6346   -3.9039   -0.7777 H   0  0  0  0  0  0  0  0  0  0  0  0
    4.9825   -3.2164   -0.6444 H   0  0  0  0  0  0  0  0  0  0  0  0
    6.1886   -2.3285   -1.5899 H   0  0  0  0  0  0  0  0  0  0  0  0
    4.4041   -1.2852   -0.8061 H   0  0  0  0  0  0  0  0  0  0  0  0
   -3.7179    1.0721   -2.6251 H   0  0  0  0  0  0  0  0  0  0  0  0
   -5.9863    0.3820   -3.1890 H   0  0  0  0  0  0  0  0  0  0  0  0
   -8.2538   -0.1010   -2.1960 H   0  0  0  0  0  0  0  0  0  0  0  0
  1  2  1  0
  2  3  1  0
  3  4  2  0
  4  5  1  0
  5  6  1  0
  6  7  2  3
  7  8  1  0
  8  9  2  0
  8 10  1  0
 10 11  1  0
 11 12  2  0
 11 13  1  0
 13 14  2  3
 14 15  1  0
 15 16  2  0
 16 17  1  0
 17 18  2  0
 18 19  1  0
 18 20  1  0
 20 21  1  0
 21 22  1  0
 20 23  2  0
  5 24  2  0
 24 25  1  0
 25 26  2  0
 26 27  1  0
 26  3  1  0
 23 15  1  0
  1 28  1  0
  1 29  1  0
  1 30  1  0
  4 31  1  0
  6 32  1  0
  7 33  1  0
 10 34  1  0
 10 35  1  0
 13 36  1  0
 14 37  1  0
 16 38  1  0
 17 39  1  0
 19 40  1  0
 22 41  1  0
 22 42  1  0
 22 43  1  0
 23 44  1  0
 24 45  1  0
 25 46  1  0
 27 47  1  0
M  END
$$$$
