@<TRIPOS>MOLECULE
*****
 47 48 0 0 0
SMALL
GASTEIGER

@<TRIPOS>ATOM
      1 C          -6.4711   -1.4228    2.2587 C.3     1  UNL1        0.0790
      2 O          -6.7901   -1.1284    0.9322 O.3     1  UNL1       -0.4914
      3 C          -5.9329   -0.5457    0.0015 C.ar    1  UNL1        0.1618
      4 C          -4.6541   -0.1893    0.3298 C.ar    1  UNL1       -0.0092
      5 C          -3.7778    0.3995   -0.6090 C.ar    1  UNL1       -0.0212
      6 C          -2.5000    0.7824   -0.1037 C.2     1  UNL1       -0.0512
      7 C          -1.3866    1.0383   -0.6414 C.2     1  UNL1       -0.0182
      8 C          -0.9131    1.0492   -1.9761 C.2     1  UNL1        0.1635
      9 O          -1.4666    0.7732   -3.0465 O.2     1  UNL1       -0.2922
     10 C           0.5563    1.4729   -2.1932 C.3     1  UNL1        0.0724
     11 C           0.9738    2.2162   -1.0204 C.2     1  UNL1        0.1635
     12 O           0.2883    3.2541   -0.7190 O.2     1  UNL1       -0.2922
     13 C           2.0966    1.8628   -0.1886 C.2     1  UNL1       -0.0182
     14 C           2.8239    0.8013   -0.4454 C.2     1  UNL1       -0.0512
     15 C           3.9505    0.4507    0.3954 C.ar    1  UNL1       -0.0212
     16 C           4.3406    1.1572    1.4919 C.ar    1  UNL1       -0.0509
     17 C           5.4419    0.7422    2.2544 C.ar    1  UNL1       -0.0160
     18 C           6.1336   -0.3838    1.8964 C.ar    1  UNL1        0.1585
     19 O           7.2251   -0.7874    2.6614 O.3     1  UNL1       -0.5033
     20 C           5.7644   -1.1187    0.7944 C.ar    1  UNL1        0.1618
     21 O           6.5040   -2.2702    0.4608 O.3     1  UNL1       -0.4914
     22 C           6.0584   -2.9661   -0.6896 C.3     1  UNL1        0.0790
     23 C           4.6892   -0.6912    0.0711 C.ar    1  UNL1       -0.0092
     24 C          -4.2911    0.5903   -1.8592 C.ar    1  UNL1       -0.0509
     25 C          -5.5950    0.2199   -2.1741 C.ar    1  UNL1       -0.0160
     26 C          -6.4440   -0.3487   -1.2751 C.ar    1  UNL1        0.1585
     27 O          -7.7442   -0.7208   -1.5780 O.3     1  UNL1       -0.5033
     28 H          -7.0888   -2.2809    2.6505 H       1  UNL1        0.0660
     29 H          -6.5058   -0.5793    2.9593 H       1  UNL1        0.0660
     30 H          -5.4122   -1.8157    2.2814 H       1  UNL1        0.0660
     31 H          -4.3416   -0.3834    1.3531 H       1  UNL1        0.0661
     32 H          -2.4763    0.9061    1.0451 H       1  UNL1        0.0625
     33 H          -0.5787    1.3165    0.1469 H       1  UNL1        0.0653
     34 H           0.5249    2.1411   -3.1079 H       1  UNL1        0.0426
     35 H           1.0956    0.5491   -2.4319 H       1  UNL1        0.0426
     36 H           2.3460    2.5085    0.6869 H       1  UNL1        0.0653
     37 H           2.5994    0.1487   -1.3036 H       1  UNL1        0.0625
     38 H           3.8119    2.0584    1.8049 H       1  UNL1        0.0625
     39 H           5.6866    1.3559    3.1059 H       1  UNL1        0.0655
     40 H           7.2071   -0.7813    3.6627 H       1  UNL1        0.2923
     41 H           6.6346   -3.9039   -0.7777 H       1  UNL1        0.0660
     42 H           4.9825   -3.2164   -0.6444 H       1  UNL1        0.0660
     43 H           6.1886   -2.3285   -1.5899 H       1  UNL1        0.0660
     44 H           4.4041   -1.2852   -0.8061 H       1  UNL1        0.0661
     45 H          -3.7179    1.0721   -2.6251 H       1  UNL1        0.0625
     46 H          -5.9863    0.3820   -3.1890 H       1  UNL1        0.0655
     47 H          -8.2538   -0.1010   -2.1960 H       1  UNL1        0.2923
@<TRIPOS>BOND
     1     1     2    1
     2     2     3    1
     3     3     4   ar
     4     4     5   ar
     5     5     6    1
     6     6     7    2
     7     7     8    1
     8     8     9    2
     9     8    10    1
    10    10    11    1
    11    11    12    2
    12    11    13    1
    13    13    14    2
    14    14    15    1
    15    15    16   ar
    16    16    17   ar
    17    17    18   ar
    18    18    19    1
    19    18    20   ar
    20    20    21    1
    21    21    22    1
    22    20    23   ar
    23     5    24   ar
    24    24    25   ar
    25    25    26   ar
    26    26    27    1
    27    26     3   ar
    28    23    15   ar
    29     1    28    1
    30     1    29    1
    31     1    30    1
    32     4    31    1
    33     6    32    1
    34     7    33    1
    35    10    34    1
    36    10    35    1
    37    13    36    1
    38    14    37    1
    39    16    38    1
    40    17    39    1
    41    19    40    1
    42    22    41    1
    43    22    42    1
    44    22    43    1
    45    23    44    1
    46    24    45    1
    47    25    46    1
    48    27    47    1
