@<TRIPOS>MOLECULE
*****
 39 43 0 0 0
SMALL
GASTEIGER

@<TRIPOS>ATOM
      1 N           1.1998   -5.3618    0.2442 N.1     1  UNL1       -0.1909
      2 C           0.4057   -4.5061    0.2241 C.1     1  UNL1        0.0992
      3 C          -0.5637   -3.4476    0.2224 C.ar    1  UNL1        0.0538
      4 C          -1.8927   -3.7373    0.4525 C.ar    1  UNL1       -0.0437
      5 C          -2.8450   -2.7335    0.4556 C.ar    1  UNL1       -0.0514
      6 C          -2.4776   -1.4091    0.2259 C.ar    1  UNL1       -0.0002
      7 C          -3.4537   -0.4388    0.2369 C.ar    1  UNL1       -0.0367
      8 C          -3.0753    0.8653    0.0083 C.ar    1  UNL1        0.0829
      9 C          -3.9593    1.9227   -0.0055 C.ar    1  UNL1        0.2633
     10 O          -5.1694    1.6715    0.2023 O.2     1  UNL1       -0.2670
     11 N          -3.5734    3.1919   -0.2305 N.ar    1  UNL1       -0.2729
     12 C          -2.2650    3.4096   -0.4480 C.ar    1  UNL1        0.3504
     13 O          -1.9100    4.6027   -0.6584 O.2     1  UNL1       -0.2446
     14 N          -1.3369    2.4360   -0.4517 N.ar    1  UNL1       -0.1745
     15 C          -1.6613    1.1408   -0.2321 C.ar    1  UNL1        0.1563
     16 N          -0.7621    0.1491   -0.2292 N.ar    1  UNL1       -0.2933
     17 C           0.6068    0.4344   -0.4643 C.ar    1  UNL1        0.0506
     18 C           1.0069    0.6961   -1.7823 C.ar    1  UNL1       -0.0376
     19 C           2.3152    0.9775   -2.0680 C.ar    1  UNL1       -0.0578
     20 C           3.2240    0.9968   -1.0326 C.ar    1  UNL1       -0.0360
     21 C           2.8647    0.7444    0.2723 C.ar    1  UNL1        0.0707
     22 N           3.8449    0.7765    1.3095 N.ar    1  UNL1       -0.2002
     23 C           5.1517    0.4617    1.2549 C.ar    1  UNL1        0.1436
     24 N           5.6998    0.6426    2.4897 N.ar    1  UNL1       -0.1165
     25 N           4.7302    1.0598    3.2680 N.ar    1  UNL1       -0.0230
     26 N           3.6212    1.1397    2.5615 N.ar    1  UNL1       -0.0392
     27 C           1.5475    0.4643    0.5379 C.ar    1  UNL1       -0.0122
     28 C          -1.1384   -1.1181   -0.0058 C.ar    1  UNL1        0.0569
     29 C          -0.1978   -2.1364   -0.0053 C.ar    1  UNL1       -0.0198
     30 H          -2.2032   -4.7732    0.6355 H       1  UNL1        0.0631
     31 H          -3.8954   -2.9380    0.6342 H       1  UNL1        0.0624
     32 H          -4.4967   -0.6815    0.4196 H       1  UNL1        0.0633
     33 H          -4.2664    3.9874   -0.2370 H       1  UNL1        0.1735
     34 H           0.2860    0.6785   -2.5868 H       1  UNL1        0.0638
     35 H           2.6444    1.1832   -3.0844 H       1  UNL1        0.0619
     36 H           4.2808    1.2209   -1.2412 H       1  UNL1        0.0639
     37 H           5.6597    0.1225    0.3625 H       1  UNL1        0.1067
     38 H           1.1978    0.2570    1.5392 H       1  UNL1        0.0659
     39 H           0.8560   -1.9514   -0.1818 H       1  UNL1        0.0651
@<TRIPOS>BOND
     1     1     2    3
     2     2     3    1
     3     3     4   ar
     4     4     5   ar
     5     5     6   ar
     6     6     7   ar
     7     7     8   ar
     8     8     9   ar
     9     9    10    2
    10     9    11   ar
    11    11    12   ar
    12    12    13    2
    13    12    14   ar
    14    14    15   ar
    15    15    16   ar
    16    16    17    1
    17    17    18   ar
    18    18    19   ar
    19    19    20   ar
    20    20    21   ar
    21    21    22    1
    22    22    23   ar
    23    23    24   ar
    24    24    25   ar
    25    25    26   ar
    26    21    27   ar
    27    16    28   ar
    28    28    29   ar
    29    29     3   ar
    30    28     6   ar
    31    15     8    1
    32    27    17   ar
    33    26    22   ar
    34     4    30    1
    35     5    31    1
    36     7    32    1
    37    11    33    1
    38    18    34    1
    39    19    35    1
    40    20    36    1
    41    23    37    1
    42    27    38    1
    43    29    39    1
