
     RDKit          3D

 35 38  0  0  0  0  0  0  0  0999 V2000
   -1.2204   -3.4505   -0.7030 C   0  0  0  0  0  0  0  0  0  0  0  0
    0.0555   -2.7759   -0.6342 N   0  0  0  0  0  0  0  0  0  0  0  0
    1.2787   -3.2914   -0.8197 C   0  0  0  0  0  0  0  0  0  0  0  0
    2.2088   -2.3202   -0.6658 N   0  0  0  0  0  0  0  0  0  0  0  0
    1.5642   -1.1487   -0.3733 C   0  0  0  0  0  0  0  0  0  0  0  0
    2.2369    0.1119   -0.1375 C   0  0  0  0  0  0  0  0  0  0  0  0
    2.3374    0.7440    1.0775 C   0  0  0  0  0  0  0  0  0  0  0  0
    2.9818    1.9500    1.2676 C   0  0  0  0  0  0  0  0  0  0  0  0
    3.5606    2.5594    0.1756 C   0  0  0  0  0  0  0  0  0  0  0  0
    4.2014    3.7561    0.3538 F   0  0  0  0  0  0  0  0  0  0  0  0
    3.4893    1.9668   -1.0699 C   0  0  0  0  0  0  0  0  0  0  0  0
    4.0723    2.5980   -2.1215 F   0  0  0  0  0  0  0  0  0  0  0  0
    2.8297    0.7480   -1.2242 C   0  0  0  0  0  0  0  0  0  0  0  0
    0.2336   -1.4509   -0.3583 C   0  0  0  0  0  0  0  0  0  0  0  0
   -0.8491   -0.5319   -0.0983 C   0  0  0  0  0  0  0  0  0  0  0  0
   -1.7146   -0.2464   -1.1601 C   0  0  0  0  0  0  0  0  0  0  0  0
   -2.7756    0.6066   -1.0236 C   0  0  0  0  0  0  0  0  0  0  0  0
   -2.9980    1.2024    0.1966 C   0  0  0  0  0  0  0  0  0  0  0  0
   -3.9645    2.0859    0.6217 C   0  0  0  0  0  0  0  0  0  0  0  0
   -3.6917    2.3329    1.9180 N   0  0  0  0  0  0  0  0  0  0  0  0
   -2.6186    1.6493    2.2944 N   0  0  0  0  0  0  0  0  0  0  0  0
   -2.1434    0.9267    1.2629 C   0  0  0  0  0  0  0  0  0  0  0  0
   -1.0862    0.0656    1.0954 C   0  0  0  0  0  0  0  0  0  0  0  0
   -1.8899   -3.1377    0.1484 H   0  0  0  0  0  0  0  0  0  0  0  0
   -1.0791   -4.5533   -0.5384 H   0  0  0  0  0  0  0  0  0  0  0  0
   -1.7771   -3.2354   -1.6248 H   0  0  0  0  0  0  0  0  0  0  0  0
    1.5045   -4.3189   -1.0558 H   0  0  0  0  0  0  0  0  0  0  0  0
    1.8896    0.2654    1.9334 H   0  0  0  0  0  0  0  0  0  0  0  0
    3.0395    2.4232    2.2562 H   0  0  0  0  0  0  0  0  0  0  0  0
    2.7842    0.2978   -2.2114 H   0  0  0  0  0  0  0  0  0  0  0  0
   -1.5667   -0.7017   -2.1406 H   0  0  0  0  0  0  0  0  0  0  0  0
   -3.4642    0.8439   -1.8380 H   0  0  0  0  0  0  0  0  0  0  0  0
   -4.7598    2.4722   -0.0011 H   0  0  0  0  0  0  0  0  0  0  0  0
   -2.2194    1.6837    3.2568 H   0  0  0  0  0  0  0  0  0  0  0  0
   -0.4495   -0.1267    1.9415 H   0  0  0  0  0  0  0  0  0  0  0  0
  1  2  1  0
  2  3  1  0
  3  4  2  0
  4  5  1  0
  5  6  1  0
  6  7  2  0
  7  8  1  0
  8  9  2  0
  9 10  1  0
  9 11  1  0
 11 12  1  0
 11 13  2  0
  5 14  2  0
 14 15  1  0
 15 16  2  0
 16 17  1  0
 17 18  2  0
 18 19  1  0
 19 20  2  0
 20 21  1  0
 21 22  1  0
 22 23  2  0
 14  2  1  0
 23 15  1  0
 13  6  1  0
 22 18  1  0
  1 24  1  0
  1 25  1  0
  1 26  1  0
  3 27  1  0
  7 28  1  0
  8 29  1  0
 13 30  1  0
 16 31  1  0
 17 32  1  0
 19 33  1  0
 21 34  1  0
 23 35  1  0
M  END
$$$$
