@<TRIPOS>MOLECULE
*****
 35 38 0 0 0
SMALL
GASTEIGER

@<TRIPOS>ATOM
      1 C          -1.2204   -3.4505   -0.7030 C.3     1  UNL1        0.0133
      2 N           0.0555   -2.7759   -0.6342 N.ar    1  UNL1       -0.3327
      3 C           1.2787   -3.2914   -0.8197 C.ar    1  UNL1        0.0968
      4 N           2.2088   -2.3202   -0.6658 N.ar    1  UNL1       -0.2351
      5 C           1.5642   -1.1487   -0.3733 C.ar    1  UNL1        0.0967
      6 C           2.2369    0.1119   -0.1375 C.ar    1  UNL1        0.0053
      7 C           2.3374    0.7440    1.0775 C.ar    1  UNL1       -0.0496
      8 C           2.9818    1.9500    1.2676 C.ar    1  UNL1       -0.0230
      9 C           3.5606    2.5594    0.1756 C.ar    1  UNL1        0.1584
     10 F           4.2014    3.7561    0.3538 F       1  UNL1       -0.2025
     11 C           3.4893    1.9668   -1.0699 C.ar    1  UNL1        0.1590
     12 F           4.0723    2.5980   -2.1215 F       1  UNL1       -0.2025
     13 C           2.8297    0.7480   -1.2242 C.ar    1  UNL1       -0.0143
     14 C           0.2336   -1.4509   -0.3583 C.ar    1  UNL1        0.0762
     15 C          -0.8491   -0.5319   -0.0983 C.ar    1  UNL1        0.0026
     16 C          -1.7146   -0.2464   -1.1601 C.ar    1  UNL1       -0.0518
     17 C          -2.7756    0.6066   -1.0236 C.ar    1  UNL1       -0.0505
     18 C          -2.9980    1.2024    0.1966 C.ar    1  UNL1        0.0195
     19 C          -3.9645    2.0859    0.6217 C.ar    1  UNL1        0.0569
     20 N          -3.6917    2.3329    1.9180 N.ar    1  UNL1       -0.1812
     21 N          -2.6186    1.6493    2.2944 N.ar    1  UNL1       -0.2769
     22 C          -2.1434    0.9267    1.2629 C.ar    1  UNL1        0.0663
     23 C          -1.0862    0.0656    1.0954 C.ar    1  UNL1       -0.0271
     24 H          -1.8899   -3.1377    0.1484 H       1  UNL1        0.0456
     25 H          -1.0791   -4.5533   -0.5384 H       1  UNL1        0.0456
     26 H          -1.7771   -3.2354   -1.6248 H       1  UNL1        0.0456
     27 H           1.5045   -4.3189   -1.0558 H       1  UNL1        0.1029
     28 H           1.8896    0.2654    1.9334 H       1  UNL1        0.0625
     29 H           3.0395    2.4232    2.2562 H       1  UNL1        0.0647
     30 H           2.7842    0.2978   -2.2114 H       1  UNL1        0.0654
     31 H          -1.5667   -0.7017   -2.1406 H       1  UNL1        0.0624
     32 H          -3.4642    0.8439   -1.8380 H       1  UNL1        0.0625
     33 H          -4.7598    2.4722   -0.0011 H       1  UNL1        0.0854
     34 H          -2.2194    1.6837    3.2568 H       1  UNL1        0.1889
     35 H          -0.4495   -0.1267    1.9415 H       1  UNL1        0.0645
@<TRIPOS>BOND
     1     1     2    1
     2     2     3   ar
     3     3     4   ar
     4     4     5   ar
     5     5     6    1
     6     6     7   ar
     7     7     8   ar
     8     8     9   ar
     9     9    10    1
    10     9    11   ar
    11    11    12    1
    12    11    13   ar
    13     5    14   ar
    14    14    15    1
    15    15    16   ar
    16    16    17   ar
    17    17    18   ar
    18    18    19   ar
    19    19    20   ar
    20    20    21   ar
    21    21    22   ar
    22    22    23   ar
    23    14     2   ar
    24    23    15   ar
    25    13     6   ar
    26    22    18   ar
    27     1    24    1
    28     1    25    1
    29     1    26    1
    30     3    27    1
    31     7    28    1
    32     8    29    1
    33    13    30    1
    34    16    31    1
    35    17    32    1
    36    19    33    1
    37    21    34    1
    38    23    35    1
