@<TRIPOS>MOLECULE
*****
 54 58 0 0 0
SMALL
GASTEIGER

@<TRIPOS>ATOM
      1 C           8.9032   -0.3793    0.9694 C.3     1  UNL1        0.0789
      2 O           8.0975   -0.1725   -0.1500 O.3     1  UNL1       -0.4936
      3 C           6.7231   -0.0100   -0.1366 C.ar    1  UNL1        0.1387
      4 C           6.0752    0.1867   -1.3458 C.ar    1  UNL1        0.0700
      5 N           4.7581    0.3414   -1.3200 N.ar    1  UNL1       -0.2479
      6 C           4.0581    0.3107   -0.1648 C.ar    1  UNL1        0.1111
      7 C           2.6667    0.4801   -0.1987 C.ar    1  UNL1        0.1490
      8 N           2.0744    0.6950   -1.4535 N.pl3   1  UNL1       -0.2977
      9 C           0.6810    0.8015   -1.6094 C.ar    1  UNL1        0.0330
     10 C           0.2374    1.5532   -2.6942 C.ar    1  UNL1       -0.0378
     11 C          -1.1200    1.6541   -2.8775 C.ar    1  UNL1       -0.0243
     12 C          -2.0243    1.0445   -2.0348 C.ar    1  UNL1        0.1311
     13 F          -3.3771    1.1782   -2.2533 F       1  UNL1       -0.2050
     14 C          -1.5933    0.2971   -0.9577 C.ar    1  UNL1        0.0420
     15 C          -2.5840   -0.3759   -0.0425 C.3     1  UNL1        0.1959
     16 C          -1.8130   -1.1557    1.0050 C.3     1  UNL1       -0.0112
     17 C          -3.2856   -1.3971   -0.8964 C.3     1  UNL1        0.1183
     18 S          -4.9036   -1.7622   -0.3379 S.O2    1  UNL1       -0.0095
     19 O          -5.8589   -1.9825   -1.4832 O.2     1  UNL1       -0.1731
     20 O          -4.8370   -3.0718    0.4352 O.2     1  UNL1       -0.1731
     21 C          -5.4776   -0.4774    0.7077 C.3     1  UNL1        0.1888
     22 C          -6.4627   -0.7616    1.7924 C.3     1  UNL1       -0.0139
     23 C          -6.9161   -0.1379    0.5458 C.3     1  UNL1       -0.0139
     24 C          -4.5867    0.6736    0.8331 C.2     1  UNL1        0.3072
     25 N          -5.0891    1.9207    1.3653 N.pl3   1  UNL1       -0.2488
     26 N          -3.3878    0.6471    0.5005 N.2     1  UNL1       -0.0727
     27 C          -0.2202    0.1952   -0.7722 C.ar    1  UNL1       -0.0301
     28 N           2.0110    0.4446    0.9524 N.ar    1  UNL1       -0.2380
     29 C           2.5573    0.2609    2.1505 C.ar    1  UNL1        0.0304
     30 C           3.9367    0.0923    2.1888 C.ar    1  UNL1       -0.0342
     31 C           4.6724    0.1191    1.0308 C.ar    1  UNL1        0.0086
     32 C           6.0543   -0.0482    1.0582 C.ar    1  UNL1       -0.0091
     33 H           8.6108    0.2247    1.8560 H       1  UNL1        0.0660
     34 H           9.9458   -0.0737    0.6805 H       1  UNL1        0.0660
     35 H           8.9705   -1.4246    1.3087 H       1  UNL1        0.0660
     36 H           6.6325    0.2121   -2.2760 H       1  UNL1        0.0867
     37 H           2.6932    0.7783   -2.3105 H       1  UNL1        0.1536
     38 H           0.9547    2.0337   -3.3592 H       1  UNL1        0.0637
     39 H          -1.5039    2.2229   -3.7011 H       1  UNL1        0.0647
     40 H          -1.1591   -0.5412    1.6335 H       1  UNL1        0.0279
     41 H          -2.5429   -1.7390    1.6214 H       1  UNL1        0.0279
     42 H          -1.1897   -1.8969    0.4711 H       1  UNL1        0.0279
     43 H          -3.3311   -1.0750   -1.9604 H       1  UNL1        0.0550
     44 H          -2.6563   -2.3383   -0.9292 H       1  UNL1        0.0550
     45 H          -6.6994   -1.8582    1.9198 H       1  UNL1        0.0293
     46 H          -6.3792   -0.1505    2.7005 H       1  UNL1        0.0293
     47 H          -7.5494   -0.7458   -0.1666 H       1  UNL1        0.0293
     48 H          -7.2257    0.9314    0.5477 H       1  UNL1        0.0293
     49 H          -5.1512    1.9767    2.3901 H       1  UNL1        0.2881
     50 H          -5.3703    2.7095    0.7673 H       1  UNL1        0.2881
     51 H           0.0964   -0.4007    0.0678 H       1  UNL1        0.0641
     52 H           1.9531    0.2448    3.0423 H       1  UNL1        0.0830
     53 H           4.4260   -0.0576    3.1204 H       1  UNL1        0.0639
     54 H           6.5060   -0.1963    2.0163 H       1  UNL1        0.0661
@<TRIPOS>BOND
     1     1     2    1
     2     2     3    1
     3     3     4   ar
     4     4     5   ar
     5     5     6   ar
     6     6     7   ar
     7     7     8    1
     8     8     9    1
     9     9    10   ar
    10    10    11   ar
    11    11    12   ar
    12    12    13    1
    13    12    14   ar
    14    14    15    1
    15    15    16    1
    16    15    17    1
    17    17    18    1
    18    18    19    2
    19    18    20    2
    20    18    21    1
    21    21    22    1
    22    22    23    1
    23    21    24    1
    24    24    25    1
    25    24    26    2
    26    14    27   ar
    27     7    28   ar
    28    28    29   ar
    29    29    30   ar
    30    30    31   ar
    31    31    32   ar
    32    32     3   ar
    33    31     6   ar
    34    27     9   ar
    35    26    15    1
    36    23    21    1
    37     1    33    1
    38     1    34    1
    39     1    35    1
    40     4    36    1
    41     8    37    1
    42    10    38    1
    43    11    39    1
    44    16    40    1
    45    16    41    1
    46    16    42    1
    47    17    43    1
    48    17    44    1
    49    22    45    1
    50    22    46    1
    51    23    47    1
    52    23    48    1
    53    25    49    1
    54    25    50    1
    55    27    51    1
    56    29    52    1
    57    30    53    1
    58    32    54    1
