
     RDKit          3D

 54 58  0  0  0  0  0  0  0  0999 V2000
    8.9032   -0.3793    0.9694 C   0  0  0  0  0  0  0  0  0  0  0  0
    8.0975   -0.1725   -0.1500 O   0  0  0  0  0  0  0  0  0  0  0  0
    6.7231   -0.0100   -0.1366 C   0  0  0  0  0  0  0  0  0  0  0  0
    6.0752    0.1867   -1.3458 C   0  0  0  0  0  0  0  0  0  0  0  0
    4.7581    0.3414   -1.3200 N   0  0  0  0  0  0  0  0  0  0  0  0
    4.0581    0.3107   -0.1648 C   0  0  0  0  0  0  0  0  0  0  0  0
    2.6667    0.4801   -0.1987 C   0  0  0  0  0  0  0  0  0  0  0  0
    2.0744    0.6950   -1.4535 N   0  0  0  0  0  0  0  0  0  0  0  0
    0.6810    0.8015   -1.6094 C   0  0  0  0  0  0  0  0  0  0  0  0
    0.2374    1.5532   -2.6942 C   0  0  0  0  0  0  0  0  0  0  0  0
   -1.1200    1.6541   -2.8775 C   0  0  0  0  0  0  0  0  0  0  0  0
   -2.0243    1.0445   -2.0348 C   0  0  0  0  0  0  0  0  0  0  0  0
   -3.3771    1.1782   -2.2533 F   0  0  0  0  0  0  0  0  0  0  0  0
   -1.5933    0.2971   -0.9577 C   0  0  0  0  0  0  0  0  0  0  0  0
   -2.5840   -0.3759   -0.0425 C   0  0  2  0  0  0  0  0  0  0  0  0
   -1.8130   -1.1557    1.0050 C   0  0  0  0  0  0  0  0  0  0  0  0
   -3.2856   -1.3971   -0.8964 C   0  0  0  0  0  0  0  0  0  0  0  0
   -4.9036   -1.7622   -0.3379 S   0  0  0  0  0  6  0  0  0  0  0  0
   -5.8589   -1.9825   -1.4832 O   0  0  0  0  0  0  0  0  0  0  0  0
   -4.8370   -3.0718    0.4352 O   0  0  0  0  0  0  0  0  0  0  0  0
   -5.4776   -0.4774    0.7077 C   0  0  0  0  0  0  0  0  0  0  0  0
   -6.4627   -0.7616    1.7924 C   0  0  0  0  0  0  0  0  0  0  0  0
   -6.9161   -0.1379    0.5458 C   0  0  0  0  0  0  0  0  0  0  0  0
   -4.5867    0.6736    0.8331 C   0  0  0  0  0  0  0  0  0  0  0  0
   -5.0891    1.9207    1.3653 N   0  0  0  0  0  0  0  0  0  0  0  0
   -3.3878    0.6471    0.5005 N   0  0  0  0  0  0  0  0  0  0  0  0
   -0.2202    0.1952   -0.7722 C   0  0  0  0  0  0  0  0  0  0  0  0
    2.0110    0.4446    0.9524 N   0  0  0  0  0  0  0  0  0  0  0  0
    2.5573    0.2609    2.1505 C   0  0  0  0  0  0  0  0  0  0  0  0
    3.9367    0.0923    2.1888 C   0  0  0  0  0  0  0  0  0  0  0  0
    4.6724    0.1191    1.0308 C   0  0  0  0  0  0  0  0  0  0  0  0
    6.0543   -0.0482    1.0582 C   0  0  0  0  0  0  0  0  0  0  0  0
    8.6108    0.2247    1.8560 H   0  0  0  0  0  0  0  0  0  0  0  0
    9.9458   -0.0737    0.6805 H   0  0  0  0  0  0  0  0  0  0  0  0
    8.9705   -1.4246    1.3087 H   0  0  0  0  0  0  0  0  0  0  0  0
    6.6325    0.2121   -2.2760 H   0  0  0  0  0  0  0  0  0  0  0  0
    2.6932    0.7783   -2.3105 H   0  0  0  0  0  0  0  0  0  0  0  0
    0.9547    2.0337   -3.3592 H   0  0  0  0  0  0  0  0  0  0  0  0
   -1.5039    2.2229   -3.7011 H   0  0  0  0  0  0  0  0  0  0  0  0
   -1.1591   -0.5412    1.6335 H   0  0  0  0  0  0  0  0  0  0  0  0
   -2.5429   -1.7390    1.6214 H   0  0  0  0  0  0  0  0  0  0  0  0
   -1.1897   -1.8969    0.4711 H   0  0  0  0  0  0  0  0  0  0  0  0
   -3.3311   -1.0750   -1.9604 H   0  0  0  0  0  0  0  0  0  0  0  0
   -2.6563   -2.3383   -0.9292 H   0  0  0  0  0  0  0  0  0  0  0  0
   -6.6994   -1.8582    1.9198 H   0  0  0  0  0  0  0  0  0  0  0  0
   -6.3792   -0.1505    2.7005 H   0  0  0  0  0  0  0  0  0  0  0  0
   -7.5494   -0.7458   -0.1666 H   0  0  0  0  0  0  0  0  0  0  0  0
   -7.2257    0.9314    0.5477 H   0  0  0  0  0  0  0  0  0  0  0  0
   -5.1512    1.9767    2.3901 H   0  0  0  0  0  0  0  0  0  0  0  0
   -5.3703    2.7095    0.7673 H   0  0  0  0  0  0  0  0  0  0  0  0
    0.0964   -0.4007    0.0678 H   0  0  0  0  0  0  0  0  0  0  0  0
    1.9531    0.2448    3.0423 H   0  0  0  0  0  0  0  0  0  0  0  0
    4.4260   -0.0576    3.1204 H   0  0  0  0  0  0  0  0  0  0  0  0
    6.5060   -0.1963    2.0163 H   0  0  0  0  0  0  0  0  0  0  0  0
  1  2  1  0
  2  3  1  0
  3  4  2  0
  4  5  1  0
  5  6  2  0
  6  7  1  0
  7  8  1  0
  8  9  1  0
  9 10  2  0
 10 11  1  0
 11 12  2  0
 12 13  1  0
 12 14  1  0
 14 15  1  0
 15 16  1  1
 15 17  1  0
 17 18  1  0
 18 19  2  0
 18 20  2  0
 18 21  1  0
 21 22  1  0
 22 23  1  0
 21 24  1  0
 24 25  1  0
 24 26  2  0
 14 27  2  0
  7 28  2  0
 28 29  1  0
 29 30  2  0
 30 31  1  0
 31 32  2  0
 32  3  1  0
 31  6  1  0
 27  9  1  0
 26 15  1  0
 23 21  1  0
  1 33  1  0
  1 34  1  0
  1 35  1  0
  4 36  1  0
  8 37  1  0
 10 38  1  0
 11 39  1  0
 16 40  1  0
 16 41  1  0
 16 42  1  0
 17 43  1  0
 17 44  1  0
 22 45  1  0
 22 46  1  0
 23 47  1  0
 23 48  1  0
 25 49  1  0
 25 50  1  0
 27 51  1  0
 29 52  1  0
 30 53  1  0
 32 54  1  0
M  END
$$$$
