@<TRIPOS>MOLECULE
*****
 22 24 0 0 0
SMALL
GASTEIGER

@<TRIPOS>ATOM
      1 O          -5.0756   -1.0721    0.8837 O.3     1  UNL1       -0.5067
      2 C          -3.8547   -0.6586    0.3935 C.ar    1  UNL1        0.1180
      3 C          -2.7813   -1.0744    1.1488 C.ar    1  UNL1       -0.0043
      4 C          -1.5186   -0.6959    0.7165 C.ar    1  UNL1        0.0430
      5 C          -1.2278    0.0855   -0.4396 C.ar    1  UNL1        0.0792
      6 C          -2.3437    0.4729   -1.1566 C.ar    1  UNL1       -0.0317
      7 C          -3.5979    0.0973   -0.7278 C.ar    1  UNL1       -0.0181
      8 N           0.0285    0.3701   -0.7297 N.ar    1  UNL1       -0.2371
      9 C           0.9745   -0.0326   -0.0089 C.ar    1  UNL1        0.1318
     10 S           0.2209   -0.9749    1.3396 S.2     1  UNL1       -0.0653
     11 C           2.4150    0.1325   -0.0960 C.2     1  UNL1        0.1223
     12 N           2.9786    0.7862   -1.0155 N.am    1  UNL1       -0.1707
     13 C           4.3708    0.8459   -0.9495 C.2     1  UNL1        0.2474
     14 O           5.0908    1.1665   -1.9539 O.2     1  UNL1       -0.2728
     15 C           5.0267    0.5148    0.3688 C.3     1  UNL1        0.0781
     16 S           3.6633   -0.5271    1.0351 S.3     1  UNL1       -0.0963
     17 H          -5.8909   -0.5323    0.6281 H       1  UNL1        0.2921
     18 H          -2.7470   -1.6614    2.0462 H       1  UNL1        0.0666
     19 H          -2.3065    1.0720   -2.0643 H       1  UNL1        0.0640
     20 H          -4.4823    0.3984   -1.2870 H       1  UNL1        0.0655
     21 H           5.9036   -0.1229    0.2584 H       1  UNL1        0.0475
     22 H           5.1539    1.4100    1.0063 H       1  UNL1        0.0475
@<TRIPOS>BOND
     1     1     2    1
     2     2     3   ar
     3     3     4   ar
     4     4     5   ar
     5     5     6   ar
     6     6     7   ar
     7     5     8   ar
     8     8     9   ar
     9     9    10   ar
    10     9    11    1
    11    11    12    2
    12    12    13    1
    13    13    14    2
    14    13    15    1
    15    15    16    1
    16     7     2   ar
    17    16    11    1
    18    10     4   ar
    19     1    17    1
    20     3    18    1
    21     6    19    1
    22     7    20    1
    23    15    21    1
    24    15    22    1
