@<TRIPOS>MOLECULE
*****
 76 79 0 0 0
SMALL
GASTEIGER

@<TRIPOS>ATOM
      1 C          -0.7843   -3.3735   -1.8555 C.3     1  UNL1       -0.0573
      2 C          -0.1791   -1.9983   -1.9138 C.3     1  UNL1       -0.0054
      3 C          -0.4749   -1.4021   -3.2670 C.3     1  UNL1       -0.0573
      4 C          -0.6091   -1.1380   -0.7796 C.ar    1  UNL1        0.0345
      5 C          -1.8102   -0.5276   -0.5050 C.ar    1  UNL1        0.0662
      6 C          -3.0270   -0.6614   -1.2799 C.2     1  UNL1        0.2506
      7 O          -3.1100   -1.5941   -2.1157 O.2     1  UNL1       -0.2698
      8 N          -4.1717    0.1669   -1.2032 N.am    1  UNL1       -0.2814
      9 C          -5.4026    0.1443   -1.8850 C.ar    1  UNL1        0.0337
     10 C          -6.3454    1.1096   -1.6199 C.ar    1  UNL1       -0.0405
     11 C          -7.5677    1.1652   -2.2330 C.ar    1  UNL1       -0.0600
     12 C          -7.9145    0.2224   -3.1734 C.ar    1  UNL1       -0.0616
     13 C          -7.0187   -0.7757   -3.4901 C.ar    1  UNL1       -0.0600
     14 C          -5.8092   -0.7657   -2.8317 C.ar    1  UNL1       -0.0405
     15 C          -1.6793    0.1978    0.6584 C.ar    1  UNL1        0.0200
     16 C          -0.3659    0.0349    1.1186 C.ar    1  UNL1        0.0578
     17 N           0.2289   -0.7748    0.2193 N.ar    1  UNL1       -0.3422
     18 C           1.6376   -1.1626    0.3921 C.3     1  UNL1        0.0259
     19 C           2.5916   -0.2349   -0.2786 C.3     1  UNL1       -0.0087
     20 C           4.0061   -0.7362   -0.0134 C.3     1  UNL1        0.0592
     21 O           4.1670   -2.0057   -0.5131 O.3     1  UNL1       -0.3916
     22 C           5.0565    0.2352   -0.4882 C.3     1  UNL1       -0.0002
     23 C           6.4570   -0.2856   -0.2047 C.3     1  UNL1        0.0676
     24 O           6.6954   -1.4916   -0.8376 O.3     1  UNL1       -0.3912
     25 C           7.4282    0.7860   -0.6377 C.3     1  UNL1        0.0708
     26 C           8.8220    0.3725   -0.3982 C.2     1  UNL1        0.3072
     27 O          10.0121    1.0191   -0.6473 O.3     1  UNL1       -0.4806
     28 O           8.7134   -0.7842    0.1222 O.2     1  UNL1       -0.2509
     29 C           0.2227    0.6329    2.3371 C.ar    1  UNL1       -0.0007
     30 C           0.9812    1.7934    2.3365 C.ar    1  UNL1       -0.0499
     31 C           1.4692    2.2568    3.5404 C.ar    1  UNL1       -0.0258
     32 C           1.1996    1.5706    4.7037 C.ar    1  UNL1        0.1234
     33 F           1.7421    2.1448    5.7972 F       1  UNL1       -0.2055
     34 C           0.4437    0.4132    4.7062 C.ar    1  UNL1       -0.0258
     35 C          -0.0580   -0.0687    3.4915 C.ar    1  UNL1       -0.0499
     36 C          -2.5896    1.0254    1.4392 C.ar    1  UNL1       -0.0151
     37 C          -2.6358    2.4087    1.5344 C.ar    1  UNL1       -0.0539
     38 C          -3.5725    2.9939    2.3584 C.ar    1  UNL1       -0.0612
     39 C          -4.4610    2.2685    3.0881 C.ar    1  UNL1       -0.0617
     40 C          -4.4558    0.8715    3.0274 C.ar    1  UNL1       -0.0612
     41 C          -3.5157    0.3050    2.2014 C.ar    1  UNL1       -0.0539
     42 H          -1.4656   -3.4914   -0.9753 H       1  UNL1        0.0236
     43 H           0.0015   -4.1359   -1.6977 H       1  UNL1        0.0236
     44 H          -1.3153   -3.5952   -2.8070 H       1  UNL1        0.0236
     45 H           0.9427   -2.1786   -1.8254 H       1  UNL1        0.0358
     46 H          -1.1217   -2.0595   -3.8824 H       1  UNL1        0.0236
     47 H           0.4942   -1.3526   -3.8385 H       1  UNL1        0.0236
     48 H          -0.9586   -0.4082   -3.2334 H       1  UNL1        0.0236
     49 H          -4.0407    0.9341   -0.5096 H       1  UNL1        0.1551
     50 H          -6.1430    1.8941   -0.8852 H       1  UNL1        0.0636
     51 H          -8.2715    1.9475   -1.9867 H       1  UNL1        0.0618
     52 H          -8.8745    0.3048   -3.6239 H       1  UNL1        0.0618
     53 H          -7.2658   -1.5259   -4.2239 H       1  UNL1        0.0618
     54 H          -5.1467   -1.5657   -3.1133 H       1  UNL1        0.0636
     55 H           1.9031   -1.1950    1.4672 H       1  UNL1        0.0493
     56 H           1.8230   -2.2016    0.0220 H       1  UNL1        0.0493
     57 H           2.5002   -0.2488   -1.3957 H       1  UNL1        0.0307
     58 H           2.5336    0.7830    0.1127 H       1  UNL1        0.0307
     59 H           4.0834   -0.8113    1.1038 H       1  UNL1        0.0594
     60 H           3.9059   -2.1135   -1.4589 H       1  UNL1        0.2098
     61 H           4.9899    0.4523   -1.5596 H       1  UNL1        0.0315
     62 H           4.9543    1.1755    0.0635 H       1  UNL1        0.0315
     63 H           6.6243   -0.4495    0.8795 H       1  UNL1        0.0599
     64 H           6.5608   -1.3206   -1.8157 H       1  UNL1        0.2098
     65 H           7.2458    1.7438   -0.1252 H       1  UNL1        0.0403
     66 H           7.2835    0.9367   -1.7349 H       1  UNL1        0.0403
     67 H          10.8291    0.4053   -0.7762 H       1  UNL1        0.2951
     68 H           1.1432    2.2712    1.3686 H       1  UNL1        0.0625
     69 H           2.0563    3.1727    3.4709 H       1  UNL1        0.0646
     70 H           0.3336    0.0109    5.7005 H       1  UNL1        0.0646
     71 H          -0.6261   -0.9614    3.5952 H       1  UNL1        0.0625
     72 H          -1.8826    2.8760    0.9095 H       1  UNL1        0.0624
     73 H          -3.5409    4.0631    2.3745 H       1  UNL1        0.0618
     74 H          -5.1706    2.7873    3.7151 H       1  UNL1        0.0618
     75 H          -5.1534    0.2916    3.6002 H       1  UNL1        0.0618
     76 H          -3.5478   -0.7931    2.1846 H       1  UNL1        0.0624
@<TRIPOS>BOND
     1     1     2    1
     2     2     3    1
     3     2     4    1
     4     4     5   ar
     5     5     6    1
     6     6     7    2
     7     6     8   am
     8     8     9    1
     9     9    10   ar
    10    10    11   ar
    11    11    12   ar
    12    12    13   ar
    13    13    14   ar
    14     5    15   ar
    15    15    16   ar
    16    16    17   ar
    17    17    18    1
    18    18    19    1
    19    19    20    1
    20    20    21    1
    21    20    22    1
    22    22    23    1
    23    23    24    1
    24    23    25    1
    25    25    26    1
    26    26    27    1
    27    26    28    2
    28    16    29    1
    29    29    30   ar
    30    30    31   ar
    31    31    32   ar
    32    32    33    1
    33    32    34   ar
    34    34    35   ar
    35    15    36    1
    36    36    37   ar
    37    37    38   ar
    38    38    39   ar
    39    39    40   ar
    40    40    41   ar
    41    17     4   ar
    42    35    29   ar
    43    41    36   ar
    44    14     9   ar
    45     1    42    1
    46     1    43    1
    47     1    44    1
    48     2    45    1
    49     3    46    1
    50     3    47    1
    51     3    48    1
    52     8    49    1
    53    10    50    1
    54    11    51    1
    55    12    52    1
    56    13    53    1
    57    14    54    1
    58    18    55    1
    59    18    56    1
    60    19    57    1
    61    19    58    1
    62    20    59    1
    63    21    60    1
    64    22    61    1
    65    22    62    1
    66    23    63    1
    67    24    64    1
    68    25    65    1
    69    25    66    1
    70    27    67    1
    71    30    68    1
    72    31    69    1
    73    34    70    1
    74    35    71    1
    75    37    72    1
    76    38    73    1
    77    39    74    1
    78    40    75    1
    79    41    76    1
