@<TRIPOS>MOLECULE
*****
 61 63 0 0 0
SMALL
GASTEIGER

@<TRIPOS>ATOM
      1 C          -5.1020   -1.1182   -2.8045 C.3     1  UNL1        0.0788
      2 O          -4.7203   -0.4038   -1.6706 O.3     1  UNL1       -0.4943
      3 C          -5.5651    0.3239   -0.8781 C.ar    1  UNL1        0.1340
      4 C          -6.9149    0.3392   -1.2502 C.ar    1  UNL1        0.0029
      5 C          -7.8301    1.0436   -0.5106 C.ar    1  UNL1        0.0466
      6 N          -9.2072    1.0842   -0.8524 N.pl3   1  UNL1       -0.3567
      7 C          -7.3578    1.7247    0.6007 C.ar    1  UNL1        0.0625
      8 CL         -8.5309    2.6156    1.5368 Cl      1  UNL1       -0.0816
      9 C          -6.0383    1.7055    0.9581 C.ar    1  UNL1       -0.0259
     10 C          -5.0724    0.9881    0.2149 C.ar    1  UNL1        0.0797
     11 C          -3.6987    1.0176    0.6547 C.2     1  UNL1        0.2479
     12 O          -3.4267    1.6857    1.6937 O.2     1  UNL1       -0.2701
     13 N          -2.6391    0.3813    0.0475 N.am    1  UNL1       -0.3058
     14 C          -1.2605    0.4161    0.5034 C.3     1  UNL1        0.0519
     15 C          -0.4873    1.2539   -0.4822 C.3     1  UNL1       -0.0192
     16 C           0.8631    1.5787    0.1677 C.3     1  UNL1        0.0007
     17 N           1.4645    0.3450    0.5184 N.3     1  UNL1       -0.2996
     18 C           2.8649    0.3146    0.6833 C.3     1  UNL1        0.0021
     19 C           3.4282   -1.0343    1.0201 C.3     1  UNL1       -0.0058
     20 C           4.9282   -0.8932    1.1745 C.3     1  UNL1        0.0907
     21 O           5.4290   -0.4221   -0.0735 O.3     1  UNL1       -0.4919
     22 C           6.7921   -0.1978   -0.2535 C.ar    1  UNL1        0.1207
     23 C           7.6615   -0.4360    0.7891 C.ar    1  UNL1       -0.0172
     24 C           8.9997   -0.2019    0.5660 C.ar    1  UNL1       -0.0230
     25 C           9.4231    0.2540   -0.6655 C.ar    1  UNL1        0.1236
     26 F          10.7311    0.4924   -0.9140 F       1  UNL1       -0.2055
     27 C           8.5253    0.4857   -1.6989 C.ar    1  UNL1       -0.0230
     28 C           7.1932    0.2571   -1.4910 C.ar    1  UNL1       -0.0172
     29 C           0.7961   -0.8388    0.1279 C.3     1  UNL1        0.0269
     30 C          -0.6122   -0.8741    0.6871 C.3     1  UNL1        0.0893
     31 O          -0.6245   -1.3784    1.9804 O.3     1  UNL1       -0.3767
     32 C          -1.2366   -2.5768    2.1606 C.3     1  UNL1        0.0369
     33 H          -6.0043   -1.7629   -2.6297 H       1  UNL1        0.0660
     34 H          -5.4310   -0.3654   -3.5808 H       1  UNL1        0.0660
     35 H          -4.2765   -1.6984   -3.2571 H       1  UNL1        0.0660
     36 H          -7.2593   -0.1983   -2.1215 H       1  UNL1        0.0673
     37 H          -9.8667    1.6237   -0.2523 H       1  UNL1        0.1424
     38 H          -9.5084    0.5660   -1.7016 H       1  UNL1        0.1424
     39 H          -5.7236    2.2580    1.8366 H       1  UNL1        0.0641
     40 H          -2.7599   -0.1875   -0.8098 H       1  UNL1        0.1494
     41 H          -1.2868    1.0486    1.4397 H       1  UNL1        0.0525
     42 H          -1.0322    2.2011   -0.7145 H       1  UNL1        0.0296
     43 H          -0.2650    0.6979   -1.4126 H       1  UNL1        0.0296
     44 H           1.4788    2.2042   -0.5125 H       1  UNL1        0.0427
     45 H           0.6228    2.1469    1.0990 H       1  UNL1        0.0427
     46 H           3.1632    1.0243    1.5008 H       1  UNL1        0.0428
     47 H           3.3749    0.7089   -0.2258 H       1  UNL1        0.0428
     48 H           2.9951   -1.4670    1.9421 H       1  UNL1        0.0310
     49 H           3.3006   -1.7336    0.1377 H       1  UNL1        0.0310
     50 H           5.3935   -1.8757    1.3850 H       1  UNL1        0.0697
     51 H           5.2144   -0.1797    1.9739 H       1  UNL1        0.0697
     52 H           7.3175   -0.7919    1.7484 H       1  UNL1        0.0655
     53 H           9.7274   -0.3734    1.3502 H       1  UNL1        0.0647
     54 H           8.8406    0.8420   -2.6669 H       1  UNL1        0.0647
     55 H           6.4879    0.4317   -2.2818 H       1  UNL1        0.0655
     56 H           0.8215   -0.9179   -0.9916 H       1  UNL1        0.0452
     57 H           1.3272   -1.7110    0.5855 H       1  UNL1        0.0452
     58 H          -1.1491   -1.6354    0.0649 H       1  UNL1        0.0627
     59 H          -0.8376   -3.4235    1.6072 H       1  UNL1        0.0524
     60 H          -2.3458   -2.5178    2.0475 H       1  UNL1        0.0524
     61 H          -1.0944   -2.8456    3.2508 H       1  UNL1        0.0524
@<TRIPOS>BOND
     1     1     2    1
     2     2     3    1
     3     3     4   ar
     4     4     5   ar
     5     5     6    1
     6     5     7   ar
     7     7     8    1
     8     7     9   ar
     9     9    10   ar
    10    10    11    1
    11    11    12    2
    12    11    13   am
    13    13    14    1
    14    14    15    1
    15    15    16    1
    16    16    17    1
    17    17    18    1
    18    18    19    1
    19    19    20    1
    20    20    21    1
    21    21    22    1
    22    22    23   ar
    23    23    24   ar
    24    24    25   ar
    25    25    26    1
    26    25    27   ar
    27    27    28   ar
    28    17    29    1
    29    29    30    1
    30    30    31    1
    31    31    32    1
    32    10     3   ar
    33    30    14    1
    34    28    22   ar
    35     1    33    1
    36     1    34    1
    37     1    35    1
    38     4    36    1
    39     6    37    1
    40     6    38    1
    41     9    39    1
    42    13    40    1
    43    14    41    1
    44    15    42    1
    45    15    43    1
    46    16    44    1
    47    16    45    1
    48    18    46    1
    49    18    47    1
    50    19    48    1
    51    19    49    1
    52    20    50    1
    53    20    51    1
    54    23    52    1
    55    24    53    1
    56    27    54    1
    57    28    55    1
    58    29    56    1
    59    29    57    1
    60    30    58    1
    61    32    59    1
    62    32    60    1
    63    32    61    1
