
     RDKit          3D

 61 63  0  0  0  0  0  0  0  0999 V2000
   -5.1020   -1.1182   -2.8045 C   0  0  0  0  0  0  0  0  0  0  0  0
   -4.7203   -0.4038   -1.6706 O   0  0  0  0  0  0  0  0  0  0  0  0
   -5.5651    0.3239   -0.8781 C   0  0  0  0  0  0  0  0  0  0  0  0
   -6.9149    0.3392   -1.2502 C   0  0  0  0  0  0  0  0  0  0  0  0
   -7.8301    1.0436   -0.5106 C   0  0  0  0  0  0  0  0  0  0  0  0
   -9.2072    1.0842   -0.8524 N   0  0  0  0  0  0  0  0  0  0  0  0
   -7.3578    1.7247    0.6007 C   0  0  0  0  0  0  0  0  0  0  0  0
   -8.5309    2.6156    1.5368 Cl  0  0  0  0  0  0  0  0  0  0  0  0
   -6.0383    1.7055    0.9581 C   0  0  0  0  0  0  0  0  0  0  0  0
   -5.0724    0.9881    0.2149 C   0  0  0  0  0  0  0  0  0  0  0  0
   -3.6987    1.0176    0.6547 C   0  0  0  0  0  0  0  0  0  0  0  0
   -3.4267    1.6857    1.6937 O   0  0  0  0  0  0  0  0  0  0  0  0
   -2.6391    0.3813    0.0475 N   0  0  0  0  0  0  0  0  0  0  0  0
   -1.2605    0.4161    0.5034 C   0  0  0  0  0  0  0  0  0  0  0  0
   -0.4873    1.2539   -0.4822 C   0  0  0  0  0  0  0  0  0  0  0  0
    0.8631    1.5787    0.1677 C   0  0  0  0  0  0  0  0  0  0  0  0
    1.4645    0.3450    0.5184 N   0  0  0  0  0  0  0  0  0  0  0  0
    2.8649    0.3146    0.6833 C   0  0  0  0  0  0  0  0  0  0  0  0
    3.4282   -1.0343    1.0201 C   0  0  0  0  0  0  0  0  0  0  0  0
    4.9282   -0.8932    1.1745 C   0  0  0  0  0  0  0  0  0  0  0  0
    5.4290   -0.4221   -0.0735 O   0  0  0  0  0  0  0  0  0  0  0  0
    6.7921   -0.1978   -0.2535 C   0  0  0  0  0  0  0  0  0  0  0  0
    7.6615   -0.4360    0.7891 C   0  0  0  0  0  0  0  0  0  0  0  0
    8.9997   -0.2019    0.5660 C   0  0  0  0  0  0  0  0  0  0  0  0
    9.4231    0.2540   -0.6655 C   0  0  0  0  0  0  0  0  0  0  0  0
   10.7311    0.4924   -0.9140 F   0  0  0  0  0  0  0  0  0  0  0  0
    8.5253    0.4857   -1.6989 C   0  0  0  0  0  0  0  0  0  0  0  0
    7.1932    0.2571   -1.4910 C   0  0  0  0  0  0  0  0  0  0  0  0
    0.7961   -0.8388    0.1279 C   0  0  0  0  0  0  0  0  0  0  0  0
   -0.6122   -0.8741    0.6871 C   0  0  0  0  0  0  0  0  0  0  0  0
   -0.6245   -1.3784    1.9804 O   0  0  0  0  0  0  0  0  0  0  0  0
   -1.2366   -2.5768    2.1606 C   0  0  0  0  0  0  0  0  0  0  0  0
   -6.0043   -1.7629   -2.6297 H   0  0  0  0  0  0  0  0  0  0  0  0
   -5.4310   -0.3654   -3.5808 H   0  0  0  0  0  0  0  0  0  0  0  0
   -4.2765   -1.6984   -3.2571 H   0  0  0  0  0  0  0  0  0  0  0  0
   -7.2593   -0.1983   -2.1215 H   0  0  0  0  0  0  0  0  0  0  0  0
   -9.8667    1.6237   -0.2523 H   0  0  0  0  0  0  0  0  0  0  0  0
   -9.5084    0.5660   -1.7016 H   0  0  0  0  0  0  0  0  0  0  0  0
   -5.7236    2.2580    1.8366 H   0  0  0  0  0  0  0  0  0  0  0  0
   -2.7599   -0.1875   -0.8098 H   0  0  0  0  0  0  0  0  0  0  0  0
   -1.2868    1.0486    1.4397 H   0  0  0  0  0  0  0  0  0  0  0  0
   -1.0322    2.2011   -0.7145 H   0  0  0  0  0  0  0  0  0  0  0  0
   -0.2650    0.6979   -1.4126 H   0  0  0  0  0  0  0  0  0  0  0  0
    1.4788    2.2042   -0.5125 H   0  0  0  0  0  0  0  0  0  0  0  0
    0.6228    2.1469    1.0990 H   0  0  0  0  0  0  0  0  0  0  0  0
    3.1632    1.0243    1.5008 H   0  0  0  0  0  0  0  0  0  0  0  0
    3.3749    0.7089   -0.2258 H   0  0  0  0  0  0  0  0  0  0  0  0
    2.9951   -1.4670    1.9421 H   0  0  0  0  0  0  0  0  0  0  0  0
    3.3006   -1.7336    0.1377 H   0  0  0  0  0  0  0  0  0  0  0  0
    5.3935   -1.8757    1.3850 H   0  0  0  0  0  0  0  0  0  0  0  0
    5.2144   -0.1797    1.9739 H   0  0  0  0  0  0  0  0  0  0  0  0
    7.3175   -0.7919    1.7484 H   0  0  0  0  0  0  0  0  0  0  0  0
    9.7274   -0.3734    1.3502 H   0  0  0  0  0  0  0  0  0  0  0  0
    8.8406    0.8420   -2.6669 H   0  0  0  0  0  0  0  0  0  0  0  0
    6.4879    0.4317   -2.2818 H   0  0  0  0  0  0  0  0  0  0  0  0
    0.8215   -0.9179   -0.9916 H   0  0  0  0  0  0  0  0  0  0  0  0
    1.3272   -1.7110    0.5855 H   0  0  0  0  0  0  0  0  0  0  0  0
   -1.1491   -1.6354    0.0649 H   0  0  0  0  0  0  0  0  0  0  0  0
   -0.8376   -3.4235    1.6072 H   0  0  0  0  0  0  0  0  0  0  0  0
   -2.3458   -2.5178    2.0475 H   0  0  0  0  0  0  0  0  0  0  0  0
   -1.0944   -2.8456    3.2508 H   0  0  0  0  0  0  0  0  0  0  0  0
  1  2  1  0
  2  3  1  0
  3  4  2  0
  4  5  1  0
  5  6  1  0
  5  7  2  0
  7  8  1  0
  7  9  1  0
  9 10  2  0
 10 11  1  0
 11 12  2  0
 11 13  1  0
 13 14  1  0
 14 15  1  0
 15 16  1  0
 16 17  1  0
 17 18  1  0
 18 19  1  0
 19 20  1  0
 20 21  1  0
 21 22  1  0
 22 23  2  0
 23 24  1  0
 24 25  2  0
 25 26  1  0
 25 27  1  0
 27 28  2  0
 17 29  1  0
 29 30  1  0
 30 31  1  0
 31 32  1  0
 10  3  1  0
 30 14  1  0
 28 22  1  0
  1 33  1  0
  1 34  1  0
  1 35  1  0
  4 36  1  0
  6 37  1  0
  6 38  1  0
  9 39  1  0
 13 40  1  0
 14 41  1  0
 15 42  1  0
 15 43  1  0
 16 44  1  0
 16 45  1  0
 18 46  1  0
 18 47  1  0
 19 48  1  0
 19 49  1  0
 20 50  1  0
 20 51  1  0
 23 52  1  0
 24 53  1  0
 27 54  1  0
 28 55  1  0
 29 56  1  0
 29 57  1  0
 30 58  1  0
 32 59  1  0
 32 60  1  0
 32 61  1  0
M  END
$$$$
