@<TRIPOS>MOLECULE
*****
 37 40 0 0 0
SMALL
GASTEIGER

@<TRIPOS>ATOM
      1 O          -0.0788   -0.4930    0.5595 O.2     1  UNL1       -0.2751
      2 C          -0.2039   -0.0773   -0.6164 C.2     1  UNL1        0.2219
      3 C           0.8376    0.8262   -1.1488 C.3     1  UNL1        0.0500
      4 C           1.9196    1.1144   -0.2068 C.ar    1  UNL1       -0.0295
      5 C           1.9924    2.3191    0.4579 C.ar    1  UNL1       -0.0574
      6 C           3.0225    2.5540    1.3339 C.ar    1  UNL1       -0.0594
      7 C           3.9751    1.5819    1.5410 C.ar    1  UNL1       -0.0357
      8 C           3.9204    0.3709    0.8864 C.ar    1  UNL1        0.0712
      9 N           4.8691   -0.5660    1.1065 N.ar    1  UNL1       -0.2550
     10 C           4.8120   -1.7595    0.4573 C.ar    1  UNL1        0.0283
     11 C           3.7715   -1.9896   -0.4241 C.ar    1  UNL1       -0.0430
     12 C           2.7806   -1.0597   -0.6788 C.ar    1  UNL1       -0.0509
     13 C           2.8729    0.1362   -0.0025 C.ar    1  UNL1        0.0040
     14 N          -1.3190   -0.4857   -1.3684 N.am    1  UNL1       -0.2791
     15 C          -2.2709   -1.3526   -0.7794 C.ar    1  UNL1        0.0839
     16 S          -2.0579   -3.1570   -0.7868 S.2     1  UNL1       -0.0797
     17 C          -3.6052   -3.4597    0.0983 C.ar    1  UNL1       -0.0035
     18 C          -4.1343   -2.2039    0.3163 C.ar    1  UNL1        0.0605
     19 CL         -5.7125   -2.0938    1.1950 Cl      1  UNL1       -0.0822
     20 C          -3.4375   -1.1482   -0.1398 C.ar    1  UNL1        0.0658
     21 C          -3.9479    0.2464    0.0240 C.ar    1  UNL1        0.1652
     22 N          -5.0778    0.6125    0.6364 N.ar    1  UNL1       -0.1295
     23 N          -5.2449    1.9174    0.5960 N.ar    1  UNL1       -0.1377
     24 C          -4.2019    2.4316   -0.0584 C.ar    1  UNL1        0.1175
     25 N          -3.4096    1.3893   -0.4058 N.ar    1  UNL1       -0.3276
     26 H           1.1845    0.4864   -2.1429 H       1  UNL1        0.0407
     27 H           0.3093    1.8023   -1.3637 H       1  UNL1        0.0407
     28 H           1.2402    3.0781    0.2908 H       1  UNL1        0.0621
     29 H           3.0719    3.5216    1.8600 H       1  UNL1        0.0618
     30 H           4.7992    1.7630    2.2382 H       1  UNL1        0.0639
     31 H           5.5838   -2.4663    0.6645 H       1  UNL1        0.0830
     32 H           3.7327   -2.9513   -0.9425 H       1  UNL1        0.0633
     33 H           1.9625   -1.2270   -1.3655 H       1  UNL1        0.0625
     34 H          -1.4510   -0.1655   -2.3339 H       1  UNL1        0.1553
     35 H          -3.9610   -4.4764    0.3605 H       1  UNL1        0.0709
     36 H          -4.0228    3.4901   -0.2717 H       1  UNL1        0.1046
     37 H          -2.5212    1.4911   -0.9348 H       1  UNL1        0.1683
@<TRIPOS>BOND
     1     1     2    2
     2     2     3    1
     3     3     4    1
     4     4     5   ar
     5     5     6   ar
     6     6     7   ar
     7     7     8   ar
     8     8     9   ar
     9     9    10   ar
    10    10    11   ar
    11    11    12   ar
    12    12    13   ar
    13     2    14   am
    14    14    15    1
    15    15    16   ar
    16    16    17   ar
    17    17    18   ar
    18    18    19    1
    19    18    20   ar
    20    20    21    1
    21    21    22   ar
    22    22    23   ar
    23    23    24   ar
    24    24    25   ar
    25    13     4   ar
    26    20    15   ar
    27    25    21   ar
    28    13     8   ar
    29     3    26    1
    30     3    27    1
    31     5    28    1
    32     6    29    1
    33     7    30    1
    34    10    31    1
    35    11    32    1
    36    12    33    1
    37    14    34    1
    38    17    35    1
    39    24    36    1
    40    25    37    1
