
     RDKit          3D

 37 38  0  0  0  0  0  0  0  0999 V2000
   -6.5688   -1.9984    1.1950 O   0  0  0  0  0  0  0  0  0  0  0  0
   -5.4569   -1.5760    1.8827 C   0  0  0  0  0  0  0  0  0  0  0  0
   -5.8412   -1.1900    3.0116 O   0  0  0  0  0  0  0  0  0  0  0  0
   -4.0626   -1.5314    1.5015 C   0  0  0  0  0  0  0  0  0  0  0  0
   -3.2040   -1.0235    2.4350 C   0  0  0  0  0  0  0  0  0  0  0  0
   -1.8443   -0.8734    2.3168 C   0  0  0  0  0  0  0  0  0  0  0  0
   -1.3413   -1.3059    1.0762 C   0  0  0  0  0  0  0  0  0  0  0  0
    0.0733   -1.1547    0.8263 N   0  0  0  0  0  0  0  0  0  0  0  0
    0.1885    0.1111    0.2165 C   0  0  0  0  0  0  0  0  0  0  0  0
   -0.6006    1.0676   -0.1330 O   0  0  0  0  0  0  0  0  0  0  0  0
    1.5883    0.1860   -0.0028 N   0  0  0  0  0  0  0  0  0  0  0  0
    2.0316    1.4511   -0.6699 C   0  0  0  0  0  0  0  0  0  0  0  0
    1.1605    2.3175   -0.9706 O   0  0  0  0  0  0  0  0  0  0  0  0
    3.1774    2.2371   -1.2007 C   0  0  0  0  0  0  0  0  0  0  0  0
    3.4262    2.3564   -2.5400 C   0  0  0  0  0  0  0  0  0  0  0  0
    4.5501    3.0870   -2.9044 C   0  0  0  0  0  0  0  0  0  0  0  0
    4.8773    3.2617   -4.2099 F   0  0  0  0  0  0  0  0  0  0  0  0
    5.3074    3.6238   -1.9015 C   0  0  0  0  0  0  0  0  0  0  0  0
    6.4255    4.3503   -2.1953 F   0  0  0  0  0  0  0  0  0  0  0  0
    5.0628    3.5092   -0.5490 C   0  0  0  0  0  0  0  0  0  0  0  0
    3.9429    2.7797   -0.1911 C   0  0  0  0  0  0  0  0  0  0  0  0
    3.5896    2.6053    1.5169 Cl  0  0  0  0  0  0  0  0  0  0  0  0
   -2.1909   -1.8224    0.1208 C   0  0  0  0  0  0  0  0  0  0  0  0
   -1.6344   -2.2456   -1.1031 O   0  0  0  0  0  0  0  0  0  0  0  0
   -1.2313   -3.6041   -1.1788 C   0  0  0  0  0  0  0  0  0  0  0  0
   -2.3961   -4.3405   -0.9666 F   0  0  0  0  0  0  0  0  0  0  0  0
   -0.7363   -3.9233   -2.4135 F   0  0  0  0  0  0  0  0  0  0  0  0
   -0.2998   -3.8510   -0.1935 F   0  0  0  0  0  0  0  0  0  0  0  0
   -3.5316   -1.9475    0.2958 C   0  0  0  0  0  0  0  0  0  0  0  0
   -7.3434   -1.3667    0.9800 H   0  0  0  0  0  0  0  0  0  0  0  0
   -3.5711   -0.6744    3.4210 H   0  0  0  0  0  0  0  0  0  0  0  0
   -1.2011   -0.4658    3.0801 H   0  0  0  0  0  0  0  0  0  0  0  0
    0.8976   -1.7996    1.0272 H   0  0  0  0  0  0  0  0  0  0  0  0
    2.5329    0.2496   -0.1570 H   0  0  0  0  0  0  0  0  0  0  0  0
    2.7741    1.8978   -3.2777 H   0  0  0  0  0  0  0  0  0  0  0  0
    5.6843    3.9492    0.2320 H   0  0  0  0  0  0  0  0  0  0  0  0
   -4.2347   -2.3464   -0.4174 H   0  0  0  0  0  0  0  0  0  0  0  0
  1  2  1  0
  2  3  2  0
  2  4  1  0
  4  5  2  0
  5  6  1  0
  6  7  2  0
  7  8  1  0
  8  9  1  0
  9 10  2  0
  9 11  1  0
 11 12  1  0
 12 13  2  0
 12 14  1  0
 14 15  2  0
 15 16  1  0
 16 17  1  0
 16 18  2  0
 18 19  1  0
 18 20  1  0
 20 21  2  0
 21 22  1  0
  7 23  1  0
 23 24  1  0
 24 25  1  0
 25 26  1  0
 25 27  1  0
 25 28  1  0
 23 29  2  0
 29  4  1  0
 21 14  1  0
  1 30  1  0
  5 31  1  0
  6 32  1  0
  8 33  1  0
 11 34  1  0
 15 35  1  0
 20 36  1  0
 29 37  1  0
M  END
$$$$
