@<TRIPOS>MOLECULE
*****
 73 78 0 0 0
SMALL
GASTEIGER

@<TRIPOS>ATOM
      1 C          -1.5655    7.1275    3.5628 C.3     1  UNL1        0.0804
      2 O          -0.8059    6.0720    3.0082 O.3     1  UNL1       -0.4795
      3 C          -1.4796    5.0250    2.3914 C.ar    1  UNL1        0.2191
      4 C          -0.7117    4.0051    1.8571 C.ar    1  UNL1        0.0404
      5 C          -1.3211    2.9448    1.2358 C.ar    1  UNL1        0.1364
      6 N          -0.6019    1.8637    0.6641 N.am    1  UNL1       -0.2240
      7 C           0.7859    1.6613    0.6145 C.2     1  UNL1        0.3219
      8 O           1.7076    2.4573    0.9856 O.2     1  UNL1       -0.2512
      9 N           1.0974    0.3763    0.0649 N.am    1  UNL1       -0.1920
     10 C           2.3982   -0.1443   -0.1240 C.ar    1  UNL1        0.0455
     11 C           3.0159   -0.8781    0.8609 C.ar    1  UNL1       -0.0392
     12 C           4.3039   -1.3959    0.6836 C.ar    1  UNL1       -0.0522
     13 C           4.9942   -1.1836   -0.4912 C.ar    1  UNL1       -0.0150
     14 C           6.3399   -1.7228   -0.6783 C.ar    1  UNL1        0.0174
     15 C           7.3623   -0.9490   -1.2175 C.ar    1  UNL1       -0.0505
     16 C           8.6321   -1.4561   -1.3936 C.ar    1  UNL1       -0.0470
     17 C           8.9268   -2.7584   -1.0363 C.ar    1  UNL1        0.0616
     18 C          10.2647   -3.3190   -1.2126 C.2     1  UNL1        0.3369
     19 O          11.1603   -2.6023   -1.6975 O.2     1  UNL1       -0.2451
     20 O          10.5210   -4.6235   -0.8443 O.3     1  UNL1       -0.4771
     21 C           7.9353   -3.5396   -0.5031 C.ar    1  UNL1       -0.0119
     22 C           6.6773   -3.0118   -0.3371 C.ar    1  UNL1        0.1318
     23 F           5.7184   -3.8073    0.1920 F       1  UNL1       -0.2048
     24 C           4.3568   -0.4420   -1.4736 C.ar    1  UNL1       -0.0522
     25 C           3.0780    0.0724   -1.2981 C.ar    1  UNL1       -0.0392
     26 C          -0.1601   -0.2378   -0.2367 C.2     1  UNL1        0.2516
     27 O          -0.2588   -1.4228   -0.6378 O.2     1  UNL1       -0.2724
     28 C          -1.2384    0.7326    0.0017 C.3     1  UNL1        0.1240
     29 C          -2.2587    0.0725    0.8974 C.3     1  UNL1       -0.0095
     30 C          -3.6089   -0.0654    0.2924 C.3     1  UNL1        0.0017
     31 N          -3.6099   -0.5035   -1.0816 N.3     1  UNL1       -0.2965
     32 C          -4.9740   -0.2672   -1.5826 C.3     1  UNL1        0.0415
     33 C          -5.8644   -1.0874   -0.7107 C.ar    1  UNL1        0.0581
     34 N          -6.6125   -0.5146    0.2594 N.ar    1  UNL1       -0.2583
     35 C          -7.4273   -1.2207    1.0658 C.ar    1  UNL1        0.0279
     36 C          -7.5251   -2.5739    0.9239 C.ar    1  UNL1       -0.0433
     37 C          -6.7792   -3.2129   -0.0561 C.ar    1  UNL1       -0.0557
     38 C          -5.9442   -2.4477   -0.8746 C.ar    1  UNL1       -0.0279
     39 C          -5.1592   -3.1656   -1.9149 C.3     1  UNL1       -0.0380
     40 C          -2.7130    0.2043   -1.9317 C.3     1  UNL1        0.0017
     41 C          -1.8811    1.2359   -1.2505 C.3     1  UNL1       -0.0095
     42 N          -2.6642    2.9695    1.1869 N.ar    1  UNL1       -0.2200
     43 C          -3.4287    3.9428    1.6954 C.ar    1  UNL1        0.1219
     44 N          -2.8284    4.9805    2.3036 N.ar    1  UNL1       -0.2013
     45 H          -0.8147    7.9203    3.8457 H       1  UNL1        0.0660
     46 H          -2.0962    6.8342    4.4919 H       1  UNL1        0.0660
     47 H          -2.3025    7.5291    2.8315 H       1  UNL1        0.0660
     48 H           0.3565    4.0531    1.9343 H       1  UNL1        0.0705
     49 H           2.5218   -1.0806    1.8129 H       1  UNL1        0.0636
     50 H           4.7643   -1.9733    1.4851 H       1  UNL1        0.0624
     51 H           7.1774    0.0737   -1.5108 H       1  UNL1        0.0625
     52 H           9.4339   -0.8523   -1.8153 H       1  UNL1        0.0626
     53 H          11.4559   -5.0115   -0.7799 H       1  UNL1        0.2954
     54 H           8.1488   -4.5782   -0.2122 H       1  UNL1        0.0654
     55 H           4.9131   -0.2799   -2.4008 H       1  UNL1        0.0624
     56 H           2.6669    0.6391   -2.1262 H       1  UNL1        0.0636
     57 H          -1.9140   -0.9301    1.2578 H       1  UNL1        0.0303
     58 H          -2.3478    0.6944    1.8155 H       1  UNL1        0.0303
     59 H          -4.1483   -0.8735    0.8704 H       1  UNL1        0.0427
     60 H          -4.2535    0.8189    0.3609 H       1  UNL1        0.0427
     61 H          -5.0735   -0.4932   -2.6440 H       1  UNL1        0.0491
     62 H          -5.1798    0.8061   -1.3958 H       1  UNL1        0.0491
     63 H          -8.0222   -0.7397    1.8422 H       1  UNL1        0.0829
     64 H          -8.1674   -3.2020    1.5464 H       1  UNL1        0.0633
     65 H          -6.8296   -4.2880   -0.2003 H       1  UNL1        0.0621
     66 H          -5.7487   -4.0272   -2.3096 H       1  UNL1        0.0278
     67 H          -4.9295   -2.5262   -2.7813 H       1  UNL1        0.0278
     68 H          -4.1933   -3.4952   -1.4724 H       1  UNL1        0.0278
     69 H          -2.0352   -0.5357   -2.4323 H       1  UNL1        0.0427
     70 H          -3.2410    0.7119   -2.7917 H       1  UNL1        0.0427
     71 H          -2.4247    2.1821   -1.0590 H       1  UNL1        0.0303
     72 H          -1.0498    1.5127   -1.9580 H       1  UNL1        0.0303
     73 H          -4.5215    3.9206    1.6318 H       1  UNL1        0.1049
@<TRIPOS>BOND
     1     1     2    1
     2     2     3    1
     3     3     4   ar
     4     4     5   ar
     5     5     6    1
     6     6     7   am
     7     7     8    2
     8     7     9   am
     9     9    10    1
    10    10    11   ar
    11    11    12   ar
    12    12    13   ar
    13    13    14    1
    14    14    15   ar
    15    15    16   ar
    16    16    17   ar
    17    17    18    1
    18    18    19    2
    19    18    20    1
    20    17    21   ar
    21    21    22   ar
    22    22    23    1
    23    13    24   ar
    24    24    25   ar
    25     9    26   am
    26    26    27    2
    27    26    28    1
    28    28    29    1
    29    29    30    1
    30    30    31    1
    31    31    32    1
    32    32    33    1
    33    33    34   ar
    34    34    35   ar
    35    35    36   ar
    36    36    37   ar
    37    37    38   ar
    38    38    39    1
    39    31    40    1
    40    40    41    1
    41     5    42   ar
    42    42    43   ar
    43    43    44   ar
    44    44     3   ar
    45    28     6    1
    46    38    33   ar
    47    25    10   ar
    48    41    28    1
    49    22    14   ar
    50     1    45    1
    51     1    46    1
    52     1    47    1
    53     4    48    1
    54    11    49    1
    55    12    50    1
    56    15    51    1
    57    16    52    1
    58    20    53    1
    59    21    54    1
    60    24    55    1
    61    25    56    1
    62    29    57    1
    63    29    58    1
    64    30    59    1
    65    30    60    1
    66    32    61    1
    67    32    62    1
    68    35    63    1
    69    36    64    1
    70    37    65    1
    71    39    66    1
    72    39    67    1
    73    39    68    1
    74    40    69    1
    75    40    70    1
    76    41    71    1
    77    41    72    1
    78    43    73    1
