
     RDKit          3D

 73 78  0  0  0  0  0  0  0  0999 V2000
   -1.5655    7.1275    3.5628 C   0  0  0  0  0  0  0  0  0  0  0  0
   -0.8059    6.0720    3.0082 O   0  0  0  0  0  0  0  0  0  0  0  0
   -1.4796    5.0250    2.3914 C   0  0  0  0  0  0  0  0  0  0  0  0
   -0.7117    4.0051    1.8571 C   0  0  0  0  0  0  0  0  0  0  0  0
   -1.3211    2.9448    1.2358 C   0  0  0  0  0  0  0  0  0  0  0  0
   -0.6019    1.8637    0.6641 N   0  0  0  0  0  0  0  0  0  0  0  0
    0.7859    1.6613    0.6145 C   0  0  0  0  0  0  0  0  0  0  0  0
    1.7076    2.4573    0.9856 O   0  0  0  0  0  0  0  0  0  0  0  0
    1.0974    0.3763    0.0649 N   0  0  0  0  0  0  0  0  0  0  0  0
    2.3982   -0.1443   -0.1240 C   0  0  0  0  0  0  0  0  0  0  0  0
    3.0159   -0.8781    0.8609 C   0  0  0  0  0  0  0  0  0  0  0  0
    4.3039   -1.3959    0.6836 C   0  0  0  0  0  0  0  0  0  0  0  0
    4.9942   -1.1836   -0.4912 C   0  0  0  0  0  0  0  0  0  0  0  0
    6.3399   -1.7228   -0.6783 C   0  0  0  0  0  0  0  0  0  0  0  0
    7.3623   -0.9490   -1.2175 C   0  0  0  0  0  0  0  0  0  0  0  0
    8.6321   -1.4561   -1.3936 C   0  0  0  0  0  0  0  0  0  0  0  0
    8.9268   -2.7584   -1.0363 C   0  0  0  0  0  0  0  0  0  0  0  0
   10.2647   -3.3190   -1.2126 C   0  0  0  0  0  0  0  0  0  0  0  0
   11.1603   -2.6023   -1.6975 O   0  0  0  0  0  0  0  0  0  0  0  0
   10.5210   -4.6235   -0.8443 O   0  0  0  0  0  0  0  0  0  0  0  0
    7.9353   -3.5396   -0.5031 C   0  0  0  0  0  0  0  0  0  0  0  0
    6.6773   -3.0118   -0.3371 C   0  0  0  0  0  0  0  0  0  0  0  0
    5.7184   -3.8073    0.1920 F   0  0  0  0  0  0  0  0  0  0  0  0
    4.3568   -0.4420   -1.4736 C   0  0  0  0  0  0  0  0  0  0  0  0
    3.0780    0.0724   -1.2981 C   0  0  0  0  0  0  0  0  0  0  0  0
   -0.1601   -0.2378   -0.2367 C   0  0  0  0  0  0  0  0  0  0  0  0
   -0.2588   -1.4228   -0.6378 O   0  0  0  0  0  0  0  0  0  0  0  0
   -1.2384    0.7326    0.0017 C   0  0  0  0  0  0  0  0  0  0  0  0
   -2.2587    0.0725    0.8974 C   0  0  0  0  0  0  0  0  0  0  0  0
   -3.6089   -0.0654    0.2924 C   0  0  0  0  0  0  0  0  0  0  0  0
   -3.6099   -0.5035   -1.0816 N   0  0  0  0  0  0  0  0  0  0  0  0
   -4.9740   -0.2672   -1.5826 C   0  0  0  0  0  0  0  0  0  0  0  0
   -5.8644   -1.0874   -0.7107 C   0  0  0  0  0  0  0  0  0  0  0  0
   -6.6125   -0.5146    0.2594 N   0  0  0  0  0  0  0  0  0  0  0  0
   -7.4273   -1.2207    1.0658 C   0  0  0  0  0  0  0  0  0  0  0  0
   -7.5251   -2.5739    0.9239 C   0  0  0  0  0  0  0  0  0  0  0  0
   -6.7792   -3.2129   -0.0561 C   0  0  0  0  0  0  0  0  0  0  0  0
   -5.9442   -2.4477   -0.8746 C   0  0  0  0  0  0  0  0  0  0  0  0
   -5.1592   -3.1656   -1.9149 C   0  0  0  0  0  0  0  0  0  0  0  0
   -2.7130    0.2043   -1.9317 C   0  0  0  0  0  0  0  0  0  0  0  0
   -1.8811    1.2359   -1.2505 C   0  0  0  0  0  0  0  0  0  0  0  0
   -2.6642    2.9695    1.1869 N   0  0  0  0  0  0  0  0  0  0  0  0
   -3.4287    3.9428    1.6954 C   0  0  0  0  0  0  0  0  0  0  0  0
   -2.8284    4.9805    2.3036 N   0  0  0  0  0  0  0  0  0  0  0  0
   -0.8147    7.9203    3.8457 H   0  0  0  0  0  0  0  0  0  0  0  0
   -2.0962    6.8342    4.4919 H   0  0  0  0  0  0  0  0  0  0  0  0
   -2.3025    7.5291    2.8315 H   0  0  0  0  0  0  0  0  0  0  0  0
    0.3565    4.0531    1.9343 H   0  0  0  0  0  0  0  0  0  0  0  0
    2.5218   -1.0806    1.8129 H   0  0  0  0  0  0  0  0  0  0  0  0
    4.7643   -1.9733    1.4851 H   0  0  0  0  0  0  0  0  0  0  0  0
    7.1774    0.0737   -1.5108 H   0  0  0  0  0  0  0  0  0  0  0  0
    9.4339   -0.8523   -1.8153 H   0  0  0  0  0  0  0  0  0  0  0  0
   11.4559   -5.0115   -0.7799 H   0  0  0  0  0  0  0  0  0  0  0  0
    8.1488   -4.5782   -0.2122 H   0  0  0  0  0  0  0  0  0  0  0  0
    4.9131   -0.2799   -2.4008 H   0  0  0  0  0  0  0  0  0  0  0  0
    2.6669    0.6391   -2.1262 H   0  0  0  0  0  0  0  0  0  0  0  0
   -1.9140   -0.9301    1.2578 H   0  0  0  0  0  0  0  0  0  0  0  0
   -2.3478    0.6944    1.8155 H   0  0  0  0  0  0  0  0  0  0  0  0
   -4.1483   -0.8735    0.8704 H   0  0  0  0  0  0  0  0  0  0  0  0
   -4.2535    0.8189    0.3609 H   0  0  0  0  0  0  0  0  0  0  0  0
   -5.0735   -0.4932   -2.6440 H   0  0  0  0  0  0  0  0  0  0  0  0
   -5.1798    0.8061   -1.3958 H   0  0  0  0  0  0  0  0  0  0  0  0
   -8.0222   -0.7397    1.8422 H   0  0  0  0  0  0  0  0  0  0  0  0
   -8.1674   -3.2020    1.5464 H   0  0  0  0  0  0  0  0  0  0  0  0
   -6.8296   -4.2880   -0.2003 H   0  0  0  0  0  0  0  0  0  0  0  0
   -5.7487   -4.0272   -2.3096 H   0  0  0  0  0  0  0  0  0  0  0  0
   -4.9295   -2.5262   -2.7813 H   0  0  0  0  0  0  0  0  0  0  0  0
   -4.1933   -3.4952   -1.4724 H   0  0  0  0  0  0  0  0  0  0  0  0
   -2.0352   -0.5357   -2.4323 H   0  0  0  0  0  0  0  0  0  0  0  0
   -3.2410    0.7119   -2.7917 H   0  0  0  0  0  0  0  0  0  0  0  0
   -2.4247    2.1821   -1.0590 H   0  0  0  0  0  0  0  0  0  0  0  0
   -1.0498    1.5127   -1.9580 H   0  0  0  0  0  0  0  0  0  0  0  0
   -4.5215    3.9206    1.6318 H   0  0  0  0  0  0  0  0  0  0  0  0
  1  2  1  0
  2  3  1  0
  3  4  2  0
  4  5  1  0
  5  6  1  0
  6  7  1  0
  7  8  2  0
  7  9  1  0
  9 10  1  0
 10 11  2  0
 11 12  1  0
 12 13  2  0
 13 14  1  0
 14 15  2  0
 15 16  1  0
 16 17  2  0
 17 18  1  0
 18 19  2  0
 18 20  1  0
 17 21  1  0
 21 22  2  0
 22 23  1  0
 13 24  1  0
 24 25  2  0
  9 26  1  0
 26 27  2  0
 26 28  1  0
 28 29  1  0
 29 30  1  0
 30 31  1  0
 31 32  1  0
 32 33  1  0
 33 34  2  0
 34 35  1  0
 35 36  2  0
 36 37  1  0
 37 38  2  0
 38 39  1  0
 31 40  1  0
 40 41  1  0
  5 42  2  0
 42 43  1  0
 43 44  2  0
 44  3  1  0
 28  6  1  0
 38 33  1  0
 25 10  1  0
 41 28  1  0
 22 14  1  0
  1 45  1  0
  1 46  1  0
  1 47  1  0
  4 48  1  0
 11 49  1  0
 12 50  1  0
 15 51  1  0
 16 52  1  0
 20 53  1  0
 21 54  1  0
 24 55  1  0
 25 56  1  0
 29 57  1  0
 29 58  1  0
 30 59  1  0
 30 60  1  0
 32 61  1  0
 32 62  1  0
 35 63  1  0
 36 64  1  0
 37 65  1  0
 39 66  1  0
 39 67  1  0
 39 68  1  0
 40 69  1  0
 40 70  1  0
 41 71  1  0
 41 72  1  0
 43 73  1  0
M  END
$$$$
