@<TRIPOS>MOLECULE
*****
 41 45 0 0 0
SMALL
GASTEIGER

@<TRIPOS>ATOM
      1 O           1.6274    3.0473   -2.2164 O.2     1  UNL1       -0.2656
      2 C           0.9951    2.1780   -1.5667 C.ar    1  UNL1        0.2748
      3 N          -0.3439    2.1614   -1.4962 N.ar    1  UNL1       -0.3203
      4 C          -0.9631    1.1948   -0.7774 C.ar    1  UNL1        0.0519
      5 C          -2.3252    1.1601   -0.6931 C.ar    1  UNL1       -0.0299
      6 C          -3.0172    0.1908    0.0309 C.ar    1  UNL1       -0.0145
      7 C          -4.4761    0.2075    0.0877 C.ar    1  UNL1        0.0005
      8 C          -5.1721    1.3870    0.3487 C.ar    1  UNL1       -0.0526
      9 C          -6.5472    1.3564    0.3972 C.ar    1  UNL1       -0.0611
     10 C          -7.2737    0.2054    0.1982 C.ar    1  UNL1       -0.0603
     11 C          -6.5958   -0.9662   -0.0606 C.ar    1  UNL1       -0.0428
     12 C          -5.2146   -0.9394   -0.1101 C.ar    1  UNL1        0.0487
     13 CL         -4.3610   -2.4490   -0.4485 Cl      1  UNL1       -0.0829
     14 C          -2.2532   -0.7542    0.6740 C.ar    1  UNL1       -0.0532
     15 C          -0.8596   -0.7600    0.6171 C.ar    1  UNL1       -0.0499
     16 C          -0.2382    0.2247   -0.1149 C.ar    1  UNL1        0.0260
     17 C           1.1520    0.2129   -0.1672 C.ar    1  UNL1        0.1039
     18 N           2.1104   -0.5680    0.3497 N.ar    1  UNL1       -0.2268
     19 C           3.3321   -0.0965   -0.0412 C.ar    1  UNL1        0.1436
     20 C           4.6225   -0.6755    0.3167 C.ar    1  UNL1        0.0707
     21 C           5.8347   -0.1824   -0.0893 C.ar    1  UNL1        0.1354
     22 F           5.8710    0.9086   -0.8716 F       1  UNL1       -0.2047
     23 C           7.0411   -0.7860    0.2899 C.ar    1  UNL1       -0.0257
     24 C           7.0548   -1.9042    1.0896 C.ar    1  UNL1       -0.0576
     25 C           5.8423   -2.4081    1.5032 C.ar    1  UNL1       -0.0425
     26 C           4.6522   -1.8147    1.1307 C.ar    1  UNL1        0.0544
     27 CL          3.1291   -2.4722    1.6679 Cl      1  UNL1       -0.0827
     28 N           3.0875    0.9782   -0.7996 N.ar    1  UNL1       -0.3335
     29 C           1.7462    1.2063   -0.9041 C.ar    1  UNL1        0.1322
     30 H          -0.9203    2.8959   -1.9966 H       1  UNL1        0.1690
     31 H          -2.8905    1.9151   -1.2086 H       1  UNL1        0.0644
     32 H          -4.5927    2.2808    0.5027 H       1  UNL1        0.0624
     33 H          -7.1055    2.2670    0.5995 H       1  UNL1        0.0618
     34 H          -8.3649    0.2107    0.2425 H       1  UNL1        0.0618
     35 H          -7.1317   -1.8929   -0.2228 H       1  UNL1        0.0632
     36 H          -2.7232   -1.5304    1.2533 H       1  UNL1        0.0624
     37 H          -0.3041   -1.5256    1.1407 H       1  UNL1        0.0625
     38 H           7.9869   -0.3719   -0.0478 H       1  UNL1        0.0646
     39 H           7.9574   -2.4067    1.4096 H       1  UNL1        0.0619
     40 H           5.8376   -3.2940    2.1374 H       1  UNL1        0.0632
     41 H           3.7935    1.6092   -1.2820 H       1  UNL1        0.1675
@<TRIPOS>BOND
     1     1     2    2
     2     2     3   ar
     3     3     4   ar
     4     4     5   ar
     5     5     6   ar
     6     6     7    1
     7     7     8   ar
     8     8     9   ar
     9     9    10   ar
    10    10    11   ar
    11    11    12   ar
    12    12    13    1
    13     6    14   ar
    14    14    15   ar
    15    15    16   ar
    16    16    17   ar
    17    17    18   ar
    18    18    19   ar
    19    19    20    1
    20    20    21   ar
    21    21    22    1
    22    21    23   ar
    23    23    24   ar
    24    24    25   ar
    25    25    26   ar
    26    26    27    1
    27    19    28   ar
    28    28    29   ar
    29    29     2   ar
    30    16     4   ar
    31    29    17   ar
    32    12     7   ar
    33    26    20   ar
    34     3    30    1
    35     5    31    1
    36     8    32    1
    37     9    33    1
    38    10    34    1
    39    11    35    1
    40    14    36    1
    41    15    37    1
    42    23    38    1
    43    24    39    1
    44    25    40    1
    45    28    41    1
