
     RDKit          3D

 56 61  0  0  0  0  0  0  0  0999 V2000
    4.3486   -3.0638   -0.6449 O   0  0  0  0  0  0  0  0  0  0  0  0
    4.2203   -1.8398   -0.4287 C   0  0  0  0  0  0  0  0  0  0  0  0
    2.9880   -1.3322    0.1246 C   0  0  0  0  0  0  0  0  0  0  0  0
    2.4757   -1.8710    1.3123 C   0  0  0  0  0  0  0  0  0  0  0  0
    1.2973   -1.4092    1.8505 C   0  0  0  0  0  0  0  0  0  0  0  0
    0.5575   -0.3962    1.2562 C   0  0  0  0  0  0  0  0  0  0  0  0
   -0.6619    0.0412    1.8251 N   0  0  0  0  0  0  0  0  0  0  0  0
   -1.8991   -0.0099    1.1401 C   0  0  0  0  0  0  0  0  0  0  0  0
   -2.5217   -1.1683    0.8923 N   0  0  0  0  0  0  0  0  0  0  0  0
   -3.6962   -1.2240    0.2462 C   0  0  0  0  0  0  0  0  0  0  0  0
   -4.3988   -2.5322   -0.0031 C   0  0  0  0  0  0  0  0  0  0  0  0
   -5.0406   -3.0646    1.3283 C   0  0  0  0  0  0  0  0  0  0  0  0
   -3.9090   -3.7652    0.6114 C   0  0  0  0  0  0  0  0  0  0  0  0
   -4.2584   -0.0340   -0.1654 C   0  0  0  0  0  0  0  0  0  0  0  0
   -3.7002    1.1670    0.0444 N   0  0  0  0  0  0  0  0  0  0  0  0
   -4.0711    2.4141   -0.2512 C   0  0  0  0  0  0  0  0  0  0  0  0
   -5.2225    2.9468   -0.9290 C   0  0  0  0  0  0  0  0  0  0  0  0
   -5.4593    4.3185   -1.1594 C   0  0  0  0  0  0  0  0  0  0  0  0
   -6.6013    4.4651   -1.8111 N   0  0  0  0  0  0  0  0  0  0  0  0
   -7.1464    3.2855   -2.0329 N   0  0  0  0  0  0  0  0  0  0  0  0
   -6.3053    2.3502   -1.4939 C   0  0  0  0  0  0  0  0  0  0  0  0
   -3.0361    3.2029    0.2661 C   0  0  0  0  0  0  0  0  0  0  0  0
   -2.1011    2.4347    0.8398 N   0  0  0  0  0  0  0  0  0  0  0  0
   -2.5030    1.1518    0.7090 C   0  0  0  0  0  0  0  0  0  0  0  0
    1.0566    0.1349    0.0938 C   0  0  0  0  0  0  0  0  0  0  0  0
    0.4128    1.1257   -0.5599 F   0  0  0  0  0  0  0  0  0  0  0  0
    2.2532   -0.3283   -0.4606 C   0  0  0  0  0  0  0  0  0  0  0  0
    5.2866   -0.9628   -0.7297 N   0  0  0  0  0  0  0  0  0  0  0  0
    5.1592    0.4480   -0.4924 C   0  0  0  0  0  0  0  0  0  0  0  0
    6.4493    1.0145    0.0338 C   0  0  0  0  0  0  0  0  0  0  0  0
    7.5696    0.7428   -0.8237 N   0  0  0  0  0  0  0  0  0  0  0  0
    7.3622   -0.3067   -1.7738 C   0  0  0  0  0  0  0  0  0  0  0  0
    6.5400   -1.4550   -1.2901 C   0  0  0  0  0  0  0  0  0  0  0  0
    3.0298   -2.6638    1.7974 H   0  0  0  0  0  0  0  0  0  0  0  0
    0.8915   -1.8282    2.7794 H   0  0  0  0  0  0  0  0  0  0  0  0
   -0.6995    0.4338    2.8093 H   0  0  0  0  0  0  0  0  0  0  0  0
   -5.1608   -2.4654   -0.8008 H   0  0  0  0  0  0  0  0  0  0  0  0
   -4.8133   -2.5054    2.2481 H   0  0  0  0  0  0  0  0  0  0  0  0
   -6.0672   -3.4254    1.2795 H   0  0  0  0  0  0  0  0  0  0  0  0
   -4.1728   -4.7354    0.1823 H   0  0  0  0  0  0  0  0  0  0  0  0
   -2.9085   -3.6748    1.1300 H   0  0  0  0  0  0  0  0  0  0  0  0
   -5.1913   -0.0525   -0.6841 H   0  0  0  0  0  0  0  0  0  0  0  0
   -4.8127    5.1226   -0.8513 H   0  0  0  0  0  0  0  0  0  0  0  0
   -8.0420    3.1309   -2.5277 H   0  0  0  0  0  0  0  0  0  0  0  0
   -6.5657    1.3175   -1.5681 H   0  0  0  0  0  0  0  0  0  0  0  0
   -3.0090    4.2829    0.2053 H   0  0  0  0  0  0  0  0  0  0  0  0
    2.6411    0.1073   -1.3938 H   0  0  0  0  0  0  0  0  0  0  0  0
    4.8779    0.9653   -1.4479 H   0  0  0  0  0  0  0  0  0  0  0  0
    4.3820    0.6478    0.2925 H   0  0  0  0  0  0  0  0  0  0  0  0
    6.6076    0.6707    1.0519 H   0  0  0  0  0  0  0  0  0  0  0  0
    6.3156    2.1364    0.0442 H   0  0  0  0  0  0  0  0  0  0  0  0
    8.4906    0.7776   -0.3779 H   0  0  0  0  0  0  0  0  0  0  0  0
    8.3692   -0.7020   -2.0484 H   0  0  0  0  0  0  0  0  0  0  0  0
    6.9509    0.1088   -2.7180 H   0  0  0  0  0  0  0  0  0  0  0  0
    6.3244   -2.0942   -2.1780 H   0  0  0  0  0  0  0  0  0  0  0  0
    7.1170   -2.0352   -0.5688 H   0  0  0  0  0  0  0  0  0  0  0  0
  1  2  2  0
  2  3  1  0
  3  4  2  0
  4  5  1  0
  5  6  2  0
  6  7  1  0
  7  8  1  0
  8  9  2  0
  9 10  1  0
 10 11  1  0
 11 12  1  0
 12 13  1  0
 10 14  2  0
 14 15  1  0
 15 16  1  0
 16 17  1  0
 17 18  1  0
 18 19  2  0
 19 20  1  0
 20 21  1  0
 16 22  2  0
 22 23  1  0
 23 24  2  0
  6 25  1  0
 25 26  1  0
 25 27  2  0
  2 28  1  0
 28 29  1  0
 29 30  1  0
 30 31  1  0
 31 32  1  0
 32 33  1  0
 27  3  1  0
 33 28  1  0
 24  8  1  0
 13 11  1  0
 24 15  1  0
 21 17  2  0
  4 34  1  0
  5 35  1  0
  7 36  1  0
 11 37  1  0
 12 38  1  0
 12 39  1  0
 13 40  1  0
 13 41  1  0
 14 42  1  0
 18 43  1  0
 20 44  1  0
 21 45  1  0
 22 46  1  0
 27 47  1  0
 29 48  1  0
 29 49  1  0
 30 50  1  0
 30 51  1  0
 31 52  1  0
 32 53  1  0
 32 54  1  0
 33 55  1  0
 33 56  1  0
M  END
$$$$
