@<TRIPOS>MOLECULE
*****
 56 61 0 0 0
SMALL
GASTEIGER

@<TRIPOS>ATOM
      1 O           4.3486   -3.0638   -0.6449 O.2     1  UNL1       -0.2700
      2 C           4.2203   -1.8398   -0.4287 C.2     1  UNL1        0.2468
      3 C           2.9880   -1.3322    0.1246 C.ar    1  UNL1        0.0397
      4 C           2.4757   -1.8710    1.3123 C.ar    1  UNL1       -0.0477
      5 C           1.2973   -1.4092    1.8505 C.ar    1  UNL1       -0.0370
      6 C           0.5575   -0.3962    1.2562 C.ar    1  UNL1        0.0682
      7 N          -0.6619    0.0412    1.8251 N.pl3   1  UNL1       -0.2943
      8 C          -1.8991   -0.0099    1.1401 C.ar    1  UNL1        0.1666
      9 N          -2.5217   -1.1683    0.8923 N.ar    1  UNL1       -0.2314
     10 C          -3.6962   -1.2240    0.2462 C.ar    1  UNL1        0.0631
     11 C          -4.3988   -2.5322   -0.0031 C.3     1  UNL1        0.0029
     12 C          -5.0406   -3.0646    1.3283 C.3     1  UNL1       -0.0441
     13 C          -3.9090   -3.7652    0.6114 C.3     1  UNL1       -0.0441
     14 C          -4.2584   -0.0340   -0.1654 C.ar    1  UNL1        0.0335
     15 N          -3.7002    1.1670    0.0444 N.ar    1  UNL1       -0.2948
     16 C          -4.0711    2.4141   -0.2512 C.ar    1  UNL1        0.0762
     17 C          -5.2225    2.9468   -0.9290 C.ar    1  UNL1        0.0375
     18 C          -5.4593    4.3185   -1.1594 C.ar    1  UNL1        0.0583
     19 N          -6.6013    4.4651   -1.8111 N.ar    1  UNL1       -0.1817
     20 N          -7.1464    3.2855   -2.0329 N.ar    1  UNL1       -0.2841
     21 C          -6.3053    2.3502   -1.4939 C.ar    1  UNL1        0.0315
     22 C          -3.0361    3.2029    0.2661 C.ar    1  UNL1        0.0545
     23 N          -2.1011    2.4347    0.8398 N.ar    1  UNL1       -0.2323
     24 C          -2.5030    1.1518    0.7090 C.ar    1  UNL1        0.1788
     25 C           1.0566    0.1349    0.0938 C.ar    1  UNL1        0.1452
     26 F           0.4128    1.1257   -0.5599 F       1  UNL1       -0.2035
     27 C           2.2532   -0.3283   -0.4606 C.ar    1  UNL1       -0.0125
     28 N           5.2866   -0.9628   -0.7297 N.am    1  UNL1       -0.2951
     29 C           5.1592    0.4480   -0.4924 C.3     1  UNL1        0.0275
     30 C           6.4493    1.0145    0.0338 C.3     1  UNL1        0.0118
     31 N           7.5696    0.7428   -0.8237 N.3     1  UNL1       -0.3130
     32 C           7.3622   -0.3067   -1.7738 C.3     1  UNL1        0.0118
     33 C           6.5400   -1.4550   -1.2901 C.3     1  UNL1        0.0275
     34 H           3.0298   -2.6638    1.7974 H       1  UNL1        0.0626
     35 H           0.8915   -1.8282    2.7794 H       1  UNL1        0.0637
     36 H          -0.6995    0.4338    2.8093 H       1  UNL1        0.1537
     37 H          -5.1608   -2.4654   -0.8008 H       1  UNL1        0.0364
     38 H          -4.8133   -2.5054    2.2481 H       1  UNL1        0.0272
     39 H          -6.0672   -3.4254    1.2795 H       1  UNL1        0.0272
     40 H          -4.1728   -4.7354    0.1823 H       1  UNL1        0.0272
     41 H          -2.9085   -3.6748    1.1300 H       1  UNL1        0.0272
     42 H          -5.1913   -0.0525   -0.6841 H       1  UNL1        0.0832
     43 H          -4.8127    5.1226   -0.8513 H       1  UNL1        0.0854
     44 H          -8.0420    3.1309   -2.5277 H       1  UNL1        0.1882
     45 H          -6.5657    1.3175   -1.5681 H       1  UNL1        0.0830
     46 H          -3.0090    4.2829    0.2053 H       1  UNL1        0.0852
     47 H           2.6411    0.1073   -1.3938 H       1  UNL1        0.0654
     48 H           4.8779    0.9653   -1.4479 H       1  UNL1        0.0477
     49 H           4.3820    0.6478    0.2925 H       1  UNL1        0.0477
     50 H           6.6076    0.6707    1.0519 H       1  UNL1        0.0439
     51 H           6.3156    2.1364    0.0442 H       1  UNL1        0.0439
     52 H           8.4906    0.7776   -0.3779 H       1  UNL1        0.1220
     53 H           8.3692   -0.7020   -2.0484 H       1  UNL1        0.0439
     54 H           6.9509    0.1088   -2.7180 H       1  UNL1        0.0439
     55 H           6.3244   -2.0942   -2.1780 H       1  UNL1        0.0477
     56 H           7.1170   -2.0352   -0.5688 H       1  UNL1        0.0477
@<TRIPOS>BOND
     1     1     2    2
     2     2     3    1
     3     3     4   ar
     4     4     5   ar
     5     5     6   ar
     6     6     7    1
     7     7     8    1
     8     8     9   ar
     9     9    10   ar
    10    10    11    1
    11    11    12    1
    12    12    13    1
    13    10    14   ar
    14    14    15   ar
    15    15    16   ar
    16    16    17    1
    17    17    18   ar
    18    18    19   ar
    19    19    20   ar
    20    20    21   ar
    21    16    22   ar
    22    22    23   ar
    23    23    24   ar
    24     6    25   ar
    25    25    26    1
    26    25    27   ar
    27     2    28   am
    28    28    29    1
    29    29    30    1
    30    30    31    1
    31    31    32    1
    32    32    33    1
    33    27     3   ar
    34    33    28    1
    35    24     8   ar
    36    13    11    1
    37    24    15   ar
    38    21    17   ar
    39     4    34    1
    40     5    35    1
    41     7    36    1
    42    11    37    1
    43    12    38    1
    44    12    39    1
    45    13    40    1
    46    13    41    1
    47    14    42    1
    48    18    43    1
    49    20    44    1
    50    21    45    1
    51    22    46    1
    52    27    47    1
    53    29    48    1
    54    29    49    1
    55    30    50    1
    56    30    51    1
    57    31    52    1
    58    32    53    1
    59    32    54    1
    60    33    55    1
    61    33    56    1
