@<TRIPOS>MOLECULE
*****
 45 48 0 0 0
SMALL
GASTEIGER

@<TRIPOS>ATOM
      1 C          -4.9813    2.7159    0.6996 C.3     1  UNL1        0.0124
      2 C          -5.3608    1.3274    0.3002 C.2     1  UNL1        0.2128
      3 O          -6.5650    1.0480    0.0730 O.2     1  UNL1       -0.2759
      4 N          -4.3881    0.3081    0.1698 N.am    1  UNL1       -0.2968
      5 C          -4.8207   -1.0014   -0.2165 C.3     1  UNL1        0.0204
      6 C          -3.9615   -2.1053    0.3230 C.3     1  UNL1        0.0055
      7 C          -2.5073   -1.7654    0.1798 C.ar    1  UNL1        0.0469
      8 C          -2.0777   -0.4688    0.2361 C.ar    1  UNL1        0.0324
      9 C          -0.7058   -0.4515    0.0765 C.ar    1  UNL1        0.1498
     10 N           0.1395    0.6955    0.0796 N.pl3   1  UNL1       -0.2978
     11 C           1.5341    0.6281   -0.1184 C.ar    1  UNL1        0.0325
     12 C           2.2773    1.7850    0.1599 C.ar    1  UNL1       -0.0399
     13 C           3.6538    1.8144   -0.0145 C.ar    1  UNL1       -0.0522
     14 C           4.3341    0.7184   -0.4632 C.ar    1  UNL1       -0.0148
     15 C           5.7680    0.7698   -0.6380 C.ar    1  UNL1        0.0193
     16 C           6.5760    0.1090   -1.5408 C.ar    1  UNL1        0.0568
     17 N           7.8441    0.4931   -1.3012 N.ar    1  UNL1       -0.1817
     18 N           7.8924    1.3590   -0.2998 N.ar    1  UNL1       -0.2841
     19 C           6.6401    1.5408    0.1175 C.ar    1  UNL1        0.0300
     20 C           3.6378   -0.4274   -0.7443 C.ar    1  UNL1       -0.0522
     21 C           2.2527   -0.4363   -0.5622 C.ar    1  UNL1       -0.0399
     22 N          -0.3670   -1.7359   -0.0691 N.ar    1  UNL1       -0.1557
     23 N          -1.4178   -2.5304   -0.0112 N.ar    1  UNL1       -0.2692
     24 C          -1.4585   -3.9912   -0.1269 C.3     1  UNL1        0.0306
     25 C          -3.0108    0.6621    0.4387 C.3     1  UNL1        0.0447
     26 H          -3.8983    2.8291    0.6064 H       1  UNL1        0.0323
     27 H          -5.3598    2.9554    1.7215 H       1  UNL1        0.0323
     28 H          -5.4553    3.4083   -0.0470 H       1  UNL1        0.0323
     29 H          -4.9497   -1.1038   -1.3182 H       1  UNL1        0.0468
     30 H          -5.8483   -1.1593    0.2160 H       1  UNL1        0.0468
     31 H          -4.1614   -2.2272    1.4047 H       1  UNL1        0.0343
     32 H          -4.1422   -3.0392   -0.2286 H       1  UNL1        0.0343
     33 H          -0.3262    1.6507    0.2392 H       1  UNL1        0.1536
     34 H           1.7510    2.6577    0.5156 H       1  UNL1        0.0636
     35 H           4.1749    2.7530    0.2221 H       1  UNL1        0.0624
     36 H           6.2115   -0.5850   -2.2900 H       1  UNL1        0.0854
     37 H           8.7892    1.7864    0.0513 H       1  UNL1        0.1882
     38 H           6.3849    2.2116    0.9413 H       1  UNL1        0.0830
     39 H           4.1691   -1.2970   -1.0993 H       1  UNL1        0.0624
     40 H           1.7433   -1.3529   -0.8003 H       1  UNL1        0.0636
     41 H          -0.5684   -4.3504   -0.6930 H       1  UNL1        0.0473
     42 H          -1.4868   -4.4226    0.8779 H       1  UNL1        0.0473
     43 H          -2.3477   -4.3008   -0.7388 H       1  UNL1        0.0473
     44 H          -2.8721    1.0881    1.4344 H       1  UNL1        0.0515
     45 H          -2.7353    1.4368   -0.3197 H       1  UNL1        0.0515
@<TRIPOS>BOND
     1     1     2    1
     2     2     3    2
     3     2     4   am
     4     4     5    1
     5     5     6    1
     6     6     7    1
     7     7     8   ar
     8     8     9   ar
     9     9    10    1
    10    10    11    1
    11    11    12   ar
    12    12    13   ar
    13    13    14   ar
    14    14    15    1
    15    15    16   ar
    16    16    17   ar
    17    17    18   ar
    18    18    19   ar
    19    14    20   ar
    20    20    21   ar
    21     9    22   ar
    22    22    23   ar
    23    23    24    1
    24     8    25    1
    25    25     4    1
    26    23     7   ar
    27    21    11   ar
    28    19    15   ar
    29     1    26    1
    30     1    27    1
    31     1    28    1
    32     5    29    1
    33     5    30    1
    34     6    31    1
    35     6    32    1
    36    10    33    1
    37    12    34    1
    38    13    35    1
    39    16    36    1
    40    18    37    1
    41    19    38    1
    42    20    39    1
    43    21    40    1
    44    24    41    1
    45    24    42    1
    46    24    43    1
    47    25    44    1
    48    25    45    1
