@<TRIPOS>MOLECULE
*****
 72 73 0 0 0
SMALL
GASTEIGER

@<TRIPOS>ATOM
      1 C          -4.9257    3.7388    2.2160 C.3     1  UNL1       -0.0626
      2 C          -4.1528    2.4598    1.9637 C.3     1  UNL1       -0.0448
      3 C          -2.7590    2.6223    2.4767 C.3     1  UNL1       -0.0626
      4 C          -4.2965    2.1151    0.5269 C.3     1  UNL1       -0.0251
      5 C          -3.5753    0.8626    0.0870 C.3     1  UNL1        0.1048
      6 N          -4.0362   -0.2880    0.8222 N.3     1  UNL1       -0.1823
      7 S          -4.8899   -1.4324   -0.1008 S.O2    1  UNL1        0.0341
      8 O          -5.1496   -0.8414   -1.4700 O.2     1  UNL1       -0.1579
      9 O          -6.2480   -1.6038    0.5829 O.2     1  UNL1       -0.1579
     10 C          -4.1843   -3.0254   -0.1930 C.3     1  UNL1        0.1067
     11 C          -2.8504   -3.1494   -0.7533 C.ar    1  UNL1       -0.0250
     12 C          -1.7786   -3.1588    0.1512 C.ar    1  UNL1       -0.0570
     13 C          -0.4709   -3.2924   -0.1946 C.ar    1  UNL1       -0.0615
     14 C          -0.0957   -3.4315   -1.5274 C.ar    1  UNL1       -0.0617
     15 C          -1.1493   -3.4229   -2.4126 C.ar    1  UNL1       -0.0615
     16 C          -2.4619   -3.2891   -2.0725 C.ar    1  UNL1       -0.0570
     17 C          -2.1296    0.9739   -0.0326 C.2     1  UNL1        0.2348
     18 O          -1.7075   -0.0033    0.6160 O.2     1  UNL1       -0.2738
     19 N          -1.3198    1.9418   -0.7148 N.am    1  UNL1       -0.2886
     20 C          -1.4356    3.1634   -1.5262 C.3     1  UNL1        0.0156
     21 C          -0.6414    4.2017   -0.7485 C.3     1  UNL1       -0.0350
     22 C           0.4292    3.3113   -0.0769 C.3     1  UNL1       -0.0243
     23 C           0.1168    2.0127   -0.8259 C.3     1  UNL1        0.1022
     24 C           0.8695    0.8545   -0.3252 C.2     1  UNL1        0.2336
     25 O           0.8101   -0.3439    0.1210 O.2     1  UNL1       -0.2738
     26 N           2.2783    1.1397   -0.3113 N.am    1  UNL1       -0.3138
     27 C           3.1955    0.0645    0.1349 C.3     1  UNL1        0.0117
     28 C           4.5631    0.6410    0.0913 C.3     1  UNL1       -0.0344
     29 C           5.6963   -0.2626    0.4374 C.3     1  UNL1       -0.0172
     30 C           5.7286   -1.4030   -0.5922 C.3     1  UNL1        0.1047
     31 N           6.7934   -2.3170   -0.3969 N.pl3   1  UNL1       -0.1138
     32 C           6.7544   -3.4788    0.1738 C.cat   1  UNL1        0.3765
     33 N           8.0775   -3.1227   -0.3033 N.pl3   1  UNL1       -0.2893
     34 N           5.8247   -4.3763    0.8007 N.pl3   1  UNL1       -0.2893
     35 H          -5.8475    3.4915    2.7732 H       1  UNL1        0.0232
     36 H          -4.3003    4.4265    2.8527 H       1  UNL1        0.0232
     37 H          -5.1747    4.2441    1.2386 H       1  UNL1        0.0232
     38 H          -4.6456    1.6749    2.6236 H       1  UNL1        0.0296
     39 H          -2.0930    3.0861    1.7186 H       1  UNL1        0.0232
     40 H          -2.7067    3.3125    3.3513 H       1  UNL1        0.0232
     41 H          -2.3174    1.6308    2.7124 H       1  UNL1        0.0232
     42 H          -4.0849    2.9162   -0.1818 H       1  UNL1        0.0288
     43 H          -5.4088    1.9121    0.3805 H       1  UNL1        0.0288
     44 H          -3.9487    0.6649   -0.9745 H       1  UNL1        0.0573
     45 H          -3.2799   -0.6630    1.4209 H       1  UNL1        0.1485
     46 H          -4.8498   -3.7119   -0.7857 H       1  UNL1        0.0565
     47 H          -4.2192   -3.4587    0.8455 H       1  UNL1        0.0565
     48 H          -1.9663   -3.0570    1.2340 H       1  UNL1        0.0621
     49 H           0.3209   -3.2874    0.5420 H       1  UNL1        0.0618
     50 H           0.9170   -3.5402   -1.8729 H       1  UNL1        0.0618
     51 H          -0.9057   -3.5316   -3.4800 H       1  UNL1        0.0618
     52 H          -3.2974   -3.2796   -2.7840 H       1  UNL1        0.0621
     53 H          -2.4659    3.5101   -1.6288 H       1  UNL1        0.0465
     54 H          -0.9467    3.0566   -2.5158 H       1  UNL1        0.0465
     55 H          -1.2190    4.7625   -0.0135 H       1  UNL1        0.0281
     56 H          -0.0956    4.8949   -1.4102 H       1  UNL1        0.0281
     57 H           1.4357    3.6939   -0.3017 H       1  UNL1        0.0288
     58 H           0.1673    3.2327    0.9780 H       1  UNL1        0.0288
     59 H           0.4404    2.2183   -1.9068 H       1  UNL1        0.0597
     60 H           2.6877    2.0800   -0.5940 H       1  UNL1        0.1487
     61 H           2.9153   -0.2757    1.1752 H       1  UNL1        0.0462
     62 H           3.0260   -0.8186   -0.5040 H       1  UNL1        0.0462
     63 H           4.5422    1.5707    0.7220 H       1  UNL1        0.0281
     64 H           4.7114    1.0267   -0.9593 H       1  UNL1        0.0281
     65 H           6.6392    0.2998    0.3072 H       1  UNL1        0.0297
     66 H           5.5990   -0.7078    1.4609 H       1  UNL1        0.0297
     67 H           4.7231   -1.8702   -0.5558 H       1  UNL1        0.0693
     68 H           5.8924   -0.8675   -1.5726 H       1  UNL1        0.0693
     69 H           8.9327   -3.6943   -0.2480 H       1  UNL1        0.2546
     70 H           8.9421   -3.7420   -0.2291 H       1  UNL1        0.2546
     71 H           5.4852   -4.5448   -0.1652 H       1  UNL1        0.2546
     72 H           5.5163   -4.5156   -0.1909 H       1  UNL1        0.2546
@<TRIPOS>BOND
     1     1     2    1
     2     2     3    1
     3     2     4    1
     4     4     5    1
     5     5     6    1
     6     6     7    1
     7     7     8    2
     8     7     9    2
     9     7    10    1
    10    10    11    1
    11    11    12   ar
    12    12    13   ar
    13    13    14   ar
    14    14    15   ar
    15    15    16   ar
    16     5    17    1
    17    17    18    2
    18    17    19   am
    19    19    20    1
    20    20    21    1
    21    21    22    1
    22    22    23    1
    23    23    24    1
    24    24    25    2
    25    24    26   am
    26    26    27    1
    27    27    28    1
    28    28    29    1
    29    29    30    1
    30    30    31    1
    31    31    32    2
    32    32    33    1
    33    32    34    1
    34    16    11   ar
    35    23    19    1
    36     1    35    1
    37     1    36    1
    38     1    37    1
    39     2    38    1
    40     3    39    1
    41     3    40    1
    42     3    41    1
    43     4    42    1
    44     4    43    1
    45     5    44    1
    46     6    45    1
    47    10    46    1
    48    10    47    1
    49    12    48    1
    50    13    49    1
    51    14    50    1
    52    15    51    1
    53    16    52    1
    54    20    53    1
    55    20    54    1
    56    21    55    1
    57    21    56    1
    58    22    57    1
    59    22    58    1
    60    23    59    1
    61    26    60    1
    62    27    61    1
    63    27    62    1
    64    28    63    1
    65    28    64    1
    66    29    65    1
    67    29    66    1
    68    30    67    1
    69    30    68    1
    70    33    69    1
    71    33    70    1
    72    34    71    1
    73    34    72    1
