@<TRIPOS>MOLECULE
*****
 32 34 0 0 0
SMALL
GASTEIGER

@<TRIPOS>ATOM
      1 C          -4.4017   -0.7235   -2.0083 C.3     1  UNL1       -0.0244
      2 C          -3.4275   -0.3429   -0.9206 C.ar    1  UNL1        0.0135
      3 C          -3.6443   -0.2283    0.4281 C.ar    1  UNL1       -0.0379
      4 C          -2.4651    0.1419    1.0294 C.ar    1  UNL1       -0.0255
      5 C          -2.2492    0.3791    2.4969 C.3     1  UNL1       -0.0377
      6 C          -1.4998    0.2587    0.0375 C.ar    1  UNL1        0.0431
      7 C          -0.1397    0.6696    0.3243 C.2     1  UNL1       -0.0254
      8 C           0.8825   -0.0409   -0.0836 C.2     1  UNL1        0.0479
      9 C           0.8846   -1.2700   -0.8264 C.2     1  UNL1        0.2490
     10 O          -0.1242   -1.9225   -1.2012 O.2     1  UNL1       -0.2698
     11 N           2.2639   -1.6387   -1.0708 N.am    1  UNL1       -0.2809
     12 C           3.0755   -0.6408   -0.4793 C.ar    1  UNL1        0.0416
     13 C           4.4566   -0.4705   -0.4002 C.ar    1  UNL1       -0.0399
     14 C           5.0223    0.6056    0.2401 C.ar    1  UNL1       -0.0600
     15 C           4.2316    1.5638    0.8331 C.ar    1  UNL1       -0.0611
     16 C           2.8846    1.4015    0.7581 C.ar    1  UNL1       -0.0521
     17 C           2.2969    0.3318    0.1213 C.ar    1  UNL1        0.0084
     18 N          -2.1157   -0.0371   -1.1070 N.ar    1  UNL1       -0.3584
     19 H          -5.4190   -0.5714   -1.6228 H       1  UNL1        0.0292
     20 H          -4.2393    0.0611   -2.8017 H       1  UNL1        0.0292
     21 H          -4.1989   -1.7227   -2.4039 H       1  UNL1        0.0292
     22 H          -4.5922   -0.4038    0.9118 H       1  UNL1        0.0638
     23 H          -1.6683   -0.4345    2.9745 H       1  UNL1        0.0278
     24 H          -3.2089    0.5781    2.9733 H       1  UNL1        0.0278
     25 H          -1.6150    1.3015    2.5632 H       1  UNL1        0.0278
     26 H           0.0597    1.5946    0.8961 H       1  UNL1        0.0646
     27 H           2.5672   -2.5031   -1.5997 H       1  UNL1        0.1552
     28 H           5.0830   -1.2208   -0.8652 H       1  UNL1        0.0636
     29 H           6.1130    0.7271    0.2937 H       1  UNL1        0.0618
     30 H           4.6235    2.4298    1.3505 H       1  UNL1        0.0618
     31 H           2.2348    2.1470    1.2197 H       1  UNL1        0.0624
     32 H          -1.6709   -0.0199   -2.0611 H       1  UNL1        0.1656
@<TRIPOS>BOND
     1     1     2    1
     2     2     3   ar
     3     3     4   ar
     4     4     5    1
     5     4     6   ar
     6     6     7    1
     7     7     8    2
     8     8     9    1
     9     9    10    2
    10     9    11   am
    11    11    12    1
    12    12    13   ar
    13    13    14   ar
    14    14    15   ar
    15    15    16   ar
    16    16    17   ar
    17     6    18   ar
    18    18     2   ar
    19    17     8    1
    20    17    12   ar
    21     1    19    1
    22     1    20    1
    23     1    21    1
    24     3    22    1
    25     5    23    1
    26     5    24    1
    27     5    25    1
    28     7    26    1
    29    11    27    1
    30    13    28    1
    31    14    29    1
    32    15    30    1
    33    16    31    1
    34    18    32    1
