
     RDKit          3D

 32 34  0  0  0  0  0  0  0  0999 V2000
   -4.4017   -0.7235   -2.0083 C   0  0  0  0  0  0  0  0  0  0  0  0
   -3.4275   -0.3429   -0.9206 C   0  0  0  0  0  0  0  0  0  0  0  0
   -3.6443   -0.2283    0.4281 C   0  0  0  0  0  0  0  0  0  0  0  0
   -2.4651    0.1419    1.0294 C   0  0  0  0  0  0  0  0  0  0  0  0
   -2.2492    0.3791    2.4969 C   0  0  0  0  0  0  0  0  0  0  0  0
   -1.4998    0.2587    0.0375 C   0  0  0  0  0  0  0  0  0  0  0  0
   -0.1397    0.6696    0.3243 C   0  0  0  0  0  0  0  0  0  0  0  0
    0.8825   -0.0409   -0.0836 C   0  0  0  0  0  0  0  0  0  0  0  0
    0.8846   -1.2700   -0.8264 C   0  0  0  0  0  0  0  0  0  0  0  0
   -0.1242   -1.9225   -1.2012 O   0  0  0  0  0  0  0  0  0  0  0  0
    2.2639   -1.6387   -1.0708 N   0  0  0  0  0  0  0  0  0  0  0  0
    3.0755   -0.6408   -0.4793 C   0  0  0  0  0  0  0  0  0  0  0  0
    4.4566   -0.4705   -0.4002 C   0  0  0  0  0  0  0  0  0  0  0  0
    5.0223    0.6056    0.2401 C   0  0  0  0  0  0  0  0  0  0  0  0
    4.2316    1.5638    0.8331 C   0  0  0  0  0  0  0  0  0  0  0  0
    2.8846    1.4015    0.7581 C   0  0  0  0  0  0  0  0  0  0  0  0
    2.2969    0.3318    0.1213 C   0  0  0  0  0  0  0  0  0  0  0  0
   -2.1157   -0.0371   -1.1070 N   0  0  0  0  0  0  0  0  0  0  0  0
   -5.4190   -0.5714   -1.6228 H   0  0  0  0  0  0  0  0  0  0  0  0
   -4.2393    0.0611   -2.8017 H   0  0  0  0  0  0  0  0  0  0  0  0
   -4.1989   -1.7227   -2.4039 H   0  0  0  0  0  0  0  0  0  0  0  0
   -4.5922   -0.4038    0.9118 H   0  0  0  0  0  0  0  0  0  0  0  0
   -1.6683   -0.4345    2.9745 H   0  0  0  0  0  0  0  0  0  0  0  0
   -3.2089    0.5781    2.9733 H   0  0  0  0  0  0  0  0  0  0  0  0
   -1.6150    1.3015    2.5632 H   0  0  0  0  0  0  0  0  0  0  0  0
    0.0597    1.5946    0.8961 H   0  0  0  0  0  0  0  0  0  0  0  0
    2.5672   -2.5031   -1.5997 H   0  0  0  0  0  0  0  0  0  0  0  0
    5.0830   -1.2208   -0.8652 H   0  0  0  0  0  0  0  0  0  0  0  0
    6.1130    0.7271    0.2937 H   0  0  0  0  0  0  0  0  0  0  0  0
    4.6235    2.4298    1.3505 H   0  0  0  0  0  0  0  0  0  0  0  0
    2.2348    2.1470    1.2197 H   0  0  0  0  0  0  0  0  0  0  0  0
   -1.6709   -0.0199   -2.0611 H   0  0  0  0  0  0  0  0  0  0  0  0
  1  2  1  0
  2  3  2  0
  3  4  1  0
  4  5  1  0
  4  6  2  0
  6  7  1  0
  7  8  2  0
  8  9  1  0
  9 10  2  0
  9 11  1  0
 11 12  1  0
 12 13  2  0
 13 14  1  0
 14 15  2  0
 15 16  1  0
 16 17  2  0
  6 18  1  0
 18  2  1  0
 17  8  1  0
 17 12  1  0
  1 19  1  0
  1 20  1  0
  1 21  1  0
  3 22  1  0
  5 23  1  0
  5 24  1  0
  5 25  1  0
  7 26  1  0
 11 27  1  0
 13 28  1  0
 14 29  1  0
 15 30  1  0
 16 31  1  0
 18 32  1  0
M  END
$$$$
