@<TRIPOS>MOLECULE
*****
 57 60 0 0 0
SMALL
GASTEIGER

@<TRIPOS>ATOM
      1 C          -3.2136    0.4992   -0.9322 C.3     1  UNL1       -0.0491
      2 C          -2.6503   -0.3018    0.2297 C.3     1  UNL1        0.0127
      3 C          -2.4569    0.7206    1.3984 C.3     1  UNL1       -0.0099
      4 C          -1.7415    1.8425    0.7208 C.ar    1  UNL1       -0.0158
      5 C          -0.7742    1.5376   -0.2356 C.ar    1  UNL1        0.0423
      6 N          -0.2972    2.7059   -0.6908 N.ar    1  UNL1       -0.3562
      7 C          -0.9283    3.7071   -0.0560 C.ar    1  UNL1        0.0470
      8 C          -0.8183    5.0799   -0.1466 C.ar    1  UNL1       -0.0378
      9 C          -1.6000    5.8950    0.6343 C.ar    1  UNL1       -0.0598
     10 C          -2.5242    5.4155    1.5386 C.ar    1  UNL1       -0.0611
     11 C          -2.6356    4.0464    1.6305 C.ar    1  UNL1       -0.0523
     12 C          -1.8589    3.2062    0.8543 C.ar    1  UNL1        0.0032
     13 C          -0.4538    0.1356   -0.5624 C.3     1  UNL1        0.0821
     14 C           0.9639   -0.2292   -0.2916 C.ar    1  UNL1        0.0458
     15 C           1.9880    0.0696   -1.1635 C.ar    1  UNL1        0.1317
     16 F           1.7087    0.6981   -2.3216 F       1  UNL1       -0.2050
     17 C           3.3132   -0.2529   -0.9178 C.ar    1  UNL1       -0.0188
     18 C           3.6784   -0.8932    0.2181 C.ar    1  UNL1       -0.0194
     19 C           5.0524   -1.2416    0.5015 C.2     1  UNL1       -0.0477
     20 C           6.0275   -0.9568   -0.3288 C.2     1  UNL1        0.0229
     21 C           7.4154   -1.3073   -0.0450 C.2     1  UNL1        0.3296
     22 O           8.3090   -1.0213   -0.8545 O.2     1  UNL1       -0.2458
     23 O           7.7281   -1.9576    1.1268 O.3     1  UNL1       -0.4775
     24 C           2.6631   -1.2068    1.1156 C.ar    1  UNL1       -0.0188
     25 C           1.3541   -0.8858    0.8684 C.ar    1  UNL1        0.1317
     26 F           0.3884   -1.2141    1.7883 F       1  UNL1       -0.2050
     27 N          -1.3783   -0.8362   -0.0104 N.3     1  UNL1       -0.2842
     28 C          -1.1783   -2.0533   -0.6755 C.3     1  UNL1        0.0336
     29 C          -1.9727   -3.2559   -0.2762 C.3     1  UNL1        0.1187
     30 C          -1.4845   -4.4657   -1.1451 C.3     1  UNL1       -0.0300
     31 C          -3.4099   -3.1035   -0.6568 C.3     1  UNL1       -0.0300
     32 F          -1.7565   -3.6306    1.0191 F       1  UNL1       -0.2412
     33 H          -3.1911    1.5788   -0.6962 H       1  UNL1        0.0245
     34 H          -4.2731    0.2308   -1.1235 H       1  UNL1        0.0245
     35 H          -2.6655    0.2734   -1.8792 H       1  UNL1        0.0245
     36 H          -3.4216   -0.9686    0.5913 H       1  UNL1        0.0463
     37 H          -3.4700    0.9955    1.7222 H       1  UNL1        0.0329
     38 H          -1.8505    0.2310    2.1722 H       1  UNL1        0.0329
     39 H           0.4497    2.8700   -1.4253 H       1  UNL1        0.1657
     40 H          -0.0909    5.4699   -0.8582 H       1  UNL1        0.0638
     41 H          -1.5047    6.9655    0.5544 H       1  UNL1        0.0618
     42 H          -3.1261    6.0861    2.1404 H       1  UNL1        0.0618
     43 H          -3.3434    3.6176    2.3224 H       1  UNL1        0.0624
     44 H          -0.5979    0.0480   -1.6844 H       1  UNL1        0.0579
     45 H           4.0358    0.0292   -1.6706 H       1  UNL1        0.0652
     46 H           5.2771   -1.7517    1.4269 H       1  UNL1        0.0626
     47 H           5.8615   -0.4432   -1.2775 H       1  UNL1        0.0689
     48 H           8.5929   -2.4875    1.2632 H       1  UNL1        0.2954
     49 H           2.9726   -1.7219    2.0243 H       1  UNL1        0.0652
     50 H          -0.0636   -2.2784   -0.6311 H       1  UNL1        0.0458
     51 H          -1.3209   -1.8497   -1.7924 H       1  UNL1        0.0458
     52 H          -0.5406   -4.8384   -0.7199 H       1  UNL1        0.0260
     53 H          -1.4257   -4.1672   -2.1924 H       1  UNL1        0.0260
     54 H          -2.2695   -5.2361   -0.9942 H       1  UNL1        0.0260
     55 H          -4.1223   -3.1057    0.2013 H       1  UNL1        0.0260
     56 H          -3.7406   -4.0204   -1.2615 H       1  UNL1        0.0260
     57 H          -3.6293   -2.2729   -1.3456 H       1  UNL1        0.0260
@<TRIPOS>BOND
     1     1     2    1
     2     2     3    1
     3     3     4    1
     4     4     5   ar
     5     5     6   ar
     6     6     7   ar
     7     7     8   ar
     8     8     9   ar
     9     9    10   ar
    10    10    11   ar
    11    11    12   ar
    12     5    13    1
    13    13    14    1
    14    14    15   ar
    15    15    16    1
    16    15    17   ar
    17    17    18   ar
    18    18    19    1
    19    19    20    2
    20    20    21    1
    21    21    22    2
    22    21    23    1
    23    18    24   ar
    24    24    25   ar
    25    25    26    1
    26    13    27    1
    27    27    28    1
    28    28    29    1
    29    29    30    1
    30    29    31    1
    31    29    32    1
    32    27     2    1
    33    12     4   ar
    34    25    14   ar
    35    12     7   ar
    36     1    33    1
    37     1    34    1
    38     1    35    1
    39     2    36    1
    40     3    37    1
    41     3    38    1
    42     6    39    1
    43     8    40    1
    44     9    41    1
    45    10    42    1
    46    11    43    1
    47    13    44    1
    48    17    45    1
    49    19    46    1
    50    20    47    1
    51    23    48    1
    52    24    49    1
    53    28    50    1
    54    28    51    1
    55    30    52    1
    56    30    53    1
    57    30    54    1
    58    31    55    1
    59    31    56    1
    60    31    57    1
