@<TRIPOS>MOLECULE
*****
 43 45 0 0 0
SMALL
GASTEIGER

@<TRIPOS>ATOM
      1 C          -1.6162    3.6720   -0.2551 C.3     1  UNL1        0.0817
      2 O          -1.7163    2.3363   -0.7108 O.3     1  UNL1       -0.4677
      3 C          -0.9230    1.3281   -0.1277 C.2     1  UNL1        0.3123
      4 O          -0.1643    1.6907    0.7764 O.2     1  UNL1       -0.2505
      5 C          -1.1035   -0.0193   -0.6724 C.3     1  UNL1        0.0848
      6 C          -2.5472   -0.4367   -0.3661 C.3     1  UNL1        0.0241
      7 C          -2.8322   -1.8198   -0.8556 C.3     1  UNL1       -0.0351
      8 C          -2.3789   -2.7270    0.2356 C.3     1  UNL1       -0.0359
      9 C          -1.9464   -1.7857    1.3319 C.3     1  UNL1        0.0113
     10 C          -0.4752   -1.5040    1.2313 C.3     1  UNL1       -0.0236
     11 C          -0.1492   -1.0637   -0.1843 C.3     1  UNL1        0.0726
     12 C           1.2425   -0.6890   -0.4069 C.2     1  UNL1        0.3164
     13 O           1.9651   -1.4313   -1.1725 O.2     1  UNL1       -0.2501
     14 O           1.9211    0.3913    0.1085 O.3     1  UNL1       -0.4256
     15 C           3.2548    0.6760   -0.1554 C.ar    1  UNL1        0.1316
     16 C           3.6571    1.4651   -1.2130 C.ar    1  UNL1       -0.0192
     17 C           4.9986    1.7368   -1.4580 C.ar    1  UNL1       -0.0583
     18 C           5.9638    1.2061   -0.6242 C.ar    1  UNL1       -0.0615
     19 C           5.5597    0.4168    0.4336 C.ar    1  UNL1       -0.0583
     20 C           4.2196    0.1442    0.6799 C.ar    1  UNL1       -0.0192
     21 N          -2.6583   -0.5466    1.0804 N.3     1  UNL1       -0.2986
     22 C          -4.0287   -0.6075    1.5089 C.3     1  UNL1       -0.0122
     23 H          -0.5283    3.8915   -0.0673 H       1  UNL1        0.0661
     24 H          -2.1365    3.7272    0.7250 H       1  UNL1        0.0661
     25 H          -1.9672    4.3868   -0.9972 H       1  UNL1        0.0661
     26 H          -1.0292    0.0332   -1.7751 H       1  UNL1        0.0437
     27 H          -3.2031    0.3460   -0.7457 H       1  UNL1        0.0471
     28 H          -3.9510   -1.8886   -0.9934 H       1  UNL1        0.0281
     29 H          -2.3168   -2.0400   -1.8267 H       1  UNL1        0.0281
     30 H          -1.5849   -3.4204   -0.0979 H       1  UNL1        0.0281
     31 H          -3.2130   -3.3929    0.5728 H       1  UNL1        0.0281
     32 H          -2.2057   -2.2376    2.2962 H       1  UNL1        0.0463
     33 H           0.1310   -2.4048    1.4403 H       1  UNL1        0.0288
     34 H          -0.2120   -0.7025    1.9402 H       1  UNL1        0.0288
     35 H          -0.3438   -2.0007   -0.7990 H       1  UNL1        0.0423
     36 H           2.8642    1.8598   -1.8406 H       1  UNL1        0.0654
     37 H           5.2557    2.3624   -2.3027 H       1  UNL1        0.0619
     38 H           7.0176    1.4037   -0.7946 H       1  UNL1        0.0618
     39 H           6.3332   -0.0037    1.0951 H       1  UNL1        0.0619
     40 H           3.9627   -0.4805    1.5233 H       1  UNL1        0.0654
     41 H          -4.7545   -0.3571    0.7180 H       1  UNL1        0.0391
     42 H          -4.1986   -1.6226    1.9487 H       1  UNL1        0.0391
     43 H          -4.1626    0.1078    2.3553 H       1  UNL1        0.0391
@<TRIPOS>BOND
     1     1     2    1
     2     2     3    1
     3     3     4    2
     4     3     5    1
     5     5     6    1
     6     6     7    1
     7     7     8    1
     8     8     9    1
     9     9    10    1
    10    10    11    1
    11    11    12    1
    12    12    13    2
    13    12    14    1
    14    14    15    1
    15    15    16   ar
    16    16    17   ar
    17    17    18   ar
    18    18    19   ar
    19    19    20   ar
    20     9    21    1
    21    21    22    1
    22    11     5    1
    23    20    15   ar
    24    21     6    1
    25     1    23    1
    26     1    24    1
    27     1    25    1
    28     5    26    1
    29     6    27    1
    30     7    28    1
    31     7    29    1
    32     8    30    1
    33     8    31    1
    34     9    32    1
    35    10    33    1
    36    10    34    1
    37    11    35    1
    38    16    36    1
    39    17    37    1
    40    18    38    1
    41    19    39    1
    42    20    40    1
    43    22    41    1
    44    22    42    1
    45    22    43    1
