@<TRIPOS>MOLECULE
*****
 35 37 0 0 0
SMALL
GASTEIGER

@<TRIPOS>ATOM
      1 O           4.7910   -0.4554   -2.0659 O.2     1  UNL1       -0.2451
      2 C           4.9327    0.3600   -1.1201 C.2     1  UNL1        0.3370
      3 O           6.0267    1.2095   -1.1655 O.3     1  UNL1       -0.4771
      4 C           3.9634    0.3842   -0.0319 C.ar    1  UNL1        0.0638
      5 C           4.0887    1.2666    1.0220 C.ar    1  UNL1       -0.0295
      6 C           3.1339    1.2534    2.0441 C.ar    1  UNL1        0.0307
      7 N           2.1023    0.3929    2.0068 N.ar    1  UNL1       -0.2360
      8 C           1.9318   -0.5000    0.9880 C.ar    1  UNL1        0.1584
      9 N           0.8568   -1.3984    0.9470 N.ar    1  UNL1       -0.1821
     10 N           0.7162   -2.5007    1.6291 N.ar    1  UNL1       -0.1703
     11 C          -0.4297   -3.1133    1.3443 C.ar    1  UNL1        0.0535
     12 C          -1.0692   -2.3385    0.4059 C.ar    1  UNL1        0.0198
     13 C          -0.2513   -1.2573    0.1599 C.ar    1  UNL1        0.2195
     14 O          -0.3842   -0.1883   -0.6672 O.3     1  UNL1       -0.4715
     15 C          -1.3158    0.2631   -1.5505 C.3     1  UNL1        0.1163
     16 C          -2.6045    0.5435   -0.8827 C.ar    1  UNL1       -0.0102
     17 C          -2.8078    1.7446   -0.2364 C.ar    1  UNL1       -0.0526
     18 C          -4.0268    1.9967    0.3542 C.ar    1  UNL1       -0.0261
     19 C          -5.0390    1.0706    0.3081 C.ar    1  UNL1        0.1234
     20 F          -6.2592    1.3025    0.8898 F       1  UNL1       -0.2055
     21 C          -4.8354   -0.1280   -0.3373 C.ar    1  UNL1       -0.0261
     22 C          -3.6128   -0.3801   -0.9296 C.ar    1  UNL1       -0.0526
     23 C           2.9008   -0.4680   -0.0241 C.ar    1  UNL1       -0.0033
     24 H           6.8668    0.8782   -1.6214 H       1  UNL1        0.2954
     25 H           4.8975    1.9555    1.0705 H       1  UNL1        0.0641
     26 H           3.1872    1.9239    2.8905 H       1  UNL1        0.0830
     27 H          -0.7558   -4.0509    1.7962 H       1  UNL1        0.0849
     28 H          -2.0039   -2.5332   -0.0464 H       1  UNL1        0.0686
     29 H          -1.4863   -0.5002   -2.3724 H       1  UNL1        0.0748
     30 H          -0.9668    1.1907   -2.1180 H       1  UNL1        0.0748
     31 H          -2.0231    2.5109   -0.1778 H       1  UNL1        0.0622
     32 H          -4.1949    2.9351    0.8627 H       1  UNL1        0.0646
     33 H          -5.6436   -0.8605   -0.3709 H       1  UNL1        0.0646
     34 H          -3.4866   -1.3452   -1.4441 H       1  UNL1        0.0622
     35 H           2.8009   -1.1639   -0.8541 H       1  UNL1        0.0663
@<TRIPOS>BOND
     1     1     2    2
     2     2     3    1
     3     2     4    1
     4     4     5   ar
     5     5     6   ar
     6     6     7   ar
     7     7     8   ar
     8     8     9    1
     9     9    10   ar
    10    10    11   ar
    11    11    12   ar
    12    12    13   ar
    13    13    14    1
    14    14    15    1
    15    15    16    1
    16    16    17   ar
    17    17    18   ar
    18    18    19   ar
    19    19    20    1
    20    19    21   ar
    21    21    22   ar
    22     8    23   ar
    23    23     4   ar
    24    13     9   ar
    25    22    16   ar
    26     3    24    1
    27     5    25    1
    28     6    26    1
    29    11    27    1
    30    12    28    1
    31    15    29    1
    32    15    30    1
    33    17    31    1
    34    18    32    1
    35    21    33    1
    36    22    34    1
    37    23    35    1
