
     RDKit          3D

 35 37  0  0  0  0  0  0  0  0999 V2000
    4.7910   -0.4554   -2.0659 O   0  0  0  0  0  0  0  0  0  0  0  0
    4.9327    0.3600   -1.1201 C   0  0  0  0  0  0  0  0  0  0  0  0
    6.0267    1.2095   -1.1655 O   0  0  0  0  0  0  0  0  0  0  0  0
    3.9634    0.3842   -0.0319 C   0  0  0  0  0  0  0  0  0  0  0  0
    4.0887    1.2666    1.0220 C   0  0  0  0  0  0  0  0  0  0  0  0
    3.1339    1.2534    2.0441 C   0  0  0  0  0  0  0  0  0  0  0  0
    2.1023    0.3929    2.0068 N   0  0  0  0  0  0  0  0  0  0  0  0
    1.9318   -0.5000    0.9880 C   0  0  0  0  0  0  0  0  0  0  0  0
    0.8568   -1.3984    0.9470 N   0  0  0  0  0  0  0  0  0  0  0  0
    0.7162   -2.5007    1.6291 N   0  0  0  0  0  0  0  0  0  0  0  0
   -0.4297   -3.1133    1.3443 C   0  0  0  0  0  0  0  0  0  0  0  0
   -1.0692   -2.3385    0.4059 C   0  0  0  0  0  0  0  0  0  0  0  0
   -0.2513   -1.2573    0.1599 C   0  0  0  0  0  0  0  0  0  0  0  0
   -0.3842   -0.1883   -0.6672 O   0  0  0  0  0  0  0  0  0  0  0  0
   -1.3158    0.2631   -1.5505 C   0  0  0  0  0  0  0  0  0  0  0  0
   -2.6045    0.5435   -0.8827 C   0  0  0  0  0  0  0  0  0  0  0  0
   -2.8078    1.7446   -0.2364 C   0  0  0  0  0  0  0  0  0  0  0  0
   -4.0268    1.9967    0.3542 C   0  0  0  0  0  0  0  0  0  0  0  0
   -5.0390    1.0706    0.3081 C   0  0  0  0  0  0  0  0  0  0  0  0
   -6.2592    1.3025    0.8898 F   0  0  0  0  0  0  0  0  0  0  0  0
   -4.8354   -0.1280   -0.3373 C   0  0  0  0  0  0  0  0  0  0  0  0
   -3.6128   -0.3801   -0.9296 C   0  0  0  0  0  0  0  0  0  0  0  0
    2.9008   -0.4680   -0.0241 C   0  0  0  0  0  0  0  0  0  0  0  0
    6.8668    0.8782   -1.6214 H   0  0  0  0  0  0  0  0  0  0  0  0
    4.8975    1.9555    1.0705 H   0  0  0  0  0  0  0  0  0  0  0  0
    3.1872    1.9239    2.8905 H   0  0  0  0  0  0  0  0  0  0  0  0
   -0.7558   -4.0509    1.7962 H   0  0  0  0  0  0  0  0  0  0  0  0
   -2.0039   -2.5332   -0.0464 H   0  0  0  0  0  0  0  0  0  0  0  0
   -1.4863   -0.5002   -2.3724 H   0  0  0  0  0  0  0  0  0  0  0  0
   -0.9668    1.1907   -2.1180 H   0  0  0  0  0  0  0  0  0  0  0  0
   -2.0231    2.5109   -0.1778 H   0  0  0  0  0  0  0  0  0  0  0  0
   -4.1949    2.9351    0.8627 H   0  0  0  0  0  0  0  0  0  0  0  0
   -5.6436   -0.8605   -0.3709 H   0  0  0  0  0  0  0  0  0  0  0  0
   -3.4866   -1.3452   -1.4441 H   0  0  0  0  0  0  0  0  0  0  0  0
    2.8009   -1.1639   -0.8541 H   0  0  0  0  0  0  0  0  0  0  0  0
  1  2  2  0
  2  3  1  0
  2  4  1  0
  4  5  2  0
  5  6  1  0
  6  7  2  0
  7  8  1  0
  8  9  1  0
  9 10  1  0
 10 11  2  0
 11 12  1  0
 12 13  2  0
 13 14  1  0
 14 15  1  0
 15 16  1  0
 16 17  2  0
 17 18  1  0
 18 19  2  0
 19 20  1  0
 19 21  1  0
 21 22  2  0
  8 23  2  0
 23  4  1  0
 13  9  1  0
 22 16  1  0
  3 24  1  0
  5 25  1  0
  6 26  1  0
 11 27  1  0
 12 28  1  0
 15 29  1  0
 15 30  1  0
 17 31  1  0
 18 32  1  0
 21 33  1  0
 22 34  1  0
 23 35  1  0
M  END
$$$$
