
     RDKit          3D

 55 60  0  0  0  0  0  0  0  0999 V2000
   -3.5906    1.7185    1.7090 C   0  0  0  0  0  0  0  0  0  0  0  0
   -4.4576    1.6608    0.6767 O   0  0  0  0  0  0  0  0  0  0  0  0
   -4.0232    1.4618   -0.5923 C   0  0  0  0  0  0  0  0  0  0  0  0
   -3.2312    0.2214   -0.7392 C   0  0  0  0  0  0  0  0  0  0  0  0
   -3.7687   -1.0225   -0.8860 N   0  0  0  0  0  0  0  0  0  0  0  0
   -2.8084   -1.9283   -0.8931 N   0  0  0  0  0  0  0  0  0  0  0  0
   -2.9625   -3.3812   -1.0193 C   0  0  0  0  0  0  0  0  0  0  0  0
   -2.5018   -4.0478   -2.2884 C   0  0  0  0  0  0  0  0  0  0  0  0
   -3.9924   -3.8073   -2.0701 C   0  0  0  0  0  0  0  0  0  0  0  0
   -1.6143   -1.3179   -0.7551 C   0  0  0  0  0  0  0  0  0  0  0  0
   -1.8463    0.0304   -0.6578 C   0  0  0  0  0  0  0  0  0  0  0  0
   -0.5612    0.7217   -0.5553 C   0  0  1  0  0  0  0  0  0  0  0  0
   -0.4588    1.7196    0.5203 C   0  0  0  0  0  0  0  0  0  0  0  0
   -0.1885    1.4128    1.8152 C   0  0  0  0  0  0  0  0  0  0  0  0
   -0.1056    2.3909    2.7812 C   0  0  0  0  0  0  0  0  0  0  0  0
   -0.3019    3.7269    2.4275 C   0  0  0  0  0  0  0  0  0  0  0  0
   -0.2027    5.0094    3.6412 Cl  0  0  0  0  0  0  0  0  0  0  0  0
   -0.5774    4.0755    1.1233 C   0  0  0  0  0  0  0  0  0  0  0  0
   -0.6522    3.0662    0.1887 C   0  0  0  0  0  0  0  0  0  0  0  0
    0.4542   -0.2833   -0.5360 N   0  0  0  0  0  0  0  0  0  0  0  0
    1.8808   -0.0848   -0.3856 C   0  0  0  0  0  0  0  0  0  0  0  0
    2.4388    1.1707   -0.4347 C   0  0  0  0  0  0  0  0  0  0  0  0
    3.7945    1.3311   -0.2680 C   0  0  0  0  0  0  0  0  0  0  0  0
    4.3545    2.6394   -0.3219 N   0  0  0  0  0  0  0  0  0  0  0  0
    4.5937    0.2301   -0.0522 C   0  0  0  0  0  0  0  0  0  0  0  0
    5.9240    0.1099    0.1384 N   0  0  0  0  0  0  0  0  0  0  0  0
    6.1974   -1.1706    0.3007 N   0  0  0  0  0  0  0  0  0  0  0  0
    5.0722   -1.9029    0.2214 C   0  0  0  0  0  0  0  0  0  0  0  0
    4.8778   -3.3541    0.3386 C   0  0  0  0  0  0  0  0  0  0  0  0
    4.0788   -1.0070    0.0004 N   0  0  0  0  0  0  0  0  0  0  0  0
    2.7409   -1.1323   -0.1669 C   0  0  0  0  0  0  0  0  0  0  0  0
   -0.1761   -1.5379   -0.6788 C   0  0  0  0  0  0  0  0  0  0  0  0
    0.3407   -2.6955   -0.7388 O   0  0  0  0  0  0  0  0  0  0  0  0
   -2.9724    0.7861    1.8179 H   0  0  0  0  0  0  0  0  0  0  0  0
   -2.9389    2.5890    1.7927 H   0  0  0  0  0  0  0  0  0  0  0  0
   -4.2067    1.6791    2.6842 H   0  0  0  0  0  0  0  0  0  0  0  0
   -4.8276    1.5513   -1.3591 H   0  0  0  0  0  0  0  0  0  0  0  0
   -3.3415    2.3371   -0.8341 H   0  0  0  0  0  0  0  0  0  0  0  0
   -2.9386   -3.9815   -0.0917 H   0  0  0  0  0  0  0  0  0  0  0  0
   -1.9921   -3.4248   -3.0576 H   0  0  0  0  0  0  0  0  0  0  0  0
   -2.1796   -5.1052   -2.2235 H   0  0  0  0  0  0  0  0  0  0  0  0
   -4.4334   -3.0135   -2.7118 H   0  0  0  0  0  0  0  0  0  0  0  0
   -4.6310   -4.6903   -1.8580 H   0  0  0  0  0  0  0  0  0  0  0  0
   -0.3950    1.2732   -1.5411 H   0  0  0  0  0  0  0  0  0  0  0  0
   -0.0333    0.3867    2.1080 H   0  0  0  0  0  0  0  0  0  0  0  0
    0.1055    2.1988    3.8167 H   0  0  0  0  0  0  0  0  0  0  0  0
   -0.7399    5.1034    0.7909 H   0  0  0  0  0  0  0  0  0  0  0  0
   -0.8698    3.3133   -0.8576 H   0  0  0  0  0  0  0  0  0  0  0  0
    1.7967    2.0184   -0.6159 H   0  0  0  0  0  0  0  0  0  0  0  0
    4.7737    3.0766    0.5259 H   0  0  0  0  0  0  0  0  0  0  0  0
    4.3686    3.2007   -1.1939 H   0  0  0  0  0  0  0  0  0  0  0  0
    4.2160   -3.5762    1.2146 H   0  0  0  0  0  0  0  0  0  0  0  0
    4.2974   -3.6782   -0.5583 H   0  0  0  0  0  0  0  0  0  0  0  0
    5.8341   -3.8961    0.4160 H   0  0  0  0  0  0  0  0  0  0  0  0
    2.3810   -2.1713   -0.1072 H   0  0  0  0  0  0  0  0  0  0  0  0
  1  2  1  0
  2  3  1  0
  3  4  1  0
  4  5  2  0
  5  6  1  0
  6  7  1  0
  7  8  1  0
  8  9  1  0
  6 10  1  0
 10 11  2  0
 11 12  1  0
 12 13  1  0
 13 14  2  0
 14 15  1  0
 15 16  2  0
 16 17  1  0
 16 18  1  0
 18 19  2  0
 12 20  1  0
 20 21  1  0
 21 22  1  0
 22 23  2  0
 23 24  1  0
 23 25  1  0
 25 26  2  0
 26 27  1  0
 27 28  2  0
 28 29  1  0
 28 30  1  0
 30 31  1  0
 20 32  1  0
 32 33  2  0
 11  4  1  0
 19 13  1  0
 31 21  2  0
  9  7  1  0
 32 10  1  0
 30 25  1  0
  1 34  1  0
  1 35  1  0
  1 36  1  0
  3 37  1  0
  3 38  1  0
  7 39  1  0
  8 40  1  0
  8 41  1  0
  9 42  1  0
  9 43  1  0
 12 44  1  6
 14 45  1  0
 15 46  1  0
 18 47  1  0
 19 48  1  0
 22 49  1  0
 24 50  1  0
 24 51  1  0
 29 52  1  0
 29 53  1  0
 29 54  1  0
 31 55  1  0
M  END
$$$$
