@<TRIPOS>MOLECULE
*****
 55 60 0 0 0
SMALL
GASTEIGER

@<TRIPOS>ATOM
      1 C          -3.5906    1.7185    1.7090 C.3     1  UNL1        0.0369
      2 O          -4.4576    1.6608    0.6767 O.3     1  UNL1       -0.3768
      3 C          -4.0232    1.4618   -0.5923 C.3     1  UNL1        0.0913
      4 C          -3.2312    0.2214   -0.7392 C.ar    1  UNL1        0.0946
      5 N          -3.7687   -1.0225   -0.8860 N.ar    1  UNL1       -0.1726
      6 N          -2.8084   -1.9283   -0.8931 N.ar    1  UNL1       -0.2555
      7 C          -2.9625   -3.3812   -1.0193 C.3     1  UNL1        0.0537
      8 C          -2.5018   -4.0478   -2.2884 C.3     1  UNL1       -0.0285
      9 C          -3.9924   -3.8073   -2.0701 C.3     1  UNL1       -0.0285
     10 C          -1.6143   -1.3179   -0.7551 C.ar    1  UNL1        0.1297
     11 C          -1.8463    0.0304   -0.6578 C.ar    1  UNL1        0.0330
     12 C          -0.5612    0.7217   -0.5553 C.3     1  UNL1        0.0855
     13 C          -0.4588    1.7196    0.5203 C.ar    1  UNL1       -0.0221
     14 C          -0.1885    1.4128    1.8152 C.ar    1  UNL1       -0.0551
     15 C          -0.1056    2.3909    2.7812 C.ar    1  UNL1       -0.0431
     16 C          -0.3019    3.7269    2.4275 C.ar    1  UNL1        0.0410
     17 CL         -0.2027    5.0094    3.6412 Cl      1  UNL1       -0.0835
     18 C          -0.5774    4.0755    1.1233 C.ar    1  UNL1       -0.0431
     19 C          -0.6522    3.0662    0.1887 C.ar    1  UNL1       -0.0551
     20 N           0.4542   -0.2833   -0.5360 N.am    1  UNL1       -0.2531
     21 C           1.8808   -0.0848   -0.3856 C.ar    1  UNL1        0.0560
     22 C           2.4388    1.1707   -0.4347 C.ar    1  UNL1       -0.0145
     23 C           3.7945    1.3311   -0.2680 C.ar    1  UNL1        0.0716
     24 N           4.3545    2.6394   -0.3219 N.pl3   1  UNL1       -0.3550
     25 C           4.5937    0.2301   -0.0522 C.ar    1  UNL1        0.1820
     26 N           5.9240    0.1099    0.1384 N.ar    1  UNL1       -0.1275
     27 N           6.1974   -1.1706    0.3007 N.ar    1  UNL1       -0.1339
     28 C           5.0722   -1.9029    0.2214 C.ar    1  UNL1        0.1347
     29 C           4.8778   -3.3541    0.3386 C.3     1  UNL1       -0.0041
     30 N           4.0788   -1.0070    0.0004 N.ar    1  UNL1       -0.2833
     31 C           2.7409   -1.1323   -0.1669 C.ar    1  UNL1        0.0345
     32 C          -0.1761   -1.5379   -0.6788 C.2     1  UNL1        0.2700
     33 O           0.3407   -2.6955   -0.7388 O.2     1  UNL1       -0.2679
     34 H          -2.9724    0.7861    1.8179 H       1  UNL1        0.0524
     35 H          -2.9389    2.5890    1.7927 H       1  UNL1        0.0524
     36 H          -4.2067    1.6791    2.6842 H       1  UNL1        0.0524
     37 H          -4.8276    1.5513   -1.3591 H       1  UNL1        0.0626
     38 H          -3.3415    2.3371   -0.8341 H       1  UNL1        0.0626
     39 H          -2.9386   -3.9815   -0.0917 H       1  UNL1        0.0545
     40 H          -1.9921   -3.4248   -3.0576 H       1  UNL1        0.0286
     41 H          -2.1796   -5.1052   -2.2235 H       1  UNL1        0.0286
     42 H          -4.4334   -3.0135   -2.7118 H       1  UNL1        0.0286
     43 H          -4.6310   -4.6903   -1.8580 H       1  UNL1        0.0286
     44 H          -0.3950    1.2732   -1.5411 H       1  UNL1        0.0606
     45 H          -0.0333    0.3867    2.1080 H       1  UNL1        0.0621
     46 H           0.1055    2.1988    3.8167 H       1  UNL1        0.0632
     47 H          -0.7399    5.1034    0.7909 H       1  UNL1        0.0632
     48 H          -0.8698    3.3133   -0.8576 H       1  UNL1        0.0621
     49 H           1.7967    2.0184   -0.6159 H       1  UNL1        0.0656
     50 H           4.7737    3.0766    0.5259 H       1  UNL1        0.1424
     51 H           4.3686    3.2007   -1.1939 H       1  UNL1        0.1424
     52 H           4.2160   -3.5762    1.2146 H       1  UNL1        0.0308
     53 H           4.2974   -3.6782   -0.5583 H       1  UNL1        0.0308
     54 H           5.8341   -3.8961    0.4160 H       1  UNL1        0.0308
     55 H           2.3810   -2.1713   -0.1072 H       1  UNL1        0.0833
@<TRIPOS>BOND
     1     1     2    1
     2     2     3    1
     3     3     4    1
     4     4     5   ar
     5     5     6   ar
     6     6     7    1
     7     7     8    1
     8     8     9    1
     9     6    10   ar
    10    10    11   ar
    11    11    12    1
    12    12    13    1
    13    13    14   ar
    14    14    15   ar
    15    15    16   ar
    16    16    17    1
    17    16    18   ar
    18    18    19   ar
    19    12    20    1
    20    20    21    1
    21    21    22   ar
    22    22    23   ar
    23    23    24    1
    24    23    25   ar
    25    25    26   ar
    26    26    27   ar
    27    27    28   ar
    28    28    29    1
    29    28    30   ar
    30    30    31   ar
    31    20    32   am
    32    32    33    2
    33    11     4   ar
    34    19    13   ar
    35    31    21   ar
    36     9     7    1
    37    32    10    1
    38    30    25   ar
    39     1    34    1
    40     1    35    1
    41     1    36    1
    42     3    37    1
    43     3    38    1
    44     7    39    1
    45     8    40    1
    46     8    41    1
    47     9    42    1
    48     9    43    1
    49    12    44    1
    50    14    45    1
    51    15    46    1
    52    18    47    1
    53    19    48    1
    54    22    49    1
    55    24    50    1
    56    24    51    1
    57    29    52    1
    58    29    53    1
    59    29    54    1
    60    31    55    1
