@<TRIPOS>MOLECULE
*****
 54 57 0 0 0
SMALL
GASTEIGER

@<TRIPOS>ATOM
      1 C           0.7367   -1.0722    0.2088 C.3     1  UNL1       -0.0298
      2 C           1.4449   -1.7737    1.3160 C.3     1  UNL1       -0.0467
      3 C           2.8951   -1.6289    0.8490 C.3     1  UNL1       -0.0229
      4 C           2.9202   -0.2439    0.2362 C.3     1  UNL1        0.0751
      5 O           3.6148    0.5715    1.1341 O.3     1  UNL1       -0.3877
      6 C           3.7122   -0.2146   -1.0494 C.3     1  UNL1       -0.0055
      7 C           5.1227   -0.6270   -0.8108 C.2     1  UNL1       -0.0884
      8 C           6.2697   -0.0010   -0.9969 C.2     1  UNL1       -0.1025
      9 C           1.5235    0.2120    0.0957 C.3     1  UNL1        0.0001
     10 C           1.2058    1.2144    1.1620 C.3     1  UNL1       -0.0567
     11 C           1.1574    0.7998   -1.2282 C.3     1  UNL1       -0.0445
     12 C          -0.3043    1.2105   -1.0887 C.3     1  UNL1       -0.0488
     13 C          -1.1969    0.1016   -0.6706 C.3     1  UNL1       -0.0314
     14 C          -2.4957    0.7157   -0.1586 C.3     1  UNL1       -0.0168
     15 C          -3.1139    1.5986   -1.2207 C.3     1  UNL1       -0.0460
     16 C          -4.3466    2.2000   -0.6063 C.3     1  UNL1       -0.0491
     17 C          -5.3099    1.1220   -0.2487 C.3     1  UNL1       -0.0345
     18 C          -4.7250   -0.1959    0.0260 C.2     1  UNL1       -0.0845
     19 C          -3.4170   -0.4359    0.0785 C.2     1  UNL1       -0.0701
     20 C          -2.9938   -1.8180    0.3661 C.3     1  UNL1       -0.0312
     21 C          -1.5345   -2.0414    0.4016 C.3     1  UNL1       -0.0460
     22 C          -0.6965   -0.7664    0.4437 C.3     1  UNL1       -0.0340
     23 H           0.8352   -1.6460   -0.7108 H       1  UNL1        0.0310
     24 H           1.3455   -1.1536    2.2297 H       1  UNL1        0.0269
     25 H           1.1692   -2.8257    1.4560 H       1  UNL1        0.0269
     26 H           3.1282   -2.3931    0.0629 H       1  UNL1        0.0293
     27 H           3.6062   -1.7304    1.6953 H       1  UNL1        0.0293
     28 H           4.3009    0.0698    1.6485 H       1  UNL1        0.2102
     29 H           3.7186    0.7603   -1.5313 H       1  UNL1        0.0335
     30 H           3.2829   -0.9555   -1.7483 H       1  UNL1        0.0335
     31 H           5.1707   -1.6339   -0.4099 H       1  UNL1        0.0567
     32 H           7.2784    0.4195   -1.1092 H       1  UNL1        0.0532
     33 H           6.3637    1.0055   -1.3900 H       1  UNL1        0.0532
     34 H           1.7868    1.0404    2.1045 H       1  UNL1        0.0236
     35 H           0.1454    1.3897    1.3546 H       1  UNL1        0.0236
     36 H           1.5921    2.2078    0.7865 H       1  UNL1        0.0236
     37 H           1.2686    0.0566   -2.0256 H       1  UNL1        0.0272
     38 H           1.6967    1.7666   -1.4313 H       1  UNL1        0.0272
     39 H          -0.3911    2.1243   -0.4717 H       1  UNL1        0.0268
     40 H          -0.6217    1.5217   -2.1194 H       1  UNL1        0.0268
     41 H          -1.4760   -0.5079   -1.5613 H       1  UNL1        0.0309
     42 H          -2.2936    1.2563    0.7739 H       1  UNL1        0.0348
     43 H          -3.3695    0.9631   -2.0832 H       1  UNL1        0.0271
     44 H          -2.3731    2.3985   -1.4724 H       1  UNL1        0.0271
     45 H          -4.0448    2.7748    0.3057 H       1  UNL1        0.0268
     46 H          -4.7930    2.9566   -1.3045 H       1  UNL1        0.0268
     47 H          -5.9530    1.4247    0.6063 H       1  UNL1        0.0307
     48 H          -6.0115    1.0246   -1.1280 H       1  UNL1        0.0307
     49 H          -5.4927   -0.9632    0.1836 H       1  UNL1        0.0572
     50 H          -3.5494   -2.1766    1.2717 H       1  UNL1        0.0310
     51 H          -3.4141   -2.4364   -0.4808 H       1  UNL1        0.0310
     52 H          -1.1680   -2.7397   -0.3876 H       1  UNL1        0.0271
     53 H          -1.2891   -2.5744    1.3623 H       1  UNL1        0.0271
     54 H          -0.9173   -0.3512    1.4579 H       1  UNL1        0.0307
@<TRIPOS>BOND
     1     1     2    1
     2     2     3    1
     3     3     4    1
     4     4     5    1
     5     4     6    1
     6     6     7    1
     7     7     8    2
     8     4     9    1
     9     9    10    1
    10     9    11    1
    11    11    12    1
    12    12    13    1
    13    13    14    1
    14    14    15    1
    15    15    16    1
    16    16    17    1
    17    17    18    1
    18    18    19    2
    19    19    20    1
    20    20    21    1
    21    21    22    1
    22     9     1    1
    23    22    13    1
    24    22     1    1
    25    19    14    1
    26     1    23    1
    27     2    24    1
    28     2    25    1
    29     3    26    1
    30     3    27    1
    31     5    28    1
    32     6    29    1
    33     6    30    1
    34     7    31    1
    35     8    32    1
    36     8    33    1
    37    10    34    1
    38    10    35    1
    39    10    36    1
    40    11    37    1
    41    11    38    1
    42    12    39    1
    43    12    40    1
    44    13    41    1
    45    14    42    1
    46    15    43    1
    47    15    44    1
    48    16    45    1
    49    16    46    1
    50    17    47    1
    51    17    48    1
    52    18    49    1
    53    20    50    1
    54    20    51    1
    55    21    52    1
    56    21    53    1
    57    22    54    1
