@<TRIPOS>MOLECULE
*****
 87 87 0 0 0
SMALL
GASTEIGER

@<TRIPOS>ATOM
      1 C          -7.5570   -0.1901    2.6231 C.3     1  UNL1       -0.0653
      2 C          -7.6235   -1.4947    1.9272 C.3     1  UNL1       -0.0559
      3 C          -6.4085   -2.2892    1.7345 C.3     1  UNL1       -0.0519
      4 C          -5.3037   -1.7668    0.8751 C.3     1  UNL1       -0.0371
      5 C          -4.7453   -0.4906    1.3679 C.3     1  UNL1        0.0161
      6 N          -3.5562   -0.0482    0.5487 N.am    1  UNL1       -0.2855
      7 C          -3.7758    0.9721   -0.3912 C.3     1  UNL1        0.0161
      8 C          -3.9075    0.7680   -1.8266 C.3     1  UNL1       -0.0371
      9 C          -4.9853   -0.0584   -2.3981 C.3     1  UNL1       -0.0519
     10 C          -6.3763    0.3715   -2.0844 C.3     1  UNL1       -0.0559
     11 C          -6.6933    1.7641   -2.5829 C.3     1  UNL1       -0.0653
     12 C          -2.3598   -0.6466    0.9833 C.2     1  UNL1        0.3049
     13 O          -2.5203   -1.4444    2.0248 O.2     1  UNL1       -0.2524
     14 N          -1.0423   -0.5901    0.5656 N.am    1  UNL1       -0.2817
     15 C          -0.5661    0.1677   -0.5490 C.3     1  UNL1        0.0321
     16 C           0.9843    0.1228   -0.6798 C.3     1  UNL1        0.0329
     17 N           1.6575    0.2497    0.5709 N.am    1  UNL1       -0.2690
     18 C           2.9590    0.7475    0.7210 C.2     1  UNL1        0.3056
     19 O           3.3113    1.0511    1.9659 O.2     1  UNL1       -0.2524
     20 N           3.9949    0.9930   -0.1814 N.am    1  UNL1       -0.2855
     21 C           3.9739    0.6707   -1.5628 C.3     1  UNL1        0.0161
     22 C           4.4552   -0.7421   -1.8873 C.3     1  UNL1       -0.0371
     23 C           4.3280   -0.8638   -3.4042 C.3     1  UNL1       -0.0519
     24 C           4.8027   -2.2703   -3.7616 C.3     1  UNL1       -0.0559
     25 C           3.8925   -3.2380   -3.0300 C.3     1  UNL1       -0.0653
     26 C           5.1859    1.7100    0.3772 C.3     1  UNL1        0.0161
     27 C           6.1800    0.7831    0.9673 C.3     1  UNL1       -0.0371
     28 C           7.3997    1.4631    1.4658 C.3     1  UNL1       -0.0519
     29 C           7.2817    2.4832    2.5221 C.3     1  UNL1       -0.0559
     30 C           6.5296    3.7322    2.2246 C.3     1  UNL1       -0.0653
     31 C           0.9821   -0.2458    1.7790 C.3     1  UNL1        0.1399
     32 C           1.8992   -0.8798    2.7446 C.2     1  UNL1        0.3271
     33 O           2.9971   -1.3260    2.3831 O.2     1  UNL1       -0.2488
     34 O           1.5238   -0.9747    4.0691 O.3     1  UNL1       -0.4793
     35 C           0.0192   -1.3331    1.2650 C.3     1  UNL1        0.0452
     36 H          -8.4659   -0.1033    3.3134 H       1  UNL1        0.0230
     37 H          -7.6588    0.6308    1.8828 H       1  UNL1        0.0230
     38 H          -6.6562    0.0006    3.2285 H       1  UNL1        0.0230
     39 H          -8.3946   -2.1266    2.4884 H       1  UNL1        0.0263
     40 H          -8.1457   -1.3561    0.9278 H       1  UNL1        0.0263
     41 H          -6.6921   -3.3422    1.4384 H       1  UNL1        0.0266
     42 H          -5.9288   -2.4087    2.7706 H       1  UNL1        0.0266
     43 H          -4.5100   -2.5757    0.8722 H       1  UNL1        0.0280
     44 H          -5.6231   -1.7159   -0.1920 H       1  UNL1        0.0280
     45 H          -5.4715    0.3582    1.3265 H       1  UNL1        0.0465
     46 H          -4.3999   -0.5470    2.4082 H       1  UNL1        0.0465
     47 H          -4.6773    1.5915    0.0102 H       1  UNL1        0.0465
     48 H          -2.9626    1.7567   -0.2358 H       1  UNL1        0.0465
     49 H          -2.9364    0.3061   -2.1978 H       1  UNL1        0.0280
     50 H          -3.8476    1.7906   -2.3636 H       1  UNL1        0.0280
     51 H          -4.8617    0.0113   -3.5301 H       1  UNL1        0.0266
     52 H          -4.8334   -1.1190   -2.1838 H       1  UNL1        0.0266
     53 H          -7.0877   -0.3243   -2.5704 H       1  UNL1        0.0263
     54 H          -6.5649    0.2958   -0.9841 H       1  UNL1        0.0263
     55 H          -6.1719    2.0245   -3.5006 H       1  UNL1        0.0230
     56 H          -7.7800    1.9227   -2.7397 H       1  UNL1        0.0230
     57 H          -6.4006    2.4640   -1.7479 H       1  UNL1        0.0230
     58 H          -0.9052   -0.3839   -1.4628 H       1  UNL1        0.0480
     59 H          -0.8130    1.2247   -0.5226 H       1  UNL1        0.0480
     60 H           1.1518    1.1095   -1.2514 H       1  UNL1        0.0481
     61 H           1.2849   -0.7408   -1.2641 H       1  UNL1        0.0481
     62 H           3.0034    0.7653   -2.0182 H       1  UNL1        0.0465
     63 H           4.6273    1.4047   -2.1562 H       1  UNL1        0.0465
     64 H           3.7505   -1.4448   -1.4436 H       1  UNL1        0.0280
     65 H           5.4794   -0.9471   -1.6013 H       1  UNL1        0.0280
     66 H           4.9631   -0.1343   -3.9247 H       1  UNL1        0.0266
     67 H           3.2995   -0.7256   -3.7483 H       1  UNL1        0.0266
     68 H           5.8086   -2.3798   -3.3224 H       1  UNL1        0.0263
     69 H           4.7834   -2.4367   -4.8509 H       1  UNL1        0.0263
     70 H           4.2045   -3.3766   -1.9767 H       1  UNL1        0.0230
     71 H           2.8516   -2.8990   -3.0205 H       1  UNL1        0.0230
     72 H           3.9288   -4.1943   -3.6005 H       1  UNL1        0.0230
     73 H           5.5362    2.3726   -0.4182 H       1  UNL1        0.0465
     74 H           4.7971    2.3497    1.2045 H       1  UNL1        0.0465
     75 H           6.4276   -0.0854    0.3069 H       1  UNL1        0.0280
     76 H           5.7340    0.2536    1.8840 H       1  UNL1        0.0280
     77 H           8.1073    0.6594    1.8646 H       1  UNL1        0.0266
     78 H           7.9541    1.9367    0.5930 H       1  UNL1        0.0266
     79 H           6.8611    2.0433    3.4877 H       1  UNL1        0.0263
     80 H           8.3395    2.7911    2.8187 H       1  UNL1        0.0263
     81 H           6.4286    3.9708    1.1539 H       1  UNL1        0.0230
     82 H           7.1205    4.6142    2.6701 H       1  UNL1        0.0230
     83 H           5.5547    3.8336    2.7800 H       1  UNL1        0.0230
     84 H           0.3860    0.5423    2.2426 H       1  UNL1        0.0633
     85 H           2.2236   -0.9046    4.8183 H       1  UNL1        0.2951
     86 H           0.5894   -1.9192    0.5248 H       1  UNL1        0.0489
     87 H          -0.3442   -1.9904    2.0435 H       1  UNL1        0.0489
@<TRIPOS>BOND
     1     1     2    1
     2     2     3    1
     3     3     4    1
     4     4     5    1
     5     5     6    1
     6     6     7    1
     7     7     8    1
     8     8     9    1
     9     9    10    1
    10    10    11    1
    11     6    12   am
    12    12    13    2
    13    12    14   am
    14    14    15    1
    15    15    16    1
    16    16    17    1
    17    17    18   am
    18    18    19    2
    19    18    20   am
    20    20    21    1
    21    21    22    1
    22    22    23    1
    23    23    24    1
    24    24    25    1
    25    20    26    1
    26    26    27    1
    27    27    28    1
    28    28    29    1
    29    29    30    1
    30    17    31    1
    31    31    32    1
    32    32    33    2
    33    32    34    1
    34    31    35    1
    35    35    14    1
    36     1    36    1
    37     1    37    1
    38     1    38    1
    39     2    39    1
    40     2    40    1
    41     3    41    1
    42     3    42    1
    43     4    43    1
    44     4    44    1
    45     5    45    1
    46     5    46    1
    47     7    47    1
    48     7    48    1
    49     8    49    1
    50     8    50    1
    51     9    51    1
    52     9    52    1
    53    10    53    1
    54    10    54    1
    55    11    55    1
    56    11    56    1
    57    11    57    1
    58    15    58    1
    59    15    59    1
    60    16    60    1
    61    16    61    1
    62    21    62    1
    63    21    63    1
    64    22    64    1
    65    22    65    1
    66    23    66    1
    67    23    67    1
    68    24    68    1
    69    24    69    1
    70    25    70    1
    71    25    71    1
    72    25    72    1
    73    26    73    1
    74    26    74    1
    75    27    75    1
    76    27    76    1
    77    28    77    1
    78    28    78    1
    79    29    79    1
    80    29    80    1
    81    30    81    1
    82    30    82    1
    83    30    83    1
    84    31    84    1
    85    34    85    1
    86    35    86    1
    87    35    87    1
