
     RDKit          3D

 87 87  0  0  0  0  0  0  0  0999 V2000
   -7.5570   -0.1901    2.6231 C   0  0  0  0  0  0  0  0  0  0  0  0
   -7.6235   -1.4947    1.9272 C   0  0  0  0  0  0  0  0  0  0  0  0
   -6.4085   -2.2892    1.7345 C   0  0  0  0  0  0  0  0  0  0  0  0
   -5.3037   -1.7668    0.8751 C   0  0  0  0  0  0  0  0  0  0  0  0
   -4.7453   -0.4906    1.3679 C   0  0  0  0  0  0  0  0  0  0  0  0
   -3.5562   -0.0482    0.5487 N   0  0  0  0  0  0  0  0  0  0  0  0
   -3.7758    0.9721   -0.3912 C   0  0  0  0  0  0  0  0  0  0  0  0
   -3.9075    0.7680   -1.8266 C   0  0  0  0  0  0  0  0  0  0  0  0
   -4.9853   -0.0584   -2.3981 C   0  0  0  0  0  0  0  0  0  0  0  0
   -6.3763    0.3715   -2.0844 C   0  0  0  0  0  0  0  0  0  0  0  0
   -6.6933    1.7641   -2.5829 C   0  0  0  0  0  0  0  0  0  0  0  0
   -2.3598   -0.6466    0.9833 C   0  0  0  0  0  0  0  0  0  0  0  0
   -2.5203   -1.4444    2.0248 O   0  0  0  0  0  0  0  0  0  0  0  0
   -1.0423   -0.5901    0.5656 N   0  0  0  0  0  0  0  0  0  0  0  0
   -0.5661    0.1677   -0.5490 C   0  0  0  0  0  0  0  0  0  0  0  0
    0.9843    0.1228   -0.6798 C   0  0  0  0  0  0  0  0  0  0  0  0
    1.6575    0.2497    0.5709 N   0  0  0  0  0  0  0  0  0  0  0  0
    2.9590    0.7475    0.7210 C   0  0  0  0  0  0  0  0  0  0  0  0
    3.3113    1.0511    1.9659 O   0  0  0  0  0  0  0  0  0  0  0  0
    3.9949    0.9930   -0.1814 N   0  0  0  0  0  0  0  0  0  0  0  0
    3.9739    0.6707   -1.5628 C   0  0  0  0  0  0  0  0  0  0  0  0
    4.4552   -0.7421   -1.8873 C   0  0  0  0  0  0  0  0  0  0  0  0
    4.3280   -0.8638   -3.4042 C   0  0  0  0  0  0  0  0  0  0  0  0
    4.8027   -2.2703   -3.7616 C   0  0  0  0  0  0  0  0  0  0  0  0
    3.8925   -3.2380   -3.0300 C   0  0  0  0  0  0  0  0  0  0  0  0
    5.1859    1.7100    0.3772 C   0  0  0  0  0  0  0  0  0  0  0  0
    6.1800    0.7831    0.9673 C   0  0  0  0  0  0  0  0  0  0  0  0
    7.3997    1.4631    1.4658 C   0  0  0  0  0  0  0  0  0  0  0  0
    7.2817    2.4832    2.5221 C   0  0  0  0  0  0  0  0  0  0  0  0
    6.5296    3.7322    2.2246 C   0  0  0  0  0  0  0  0  0  0  0  0
    0.9821   -0.2458    1.7790 C   0  0  2  0  0  0  0  0  0  0  0  0
    1.8992   -0.8798    2.7446 C   0  0  0  0  0  0  0  0  0  0  0  0
    2.9971   -1.3260    2.3831 O   0  0  0  0  0  0  0  0  0  0  0  0
    1.5238   -0.9747    4.0691 O   0  0  0  0  0  0  0  0  0  0  0  0
    0.0192   -1.3331    1.2650 C   0  0  0  0  0  0  0  0  0  0  0  0
   -8.4659   -0.1033    3.3134 H   0  0  0  0  0  0  0  0  0  0  0  0
   -7.6588    0.6308    1.8828 H   0  0  0  0  0  0  0  0  0  0  0  0
   -6.6562    0.0006    3.2285 H   0  0  0  0  0  0  0  0  0  0  0  0
   -8.3946   -2.1266    2.4884 H   0  0  0  0  0  0  0  0  0  0  0  0
   -8.1457   -1.3561    0.9278 H   0  0  0  0  0  0  0  0  0  0  0  0
   -6.6921   -3.3422    1.4384 H   0  0  0  0  0  0  0  0  0  0  0  0
   -5.9288   -2.4087    2.7706 H   0  0  0  0  0  0  0  0  0  0  0  0
   -4.5100   -2.5757    0.8722 H   0  0  0  0  0  0  0  0  0  0  0  0
   -5.6231   -1.7159   -0.1920 H   0  0  0  0  0  0  0  0  0  0  0  0
   -5.4715    0.3582    1.3265 H   0  0  0  0  0  0  0  0  0  0  0  0
   -4.3999   -0.5470    2.4082 H   0  0  0  0  0  0  0  0  0  0  0  0
   -4.6773    1.5915    0.0102 H   0  0  0  0  0  0  0  0  0  0  0  0
   -2.9626    1.7567   -0.2358 H   0  0  0  0  0  0  0  0  0  0  0  0
   -2.9364    0.3061   -2.1978 H   0  0  0  0  0  0  0  0  0  0  0  0
   -3.8476    1.7906   -2.3636 H   0  0  0  0  0  0  0  0  0  0  0  0
   -4.8617    0.0113   -3.5301 H   0  0  0  0  0  0  0  0  0  0  0  0
   -4.8334   -1.1190   -2.1838 H   0  0  0  0  0  0  0  0  0  0  0  0
   -7.0877   -0.3243   -2.5704 H   0  0  0  0  0  0  0  0  0  0  0  0
   -6.5649    0.2958   -0.9841 H   0  0  0  0  0  0  0  0  0  0  0  0
   -6.1719    2.0245   -3.5006 H   0  0  0  0  0  0  0  0  0  0  0  0
   -7.7800    1.9227   -2.7397 H   0  0  0  0  0  0  0  0  0  0  0  0
   -6.4006    2.4640   -1.7479 H   0  0  0  0  0  0  0  0  0  0  0  0
   -0.9052   -0.3839   -1.4628 H   0  0  0  0  0  0  0  0  0  0  0  0
   -0.8130    1.2247   -0.5226 H   0  0  0  0  0  0  0  0  0  0  0  0
    1.1518    1.1095   -1.2514 H   0  0  0  0  0  0  0  0  0  0  0  0
    1.2849   -0.7408   -1.2641 H   0  0  0  0  0  0  0  0  0  0  0  0
    3.0034    0.7653   -2.0182 H   0  0  0  0  0  0  0  0  0  0  0  0
    4.6273    1.4047   -2.1562 H   0  0  0  0  0  0  0  0  0  0  0  0
    3.7505   -1.4448   -1.4436 H   0  0  0  0  0  0  0  0  0  0  0  0
    5.4794   -0.9471   -1.6013 H   0  0  0  0  0  0  0  0  0  0  0  0
    4.9631   -0.1343   -3.9247 H   0  0  0  0  0  0  0  0  0  0  0  0
    3.2995   -0.7256   -3.7483 H   0  0  0  0  0  0  0  0  0  0  0  0
    5.8086   -2.3798   -3.3224 H   0  0  0  0  0  0  0  0  0  0  0  0
    4.7834   -2.4367   -4.8509 H   0  0  0  0  0  0  0  0  0  0  0  0
    4.2045   -3.3766   -1.9767 H   0  0  0  0  0  0  0  0  0  0  0  0
    2.8516   -2.8990   -3.0205 H   0  0  0  0  0  0  0  0  0  0  0  0
    3.9288   -4.1943   -3.6005 H   0  0  0  0  0  0  0  0  0  0  0  0
    5.5362    2.3726   -0.4182 H   0  0  0  0  0  0  0  0  0  0  0  0
    4.7971    2.3497    1.2045 H   0  0  0  0  0  0  0  0  0  0  0  0
    6.4276   -0.0854    0.3069 H   0  0  0  0  0  0  0  0  0  0  0  0
    5.7340    0.2536    1.8840 H   0  0  0  0  0  0  0  0  0  0  0  0
    8.1073    0.6594    1.8646 H   0  0  0  0  0  0  0  0  0  0  0  0
    7.9541    1.9367    0.5930 H   0  0  0  0  0  0  0  0  0  0  0  0
    6.8611    2.0433    3.4877 H   0  0  0  0  0  0  0  0  0  0  0  0
    8.3395    2.7911    2.8187 H   0  0  0  0  0  0  0  0  0  0  0  0
    6.4286    3.9708    1.1539 H   0  0  0  0  0  0  0  0  0  0  0  0
    7.1205    4.6142    2.6701 H   0  0  0  0  0  0  0  0  0  0  0  0
    5.5547    3.8336    2.7800 H   0  0  0  0  0  0  0  0  0  0  0  0
    0.3860    0.5423    2.2426 H   0  0  0  0  0  0  0  0  0  0  0  0
    2.2236   -0.9046    4.8183 H   0  0  0  0  0  0  0  0  0  0  0  0
    0.5894   -1.9192    0.5248 H   0  0  0  0  0  0  0  0  0  0  0  0
   -0.3442   -1.9904    2.0435 H   0  0  0  0  0  0  0  0  0  0  0  0
  1  2  1  0
  2  3  1  0
  3  4  1  0
  4  5  1  0
  5  6  1  0
  6  7  1  0
  7  8  1  0
  8  9  1  0
  9 10  1  0
 10 11  1  0
  6 12  1  0
 12 13  2  0
 12 14  1  0
 14 15  1  0
 15 16  1  0
 16 17  1  0
 17 18  1  0
 18 19  2  0
 18 20  1  0
 20 21  1  0
 21 22  1  0
 22 23  1  0
 23 24  1  0
 24 25  1  0
 20 26  1  0
 26 27  1  0
 27 28  1  0
 28 29  1  0
 29 30  1  0
 17 31  1  0
 31 32  1  0
 32 33  2  0
 32 34  1  0
 31 35  1  0
 35 14  1  0
  1 36  1  0
  1 37  1  0
  1 38  1  0
  2 39  1  0
  2 40  1  0
  3 41  1  0
  3 42  1  0
  4 43  1  0
  4 44  1  0
  5 45  1  0
  5 46  1  0
  7 47  1  0
  7 48  1  0
  8 49  1  0
  8 50  1  0
  9 51  1  0
  9 52  1  0
 10 53  1  0
 10 54  1  0
 11 55  1  0
 11 56  1  0
 11 57  1  0
 15 58  1  0
 15 59  1  0
 16 60  1  0
 16 61  1  0
 21 62  1  0
 21 63  1  0
 22 64  1  0
 22 65  1  0
 23 66  1  0
 23 67  1  0
 24 68  1  0
 24 69  1  0
 25 70  1  0
 25 71  1  0
 25 72  1  0
 26 73  1  0
 26 74  1  0
 27 75  1  0
 27 76  1  0
 28 77  1  0
 28 78  1  0
 29 79  1  0
 29 80  1  0
 30 81  1  0
 30 82  1  0
 30 83  1  0
 31 84  1  1
 34 85  1  0
 35 86  1  0
 35 87  1  0
M  END
$$$$
