@<TRIPOS>MOLECULE
*****
 92 96 0 0 0
SMALL
GASTEIGER

@<TRIPOS>ATOM
      1 C          -5.1745   -3.6623    1.8287 C.3     1  UNL1       -0.0442
      2 C          -3.8888   -3.7795    1.0037 C.3     1  UNL1        0.0262
      3 C          -2.9695   -4.6796    1.7819 C.3     1  UNL1       -0.0442
      4 C          -4.2555   -4.3973   -0.3005 C.3     1  UNL1       -0.0442
      5 N          -3.3508   -2.4380    0.8836 N.am    1  UNL1       -0.3092
      6 C          -4.0440   -1.3729    0.2777 C.2     1  UNL1        0.2319
      7 O          -5.2092   -1.6754   -0.1681 O.2     1  UNL1       -0.2740
      8 C          -3.5773    0.0063    0.1142 C.3     1  UNL1        0.1002
      9 C          -3.9862    0.6017   -1.2258 C.3     1  UNL1        0.0234
     10 N          -3.6825    2.0183   -1.2143 N.3     1  UNL1       -0.2950
     11 C          -4.8665    2.7537   -1.5194 C.3     1  UNL1        0.0256
     12 C          -4.7048    4.2178   -1.5222 C.ar    1  UNL1       -0.0153
     13 C          -4.2954    4.9103   -2.6627 C.ar    1  UNL1       -0.0545
     14 C          -4.1772    6.2795   -2.5910 C.ar    1  UNL1       -0.0433
     15 C          -4.4631    6.9241   -1.4081 C.ar    1  UNL1        0.0276
     16 N          -4.8586    6.2349   -0.3118 N.ar    1  UNL1       -0.2629
     17 C          -4.9808    4.9087   -0.3550 C.ar    1  UNL1        0.0320
     18 C          -3.0694    2.4924   -0.0210 C.3     1  UNL1        0.0121
     19 C          -1.9210    1.6680    0.4715 C.3     1  UNL1        0.0125
     20 N          -2.1947    0.2431    0.3843 N.3     1  UNL1       -0.2868
     21 C          -1.2771   -0.4000   -0.5352 C.3     1  UNL1        0.0258
     22 C           0.0950   -0.3766    0.1011 C.3     1  UNL1        0.0686
     23 O           0.0662   -1.0623    1.3331 O.3     1  UNL1       -0.3905
     24 C           1.0764   -1.1329   -0.7751 C.3     1  UNL1       -0.0142
     25 C           2.4611   -1.1588   -0.2166 C.3     1  UNL1        0.0419
     26 C           3.3202   -1.9655   -1.2040 C.3     1  UNL1       -0.0165
     27 C           2.8230   -3.3333   -1.3668 C.ar    1  UNL1       -0.0466
     28 C           1.9059   -3.6179   -2.3436 C.ar    1  UNL1       -0.0586
     29 C           1.4160   -4.8843   -2.5225 C.ar    1  UNL1       -0.0615
     30 C           1.8528   -5.8965   -1.7038 C.ar    1  UNL1       -0.0617
     31 C           2.7676   -5.6220   -0.7271 C.ar    1  UNL1       -0.0615
     32 C           3.2614   -4.3444   -0.5470 C.ar    1  UNL1       -0.0586
     33 C           3.0487    0.2275   -0.2739 C.2     1  UNL1        0.2170
     34 O           2.4384    1.1930   -0.7767 O.2     1  UNL1       -0.2755
     35 N           4.3486    0.5167    0.2479 N.am    1  UNL1       -0.3057
     36 C           4.9171    1.8481    0.1957 C.3     1  UNL1        0.0748
     37 C           5.2408    2.3699    1.5455 C.ar    1  UNL1       -0.0215
     38 C           4.4476    2.5045    2.6620 C.ar    1  UNL1       -0.0565
     39 C           4.9287    3.0237    3.8565 C.ar    1  UNL1       -0.0614
     40 C           6.2437    3.4107    3.9081 C.ar    1  UNL1       -0.0615
     41 C           7.0601    3.2835    2.7970 C.ar    1  UNL1       -0.0582
     42 C           6.5518    2.7591    1.6100 C.ar    1  UNL1       -0.0398
     43 C           7.2418    2.5364    0.3171 C.3     1  UNL1        0.0008
     44 C           6.2059    1.9033   -0.5560 C.3     1  UNL1        0.0816
     45 O           6.6212    0.6371   -0.9920 O.3     1  UNL1       -0.3893
     46 H          -6.0617   -3.5331    1.1825 H       1  UNL1        0.0250
     47 H          -5.3310   -4.5675    2.4526 H       1  UNL1        0.0250
     48 H          -5.0846   -2.7668    2.5023 H       1  UNL1        0.0250
     49 H          -2.1391   -5.0755    1.1864 H       1  UNL1        0.0250
     50 H          -2.5685   -4.1498    2.6879 H       1  UNL1        0.0250
     51 H          -3.5584   -5.5516    2.1770 H       1  UNL1        0.0250
     52 H          -5.2095   -3.9605   -0.6679 H       1  UNL1        0.0250
     53 H          -3.4567   -4.4034   -1.0583 H       1  UNL1        0.0250
     54 H          -4.4886   -5.4775   -0.0966 H       1  UNL1        0.0250
     55 H          -2.4144   -2.2664    1.2753 H       1  UNL1        0.1492
     56 H          -4.1273    0.6796    0.8622 H       1  UNL1        0.0571
     57 H          -3.5016    0.0850   -2.0787 H       1  UNL1        0.0447
     58 H          -5.0808    0.4549   -1.3194 H       1  UNL1        0.0447
     59 H          -5.6890    2.4490   -0.8057 H       1  UNL1        0.0476
     60 H          -5.2739    2.4698   -2.5292 H       1  UNL1        0.0476
     61 H          -4.0792    4.3507   -3.5801 H       1  UNL1        0.0622
     62 H          -3.8612    6.8539   -3.4566 H       1  UNL1        0.0633
     63 H          -4.3704    8.0160   -1.3470 H       1  UNL1        0.0829
     64 H          -5.3098    4.4037    0.5598 H       1  UNL1        0.0833
     65 H          -3.7936    2.6276    0.8242 H       1  UNL1        0.0439
     66 H          -2.6879    3.5477   -0.1869 H       1  UNL1        0.0439
     67 H          -0.9883    1.9584   -0.0227 H       1  UNL1        0.0439
     68 H          -1.7982    1.8813    1.5684 H       1  UNL1        0.0439
     69 H          -1.2023    0.1645   -1.4957 H       1  UNL1        0.0452
     70 H          -1.5631   -1.4244   -0.7269 H       1  UNL1        0.0452
     71 H           0.4846    0.6151    0.3052 H       1  UNL1        0.0606
     72 H           0.7708   -0.6927    1.9374 H       1  UNL1        0.2098
     73 H           0.7064   -2.1881   -0.7690 H       1  UNL1        0.0298
     74 H           1.0611   -0.7908   -1.8125 H       1  UNL1        0.0298
     75 H           2.5480   -1.6150    0.7679 H       1  UNL1        0.0398
     76 H           4.3666   -1.9754   -0.7830 H       1  UNL1        0.0320
     77 H           3.3633   -1.4064   -2.1465 H       1  UNL1        0.0320
     78 H           1.5173   -2.8565   -3.0281 H       1  UNL1        0.0620
     79 H           0.6891   -5.1219   -3.2951 H       1  UNL1        0.0618
     80 H           1.4684   -6.9134   -1.8337 H       1  UNL1        0.0618
     81 H           3.0974   -6.4513   -0.0945 H       1  UNL1        0.0618
     82 H           3.9947   -4.1786    0.2505 H       1  UNL1        0.0620
     83 H           4.9163   -0.2400    0.6800 H       1  UNL1        0.1494
     84 H           4.1990    2.5574   -0.3027 H       1  UNL1        0.0574
     85 H           3.3964    2.2150    2.6760 H       1  UNL1        0.0621
     86 H           4.3009    3.1301    4.7394 H       1  UNL1        0.0618
     87 H           6.6593    3.8221    4.8243 H       1  UNL1        0.0618
     88 H           8.0742    3.5917    2.8661 H       1  UNL1        0.0620
     89 H           7.5939    3.5343   -0.0740 H       1  UNL1        0.0339
     90 H           8.1245    1.8744    0.4156 H       1  UNL1        0.0339
     91 H           6.1126    2.5647   -1.4685 H       1  UNL1        0.0618
     92 H           6.8011    0.0871   -0.1946 H       1  UNL1        0.2099
@<TRIPOS>BOND
     1     1     2    1
     2     2     3    1
     3     2     4    1
     4     2     5    1
     5     5     6   am
     6     6     7    2
     7     6     8    1
     8     8     9    1
     9     9    10    1
    10    10    11    1
    11    11    12    1
    12    12    13   ar
    13    13    14   ar
    14    14    15   ar
    15    15    16   ar
    16    16    17   ar
    17    10    18    1
    18    18    19    1
    19    19    20    1
    20    20    21    1
    21    21    22    1
    22    22    23    1
    23    22    24    1
    24    24    25    1
    25    25    26    1
    26    26    27    1
    27    27    28   ar
    28    28    29   ar
    29    29    30   ar
    30    30    31   ar
    31    31    32   ar
    32    25    33    1
    33    33    34    2
    34    33    35   am
    35    35    36    1
    36    36    37    1
    37    37    38   ar
    38    38    39   ar
    39    39    40   ar
    40    40    41   ar
    41    41    42   ar
    42    42    43    1
    43    43    44    1
    44    44    45    1
    45    20     8    1
    46    32    27   ar
    47    44    36    1
    48    17    12   ar
    49    42    37   ar
    50     1    46    1
    51     1    47    1
    52     1    48    1
    53     3    49    1
    54     3    50    1
    55     3    51    1
    56     4    52    1
    57     4    53    1
    58     4    54    1
    59     5    55    1
    60     8    56    1
    61     9    57    1
    62     9    58    1
    63    11    59    1
    64    11    60    1
    65    13    61    1
    66    14    62    1
    67    15    63    1
    68    17    64    1
    69    18    65    1
    70    18    66    1
    71    19    67    1
    72    19    68    1
    73    21    69    1
    74    21    70    1
    75    22    71    1
    76    23    72    1
    77    24    73    1
    78    24    74    1
    79    25    75    1
    80    26    76    1
    81    26    77    1
    82    28    78    1
    83    29    79    1
    84    30    80    1
    85    31    81    1
    86    32    82    1
    87    35    83    1
    88    36    84    1
    89    38    85    1
    90    39    86    1
    91    40    87    1
    92    41    88    1
    93    43    89    1
    94    43    90    1
    95    44    91    1
    96    45    92    1
