
     RDKit          3D

 92 96  0  0  0  0  0  0  0  0999 V2000
   -5.1745   -3.6623    1.8287 C   0  0  0  0  0  0  0  0  0  0  0  0
   -3.8888   -3.7795    1.0037 C   0  0  0  0  0  0  0  0  0  0  0  0
   -2.9695   -4.6796    1.7819 C   0  0  0  0  0  0  0  0  0  0  0  0
   -4.2555   -4.3973   -0.3005 C   0  0  0  0  0  0  0  0  0  0  0  0
   -3.3508   -2.4380    0.8836 N   0  0  0  0  0  0  0  0  0  0  0  0
   -4.0440   -1.3729    0.2777 C   0  0  0  0  0  0  0  0  0  0  0  0
   -5.2092   -1.6754   -0.1681 O   0  0  0  0  0  0  0  0  0  0  0  0
   -3.5773    0.0063    0.1142 C   0  0  2  0  0  0  0  0  0  0  0  0
   -3.9862    0.6017   -1.2258 C   0  0  0  0  0  0  0  0  0  0  0  0
   -3.6825    2.0183   -1.2143 N   0  0  0  0  0  0  0  0  0  0  0  0
   -4.8665    2.7537   -1.5194 C   0  0  0  0  0  0  0  0  0  0  0  0
   -4.7048    4.2178   -1.5222 C   0  0  0  0  0  0  0  0  0  0  0  0
   -4.2954    4.9103   -2.6627 C   0  0  0  0  0  0  0  0  0  0  0  0
   -4.1772    6.2795   -2.5910 C   0  0  0  0  0  0  0  0  0  0  0  0
   -4.4631    6.9241   -1.4081 C   0  0  0  0  0  0  0  0  0  0  0  0
   -4.8586    6.2349   -0.3118 N   0  0  0  0  0  0  0  0  0  0  0  0
   -4.9808    4.9087   -0.3550 C   0  0  0  0  0  0  0  0  0  0  0  0
   -3.0694    2.4924   -0.0210 C   0  0  0  0  0  0  0  0  0  0  0  0
   -1.9210    1.6680    0.4715 C   0  0  0  0  0  0  0  0  0  0  0  0
   -2.1947    0.2431    0.3843 N   0  0  0  0  0  0  0  0  0  0  0  0
   -1.2771   -0.4000   -0.5352 C   0  0  0  0  0  0  0  0  0  0  0  0
    0.0950   -0.3766    0.1011 C   0  0  1  0  0  0  0  0  0  0  0  0
    0.0662   -1.0623    1.3331 O   0  0  0  0  0  0  0  0  0  0  0  0
    1.0764   -1.1329   -0.7751 C   0  0  0  0  0  0  0  0  0  0  0  0
    2.4611   -1.1588   -0.2166 C   0  0  1  0  0  0  0  0  0  0  0  0
    3.3202   -1.9655   -1.2040 C   0  0  0  0  0  0  0  0  0  0  0  0
    2.8230   -3.3333   -1.3668 C   0  0  0  0  0  0  0  0  0  0  0  0
    1.9059   -3.6179   -2.3436 C   0  0  0  0  0  0  0  0  0  0  0  0
    1.4160   -4.8843   -2.5225 C   0  0  0  0  0  0  0  0  0  0  0  0
    1.8528   -5.8965   -1.7038 C   0  0  0  0  0  0  0  0  0  0  0  0
    2.7676   -5.6220   -0.7271 C   0  0  0  0  0  0  0  0  0  0  0  0
    3.2614   -4.3444   -0.5470 C   0  0  0  0  0  0  0  0  0  0  0  0
    3.0487    0.2275   -0.2739 C   0  0  0  0  0  0  0  0  0  0  0  0
    2.4384    1.1930   -0.7767 O   0  0  0  0  0  0  0  0  0  0  0  0
    4.3486    0.5167    0.2479 N   0  0  0  0  0  0  0  0  0  0  0  0
    4.9171    1.8481    0.1957 C   0  0  1  0  0  0  0  0  0  0  0  0
    5.2408    2.3699    1.5455 C   0  0  0  0  0  0  0  0  0  0  0  0
    4.4476    2.5045    2.6620 C   0  0  0  0  0  0  0  0  0  0  0  0
    4.9287    3.0237    3.8565 C   0  0  0  0  0  0  0  0  0  0  0  0
    6.2437    3.4107    3.9081 C   0  0  0  0  0  0  0  0  0  0  0  0
    7.0601    3.2835    2.7970 C   0  0  0  0  0  0  0  0  0  0  0  0
    6.5518    2.7591    1.6100 C   0  0  0  0  0  0  0  0  0  0  0  0
    7.2418    2.5364    0.3171 C   0  0  0  0  0  0  0  0  0  0  0  0
    6.2059    1.9033   -0.5560 C   0  0  1  0  0  0  0  0  0  0  0  0
    6.6212    0.6371   -0.9920 O   0  0  0  0  0  0  0  0  0  0  0  0
   -6.0617   -3.5331    1.1825 H   0  0  0  0  0  0  0  0  0  0  0  0
   -5.3310   -4.5675    2.4526 H   0  0  0  0  0  0  0  0  0  0  0  0
   -5.0846   -2.7668    2.5023 H   0  0  0  0  0  0  0  0  0  0  0  0
   -2.1391   -5.0755    1.1864 H   0  0  0  0  0  0  0  0  0  0  0  0
   -2.5685   -4.1498    2.6879 H   0  0  0  0  0  0  0  0  0  0  0  0
   -3.5584   -5.5516    2.1770 H   0  0  0  0  0  0  0  0  0  0  0  0
   -5.2095   -3.9605   -0.6679 H   0  0  0  0  0  0  0  0  0  0  0  0
   -3.4567   -4.4034   -1.0583 H   0  0  0  0  0  0  0  0  0  0  0  0
   -4.4886   -5.4775   -0.0966 H   0  0  0  0  0  0  0  0  0  0  0  0
   -2.4144   -2.2664    1.2753 H   0  0  0  0  0  0  0  0  0  0  0  0
   -4.1273    0.6796    0.8622 H   0  0  0  0  0  0  0  0  0  0  0  0
   -3.5016    0.0850   -2.0787 H   0  0  0  0  0  0  0  0  0  0  0  0
   -5.0808    0.4549   -1.3194 H   0  0  0  0  0  0  0  0  0  0  0  0
   -5.6890    2.4490   -0.8057 H   0  0  0  0  0  0  0  0  0  0  0  0
   -5.2739    2.4698   -2.5292 H   0  0  0  0  0  0  0  0  0  0  0  0
   -4.0792    4.3507   -3.5801 H   0  0  0  0  0  0  0  0  0  0  0  0
   -3.8612    6.8539   -3.4566 H   0  0  0  0  0  0  0  0  0  0  0  0
   -4.3704    8.0160   -1.3470 H   0  0  0  0  0  0  0  0  0  0  0  0
   -5.3098    4.4037    0.5598 H   0  0  0  0  0  0  0  0  0  0  0  0
   -3.7936    2.6276    0.8242 H   0  0  0  0  0  0  0  0  0  0  0  0
   -2.6879    3.5477   -0.1869 H   0  0  0  0  0  0  0  0  0  0  0  0
   -0.9883    1.9584   -0.0227 H   0  0  0  0  0  0  0  0  0  0  0  0
   -1.7982    1.8813    1.5684 H   0  0  0  0  0  0  0  0  0  0  0  0
   -1.2023    0.1645   -1.4957 H   0  0  0  0  0  0  0  0  0  0  0  0
   -1.5631   -1.4244   -0.7269 H   0  0  0  0  0  0  0  0  0  0  0  0
    0.4846    0.6151    0.3052 H   0  0  0  0  0  0  0  0  0  0  0  0
    0.7708   -0.6927    1.9374 H   0  0  0  0  0  0  0  0  0  0  0  0
    0.7064   -2.1881   -0.7690 H   0  0  0  0  0  0  0  0  0  0  0  0
    1.0611   -0.7908   -1.8125 H   0  0  0  0  0  0  0  0  0  0  0  0
    2.5480   -1.6150    0.7679 H   0  0  0  0  0  0  0  0  0  0  0  0
    4.3666   -1.9754   -0.7830 H   0  0  0  0  0  0  0  0  0  0  0  0
    3.3633   -1.4064   -2.1465 H   0  0  0  0  0  0  0  0  0  0  0  0
    1.5173   -2.8565   -3.0281 H   0  0  0  0  0  0  0  0  0  0  0  0
    0.6891   -5.1219   -3.2951 H   0  0  0  0  0  0  0  0  0  0  0  0
    1.4684   -6.9134   -1.8337 H   0  0  0  0  0  0  0  0  0  0  0  0
    3.0974   -6.4513   -0.0945 H   0  0  0  0  0  0  0  0  0  0  0  0
    3.9947   -4.1786    0.2505 H   0  0  0  0  0  0  0  0  0  0  0  0
    4.9163   -0.2400    0.6800 H   0  0  0  0  0  0  0  0  0  0  0  0
    4.1990    2.5574   -0.3027 H   0  0  0  0  0  0  0  0  0  0  0  0
    3.3964    2.2150    2.6760 H   0  0  0  0  0  0  0  0  0  0  0  0
    4.3009    3.1301    4.7394 H   0  0  0  0  0  0  0  0  0  0  0  0
    6.6593    3.8221    4.8243 H   0  0  0  0  0  0  0  0  0  0  0  0
    8.0742    3.5917    2.8661 H   0  0  0  0  0  0  0  0  0  0  0  0
    7.5939    3.5343   -0.0740 H   0  0  0  0  0  0  0  0  0  0  0  0
    8.1245    1.8744    0.4156 H   0  0  0  0  0  0  0  0  0  0  0  0
    6.1126    2.5647   -1.4685 H   0  0  0  0  0  0  0  0  0  0  0  0
    6.8011    0.0871   -0.1946 H   0  0  0  0  0  0  0  0  0  0  0  0
  1  2  1  0
  2  3  1  0
  2  4  1  0
  2  5  1  0
  5  6  1  0
  6  7  2  0
  6  8  1  0
  8  9  1  0
  9 10  1  0
 10 11  1  0
 11 12  1  0
 12 13  2  0
 13 14  1  0
 14 15  2  0
 15 16  1  0
 16 17  2  0
 10 18  1  0
 18 19  1  0
 19 20  1  0
 20 21  1  0
 21 22  1  0
 22 23  1  0
 22 24  1  0
 24 25  1  0
 25 26  1  0
 26 27  1  0
 27 28  2  0
 28 29  1  0
 29 30  2  0
 30 31  1  0
 31 32  2  0
 25 33  1  0
 33 34  2  0
 33 35  1  0
 35 36  1  0
 36 37  1  0
 37 38  2  0
 38 39  1  0
 39 40  2  0
 40 41  1  0
 41 42  2  0
 42 43  1  0
 43 44  1  0
 44 45  1  0
 20  8  1  0
 32 27  1  0
 44 36  1  0
 17 12  1  0
 42 37  1  0
  1 46  1  0
  1 47  1  0
  1 48  1  0
  3 49  1  0
  3 50  1  0
  3 51  1  0
  4 52  1  0
  4 53  1  0
  4 54  1  0
  5 55  1  0
  8 56  1  1
  9 57  1  0
  9 58  1  0
 11 59  1  0
 11 60  1  0
 13 61  1  0
 14 62  1  0
 15 63  1  0
 17 64  1  0
 18 65  1  0
 18 66  1  0
 19 67  1  0
 19 68  1  0
 21 69  1  0
 21 70  1  0
 22 71  1  1
 23 72  1  0
 24 73  1  0
 24 74  1  0
 25 75  1  1
 26 76  1  0
 26 77  1  0
 28 78  1  0
 29 79  1  0
 30 80  1  0
 31 81  1  0
 32 82  1  0
 35 83  1  0
 36 84  1  6
 38 85  1  0
 39 86  1  0
 40 87  1  0
 41 88  1  0
 43 89  1  0
 43 90  1  0
 44 91  1  6
 45 92  1  0
M  END
$$$$
