@<TRIPOS>MOLECULE
*****
 52 54 0 0 0
SMALL
GASTEIGER

@<TRIPOS>ATOM
      1 C          -4.4236   -2.8052    1.2761 C.2     1  UNL1       -0.0951
      2 C          -3.3587   -2.6437    0.5211 C.2     1  UNL1       -0.0472
      3 C          -2.6073   -3.8302    0.0637 C.3     1  UNL1       -0.0396
      4 C          -3.0338   -1.3218    0.0313 C.ar    1  UNL1        0.0167
      5 C          -4.0929   -0.4117   -0.0775 C.ar    1  UNL1        0.0374
      6 N          -3.9768    0.8329   -0.5138 N.ar    1  UNL1       -0.2542
      7 C          -2.7467    1.2878   -0.8937 C.ar    1  UNL1        0.0755
      8 C          -2.6755    2.6671   -1.3729 C.ar    1  UNL1        0.0369
      9 C          -1.4227    3.1724   -1.7297 C.ar    1  UNL1       -0.0314
     10 C          -1.3360    4.4802   -2.1890 C.ar    1  UNL1        0.0418
     11 CL          0.1985    5.1460   -2.6543 Cl      1  UNL1       -0.0835
     12 C          -2.4571    5.2906   -2.3001 C.ar    1  UNL1       -0.0406
     13 C          -3.6675    4.7776   -1.9472 C.ar    1  UNL1       -0.0244
     14 C          -3.7562    3.4750   -1.4902 C.ar    1  UNL1        0.1326
     15 F          -4.9868    2.9742   -1.1529 F       1  UNL1       -0.2048
     16 C          -1.6914    0.4519   -0.8081 C.ar    1  UNL1       -0.0138
     17 C          -1.8054   -0.8781   -0.3374 C.ar    1  UNL1        0.0434
     18 N          -0.5965   -1.6487   -0.2346 N.pl3   1  UNL1       -0.2982
     19 C          -0.0806   -1.9081    1.0809 C.ar    1  UNL1        0.1383
     20 N          -0.7920   -2.4478    2.0801 N.ar    1  UNL1       -0.2199
     21 C          -0.3767   -2.6869    3.3170 C.ar    1  UNL1        0.1180
     22 N           0.9176   -2.3416    3.5917 N.ar    1  UNL1       -0.2428
     23 C           1.7022   -1.7875    2.6247 C.ar    1  UNL1        0.0447
     24 C           1.2226   -1.5525    1.3311 C.ar    1  UNL1        0.0947
     25 C           2.0681   -0.9492    0.3304 C.2     1  UNL1        0.2490
     26 O           1.6521   -0.7353   -0.8315 O.2     1  UNL1       -0.2700
     27 N           3.4237   -0.5483    0.5660 N.am    1  UNL1       -0.3088
     28 C           4.2662    0.0477   -0.4480 C.3     1  UNL1        0.0377
     29 C           5.6089    0.3716    0.1617 C.3     1  UNL1        0.0679
     30 C           6.4992    1.1087   -0.8202 C.3     1  UNL1       -0.0375
     31 O           6.2137   -0.7706    0.6380 O.3     1  UNL1       -0.3905
     32 H          -5.0167   -1.9963    1.6472 H       1  UNL1        0.0538
     33 H          -4.7188   -3.8079    1.5431 H       1  UNL1        0.0538
     34 H          -3.2529   -4.5010   -0.5790 H       1  UNL1        0.0278
     35 H          -2.3218   -4.4660    0.9605 H       1  UNL1        0.0278
     36 H          -1.7144   -3.6590   -0.5135 H       1  UNL1        0.0278
     37 H          -5.0876   -0.7465    0.2034 H       1  UNL1        0.0836
     38 H          -0.5217    2.5914   -1.6647 H       1  UNL1        0.0639
     39 H          -2.3824    6.3158   -2.6594 H       1  UNL1        0.0633
     40 H          -4.5743    5.3699   -2.0122 H       1  UNL1        0.0647
     41 H          -0.6956    0.7426   -1.0921 H       1  UNL1        0.0658
     42 H          -0.1393   -2.0045   -1.0717 H       1  UNL1        0.1536
     43 H          -0.9601   -3.1185    4.1156 H       1  UNL1        0.1047
     44 H           2.7159   -1.5384    2.8971 H       1  UNL1        0.0839
     45 H           3.8115   -0.6907    1.5045 H       1  UNL1        0.1491
     46 H           4.4067   -0.6481   -1.3178 H       1  UNL1        0.0487
     47 H           3.8557    1.0347   -0.8017 H       1  UNL1        0.0487
     48 H           5.4382    1.0511    1.0523 H       1  UNL1        0.0606
     49 H           7.3906    1.4968   -0.2879 H       1  UNL1        0.0255
     50 H           6.8748    0.3533   -1.5568 H       1  UNL1        0.0255
     51 H           5.9726    1.9616   -1.2955 H       1  UNL1        0.0255
     52 H           7.0309   -0.5574    1.1813 H       1  UNL1        0.2098
@<TRIPOS>BOND
     1     1     2    2
     2     2     3    1
     3     2     4    1
     4     4     5   ar
     5     5     6   ar
     6     6     7   ar
     7     7     8    1
     8     8     9   ar
     9     9    10   ar
    10    10    11    1
    11    10    12   ar
    12    12    13   ar
    13    13    14   ar
    14    14    15    1
    15     7    16   ar
    16    16    17   ar
    17    17    18    1
    18    18    19    1
    19    19    20   ar
    20    20    21   ar
    21    21    22   ar
    22    22    23   ar
    23    23    24   ar
    24    24    25    1
    25    25    26    2
    26    25    27   am
    27    27    28    1
    28    28    29    1
    29    29    30    1
    30    29    31    1
    31    17     4   ar
    32    24    19   ar
    33    14     8   ar
    34     1    32    1
    35     1    33    1
    36     3    34    1
    37     3    35    1
    38     3    36    1
    39     5    37    1
    40     9    38    1
    41    12    39    1
    42    13    40    1
    43    16    41    1
    44    18    42    1
    45    21    43    1
    46    23    44    1
    47    27    45    1
    48    28    46    1
    49    28    47    1
    50    29    48    1
    51    30    49    1
    52    30    50    1
    53    30    51    1
    54    31    52    1
