@<TRIPOS>MOLECULE
*****
 43 45 0 0 0
SMALL
GASTEIGER

@<TRIPOS>ATOM
      1 C          -7.5409   -0.5811    0.2462 C.3     1  UNL1       -0.0397
      2 C          -6.0788   -0.3507    0.0842 C.ar    1  UNL1       -0.0503
      3 C          -5.2360   -1.2991   -0.4552 C.ar    1  UNL1       -0.0569
      4 C          -3.8836   -1.0350   -0.5841 C.ar    1  UNL1       -0.0375
      5 C          -3.3357    0.1636   -0.1860 C.ar    1  UNL1        0.0493
      6 N          -1.9073    0.4341   -0.3255 N.ar    1  UNL1       -0.2853
      7 C          -0.9773   -0.3033    0.1548 C.ar    1  UNL1        0.1211
      8 N          -1.2745   -1.5426    0.9235 N.pl3   1  UNL1       -0.3431
      9 C           0.3583   -0.0231    0.0074 C.ar    1  UNL1        0.1145
     10 C           1.5667   -0.6624    0.4313 C.2     1  UNL1        0.2567
     11 O           1.5158   -1.7597    1.1130 O.2     1  UNL1       -0.2693
     12 N           2.8400   -0.1355    0.1310 N.am    1  UNL1       -0.2946
     13 C           3.0256    1.0789   -0.6194 C.3     1  UNL1        0.0278
     14 C           4.5099    1.4129   -0.6928 C.3     1  UNL1        0.0145
     15 N           5.3333    0.3171   -1.0847 N.3     1  UNL1       -0.3024
     16 C           6.6857    0.5817   -0.6029 C.3     1  UNL1       -0.0126
     17 C           4.9232   -0.9732   -0.6254 C.3     1  UNL1        0.0145
     18 C           4.0415   -0.8129    0.5762 C.3     1  UNL1        0.0278
     19 S           0.2663    1.5402   -0.9720 S.2     1  UNL1       -0.0551
     20 C          -1.5204    1.5861   -1.0378 C.ar    1  UNL1        0.1322
     21 S          -2.4840    2.6929   -1.7497 S.2     1  UNL1       -0.0244
     22 C          -4.1747    1.1106    0.3522 C.ar    1  UNL1       -0.0375
     23 C          -5.5412    0.8495    0.4848 C.ar    1  UNL1       -0.0569
     24 H          -7.8933   -0.0009    1.1248 H       1  UNL1        0.0278
     25 H          -8.0789   -0.1564   -0.6381 H       1  UNL1        0.0278
     26 H          -7.7708   -1.6492    0.3126 H       1  UNL1        0.0278
     27 H          -5.6078   -2.2504   -0.7823 H       1  UNL1        0.0621
     28 H          -3.1957   -1.7808   -1.0127 H       1  UNL1        0.0638
     29 H          -1.4676   -1.3499    1.9252 H       1  UNL1        0.1437
     30 H          -1.2730   -2.4571    0.4557 H       1  UNL1        0.1437
     31 H           2.6086    0.9257   -1.6250 H       1  UNL1        0.0477
     32 H           2.5674    1.9041   -0.0528 H       1  UNL1        0.0477
     33 H           4.6279    2.2536   -1.3973 H       1  UNL1        0.0442
     34 H           4.7911    1.7833    0.3249 H       1  UNL1        0.0442
     35 H           7.2306    1.0737   -1.4133 H       1  UNL1        0.0391
     36 H           7.1652   -0.3931   -0.2959 H       1  UNL1        0.0391
     37 H           6.6644    1.1905    0.3388 H       1  UNL1        0.0391
     38 H           4.3123   -1.4642   -1.4233 H       1  UNL1        0.0442
     39 H           5.8299   -1.5762   -0.4124 H       1  UNL1        0.0442
     40 H           4.5439   -0.2052    1.3707 H       1  UNL1        0.0477
     41 H           3.7847   -1.7916    1.0520 H       1  UNL1        0.0477
     42 H          -3.7485    2.0498    0.6647 H       1  UNL1        0.0638
     43 H          -6.2024    1.6049    0.9127 H       1  UNL1        0.0621
@<TRIPOS>BOND
     1     1     2    1
     2     2     3   ar
     3     3     4   ar
     4     4     5   ar
     5     5     6    1
     6     6     7   ar
     7     7     8    1
     8     7     9   ar
     9     9    10    1
    10    10    11    2
    11    10    12   am
    12    12    13    1
    13    13    14    1
    14    14    15    1
    15    15    16    1
    16    15    17    1
    17    17    18    1
    18     9    19   ar
    19    19    20   ar
    20    20    21    2
    21     5    22   ar
    22    22    23   ar
    23    23     2   ar
    24    20     6   ar
    25    18    12    1
    26     1    24    1
    27     1    25    1
    28     1    26    1
    29     3    27    1
    30     4    28    1
    31     8    29    1
    32     8    30    1
    33    13    31    1
    34    13    32    1
    35    14    33    1
    36    14    34    1
    37    16    35    1
    38    16    36    1
    39    16    37    1
    40    17    38    1
    41    17    39    1
    42    18    40    1
    43    18    41    1
    44    22    42    1
    45    23    43    1
