@<TRIPOS>MOLECULE
*****
 37 39 0 0 0
SMALL
GASTEIGER

@<TRIPOS>ATOM
      1 C          -3.8522   -2.3718    0.3477 C.3     1  UNL1       -0.0155
      2 N          -2.4317   -2.2232    0.5793 N.3     1  UNL1       -0.3159
      3 C          -1.8401   -1.2238   -0.2954 C.3     1  UNL1        0.0122
      4 C          -2.4325    0.1279   -0.1232 C.3     1  UNL1       -0.0119
      5 C          -1.4756    1.2371    0.0057 C.ar    1  UNL1       -0.0421
      6 C          -1.9766    2.4627    0.4077 C.ar    1  UNL1       -0.0582
      7 C          -1.1468    3.5621    0.5547 C.ar    1  UNL1       -0.0615
      8 C           0.2139    3.4622    0.3015 C.ar    1  UNL1       -0.0615
      9 C           0.7152    2.2297   -0.1023 C.ar    1  UNL1       -0.0577
     10 C          -0.1286    1.1595   -0.2394 C.ar    1  UNL1       -0.0367
     11 C           0.3973   -0.1482   -0.6662 C.3     1  UNL1        0.0109
     12 C           1.8354   -0.3159   -0.3708 C.ar    1  UNL1       -0.0384
     13 C           2.7632    0.0103   -1.3562 C.ar    1  UNL1       -0.0565
     14 C           4.1234   -0.1044   -1.1882 C.ar    1  UNL1       -0.0417
     15 C           4.6271   -0.5623    0.0035 C.ar    1  UNL1        0.0593
     16 CL          6.3390   -0.7362    0.2952 Cl      1  UNL1       -0.0820
     17 C           3.7359   -0.8918    0.9943 C.ar    1  UNL1        0.0595
     18 CL          4.3504   -1.4759    2.5178 Cl      1  UNL1       -0.0820
     19 C           2.3542   -0.7730    0.8176 C.ar    1  UNL1       -0.0382
     20 C          -0.3561   -1.2773   -0.0276 C.3     1  UNL1       -0.0264
     21 H          -4.1476   -3.3347    0.8240 H       1  UNL1        0.0388
     22 H          -4.4441   -1.5860    0.8432 H       1  UNL1        0.0388
     23 H          -4.0930   -2.4729   -0.7332 H       1  UNL1        0.0388
     24 H          -1.9895   -3.1458    0.2915 H       1  UNL1        0.1219
     25 H          -1.9680   -1.5135   -1.3793 H       1  UNL1        0.0464
     26 H          -3.1806    0.4000   -0.9149 H       1  UNL1        0.0328
     27 H          -3.0349    0.1111    0.8314 H       1  UNL1        0.0328
     28 H          -3.0286    2.6082    0.6212 H       1  UNL1        0.0620
     29 H          -1.5645    4.5177    0.8727 H       1  UNL1        0.0618
     30 H           0.8613    4.3092    0.4134 H       1  UNL1        0.0618
     31 H           1.7823    2.1593   -0.2988 H       1  UNL1        0.0621
     32 H           0.2765   -0.2097   -1.7733 H       1  UNL1        0.0398
     33 H           2.3836    0.3718   -2.2992 H       1  UNL1        0.0621
     34 H           4.8305    0.1563   -1.9723 H       1  UNL1        0.0633
     35 H           1.6933   -1.0372    1.6114 H       1  UNL1        0.0635
     36 H           0.0268   -2.2282   -0.4483 H       1  UNL1        0.0289
     37 H          -0.2183   -1.2535    1.0549 H       1  UNL1        0.0289
@<TRIPOS>BOND
     1     1     2    1
     2     2     3    1
     3     3     4    1
     4     4     5    1
     5     5     6   ar
     6     6     7   ar
     7     7     8   ar
     8     8     9   ar
     9     9    10   ar
    10    10    11    1
    11    11    12    1
    12    12    13   ar
    13    13    14   ar
    14    14    15   ar
    15    15    16    1
    16    15    17   ar
    17    17    18    1
    18    17    19   ar
    19    11    20    1
    20    20     3    1
    21    10     5   ar
    22    19    12   ar
    23     1    21    1
    24     1    22    1
    25     1    23    1
    26     2    24    1
    27     3    25    1
    28     4    26    1
    29     4    27    1
    30     6    28    1
    31     7    29    1
    32     8    30    1
    33     9    31    1
    34    11    32    1
    35    13    33    1
    36    14    34    1
    37    19    35    1
    38    20    36    1
    39    20    37    1
