@<TRIPOS>MOLECULE
*****
 57 60 0 0 0
SMALL
GASTEIGER

@<TRIPOS>ATOM
      1 C          -5.4551    2.5824    1.0598 C.3     1  UNL1        0.0365
      2 O          -5.3425    1.4305    0.3190 O.3     1  UNL1       -0.3814
      3 C          -5.2795    1.6918   -1.0602 C.3     1  UNL1        0.0645
      4 C          -5.1569    0.4380   -1.8643 C.3     1  UNL1        0.0552
      5 C          -6.3608   -0.4387   -1.4833 C.3     1  UNL1       -0.0323
      6 C          -5.7403   -1.3825   -0.4729 C.3     1  UNL1       -0.0370
      7 C          -4.3832   -1.6240   -1.1056 C.3     1  UNL1        0.0209
      8 N          -4.0717   -0.3751   -1.6511 N.3     1  UNL1       -0.1713
      9 S          -2.6048   -0.1414   -2.3797 S.O2    1  UNL1        0.0612
     10 O          -2.3895   -1.2036   -3.4511 O.2     1  UNL1       -0.1528
     11 O          -2.3839    1.1707   -3.0218 O.2     1  UNL1       -0.1528
     12 C          -1.3228   -0.3924   -1.2017 C.ar    1  UNL1        0.1063
     13 C          -0.8674    0.6881   -0.4506 C.ar    1  UNL1       -0.0335
     14 C           0.1335    0.5658    0.4899 C.ar    1  UNL1       -0.0377
     15 C           0.7262   -0.6777    0.7138 C.ar    1  UNL1        0.0481
     16 C           0.2565   -1.7321   -0.0437 C.ar    1  UNL1        0.0502
     17 C          -0.7449   -1.6040   -0.9831 C.ar    1  UNL1       -0.0226
     18 C           0.9870   -2.9583    0.3194 C.2     1  UNL1        0.2496
     19 O           0.8583   -4.1170   -0.1355 O.2     1  UNL1       -0.2817
     20 C           1.9282   -2.5592    1.3502 C.2     1  UNL1        0.2915
     21 O           2.7781   -3.2587    1.9796 O.2     1  UNL1       -0.2661
     22 N           1.7372   -1.1670    1.5599 N.am    1  UNL1       -0.2598
     23 C           2.4789   -0.3506    2.5149 C.3     1  UNL1        0.0452
     24 C           3.6924    0.2374    1.9440 C.ar    1  UNL1       -0.0297
     25 C           3.7004    1.4690    1.3279 C.ar    1  UNL1       -0.0567
     26 C           4.8580    1.9966    0.7997 C.ar    1  UNL1       -0.0555
     27 C           6.0445    1.3006    0.8753 C.ar    1  UNL1       -0.0131
     28 C           7.2762    1.8804    0.3042 C.3     1  UNL1        0.1354
     29 F           8.2798    1.9915    1.2528 F       1  UNL1       -0.2396
     30 C           7.8354    0.9880   -0.8087 C.3     1  UNL1        0.0387
     31 BR          9.4399    1.7922   -1.5165 Br      1  UNL1       -0.0885
     32 C           6.0423    0.0744    1.4875 C.ar    1  UNL1       -0.0555
     33 C           4.8818   -0.4538    2.0166 C.ar    1  UNL1       -0.0567
     34 H          -5.4984    2.2905    2.1270 H       1  UNL1        0.0523
     35 H          -6.3193    3.2214    0.7642 H       1  UNL1        0.0523
     36 H          -4.5585    3.2477    0.9623 H       1  UNL1        0.0523
     37 H          -6.2509    2.1636   -1.3266 H       1  UNL1        0.0576
     38 H          -4.4963    2.4285   -1.2246 H       1  UNL1        0.0576
     39 H          -5.2968    0.6757   -2.9303 H       1  UNL1        0.0502
     40 H          -6.6666   -1.0513   -2.3476 H       1  UNL1        0.0282
     41 H          -7.1649    0.1697   -1.0615 H       1  UNL1        0.0282
     42 H          -5.5521   -0.8911    0.5056 H       1  UNL1        0.0279
     43 H          -6.3193   -2.3201   -0.3698 H       1  UNL1        0.0279
     44 H          -4.5686   -2.3528   -1.9486 H       1  UNL1        0.0444
     45 H          -3.6532   -2.0328   -0.3805 H       1  UNL1        0.0444
     46 H          -1.3288    1.6706   -0.6208 H       1  UNL1        0.0638
     47 H           0.4853    1.4143    1.0743 H       1  UNL1        0.0637
     48 H          -1.1057   -2.4440   -1.5736 H       1  UNL1        0.0645
     49 H           1.8031    0.4924    2.8445 H       1  UNL1        0.0518
     50 H           2.7194   -0.9168    3.4316 H       1  UNL1        0.0518
     51 H           2.7894    2.0629    1.2401 H       1  UNL1        0.0621
     52 H           4.8890    2.9744    0.3049 H       1  UNL1        0.0621
     53 H           7.1064    2.8636   -0.1470 H       1  UNL1        0.0710
     54 H           8.1126   -0.0175   -0.4110 H       1  UNL1        0.0414
     55 H           7.1282    0.8730   -1.6342 H       1  UNL1        0.0414
     56 H           6.9737   -0.4586    1.5402 H       1  UNL1        0.0621
     57 H           4.9410   -1.4438    2.4968 H       1  UNL1        0.0621
@<TRIPOS>BOND
     1     1     2    1
     2     2     3    1
     3     3     4    1
     4     4     5    1
     5     5     6    1
     6     6     7    1
     7     7     8    1
     8     8     9    1
     9     9    10    2
    10     9    11    2
    11     9    12    1
    12    12    13   ar
    13    13    14   ar
    14    14    15   ar
    15    15    16   ar
    16    16    17   ar
    17    16    18    1
    18    18    19    2
    19    18    20    1
    20    20    21    2
    21    20    22   am
    22    22    23    1
    23    23    24    1
    24    24    25   ar
    25    25    26   ar
    26    26    27   ar
    27    27    28    1
    28    28    29    1
    29    28    30    1
    30    30    31    1
    31    27    32   ar
    32    32    33   ar
    33     8     4    1
    34    17    12   ar
    35    33    24   ar
    36    22    15    1
    37     1    34    1
    38     1    35    1
    39     1    36    1
    40     3    37    1
    41     3    38    1
    42     4    39    1
    43     5    40    1
    44     5    41    1
    45     6    42    1
    46     6    43    1
    47     7    44    1
    48     7    45    1
    49    13    46    1
    50    14    47    1
    51    17    48    1
    52    23    49    1
    53    23    50    1
    54    25    51    1
    55    26    52    1
    56    28    53    1
    57    30    54    1
    58    30    55    1
    59    32    56    1
    60    33    57    1
