@<TRIPOS>MOLECULE
*****
 55 56 0 0 0
SMALL
GASTEIGER

@<TRIPOS>ATOM
      1 C           2.8304    0.0354    0.3624 C.3     1  UNL1        0.0364
      2 N           2.1471    1.1707   -0.2228 N.3     1  UNL1       -0.3248
      3 C           4.0797    0.4701    1.1079 C.3     1  UNL1       -0.0100
      4 C           5.0360    1.1581    0.1799 C.ar    1  UNL1       -0.0458
      5 C           5.0528    2.5227   -0.0737 C.ar    1  UNL1       -0.0585
      6 C           5.9899    3.0411   -0.9558 C.ar    1  UNL1       -0.0615
      7 C           6.9194    2.2392   -1.5997 C.ar    1  UNL1       -0.0617
      8 C           6.9086    0.8894   -1.3538 C.ar    1  UNL1       -0.0615
      9 C           5.9724    0.3840   -0.4748 C.ar    1  UNL1       -0.0585
     10 C           1.9408   -0.6560    1.3712 C.3     1  UNL1        0.0847
     11 O           2.6336   -1.7493    1.9178 O.3     1  UNL1       -0.3889
     12 C           0.6678   -1.1791    0.7007 C.3     1  UNL1        0.0449
     13 N          -0.1101   -1.8261    1.7034 N.3     1  UNL1       -0.1874
     14 S          -1.5857   -2.4961    1.2018 S.O2    1  UNL1        0.0590
     15 O          -2.2102   -3.1360    2.4380 O.2     1  UNL1       -0.1530
     16 O          -1.3921   -3.6424    0.2222 O.2     1  UNL1       -0.1530
     17 C          -2.7356   -1.3858    0.5622 C.ar    1  UNL1        0.1115
     18 C          -3.6079   -0.7416    1.4469 C.ar    1  UNL1       -0.0204
     19 C          -3.5068   -1.0328    2.9092 C.3     1  UNL1       -0.0377
     20 C          -4.5458    0.1494    0.9663 C.ar    1  UNL1       -0.0149
     21 C          -4.6834    0.4545   -0.3619 C.ar    1  UNL1        0.1236
     22 O          -5.6142    1.3444   -0.8781 O.3     1  UNL1       -0.4948
     23 C          -6.5370    2.0417   -0.0542 C.3     1  UNL1        0.0788
     24 C          -3.8126   -0.1938   -1.2085 C.ar    1  UNL1       -0.0040
     25 C          -3.9256    0.1077   -2.6722 C.3     1  UNL1       -0.0359
     26 C          -2.8519   -1.0979   -0.7799 C.ar    1  UNL1       -0.0175
     27 C          -1.9886   -1.7276   -1.8066 C.3     1  UNL1       -0.0375
     28 H           3.0856   -0.7207   -0.4162 H       1  UNL1        0.0487
     29 H           2.7910    1.7373   -0.7886 H       1  UNL1        0.1186
     30 H           1.4307    0.7877   -0.8968 H       1  UNL1        0.1186
     31 H           3.7728    1.2114    1.8546 H       1  UNL1        0.0329
     32 H           4.5827   -0.4059    1.5194 H       1  UNL1        0.0329
     33 H           4.3133    3.1239    0.4451 H       1  UNL1        0.0620
     34 H           5.9436    4.1094   -1.1042 H       1  UNL1        0.0618
     35 H           7.6453    2.6775   -2.2894 H       1  UNL1        0.0618
     36 H           7.6147    0.2359   -1.8352 H       1  UNL1        0.0618
     37 H           6.0039   -0.6937   -0.3124 H       1  UNL1        0.0620
     38 H           1.6525    0.0333    2.1817 H       1  UNL1        0.0622
     39 H           2.7068   -2.4471    1.2092 H       1  UNL1        0.2099
     40 H           0.9777   -1.8700   -0.1156 H       1  UNL1        0.0467
     41 H           0.1507   -0.3211    0.2639 H       1  UNL1        0.0467
     42 H          -0.0601   -1.4570    2.6535 H       1  UNL1        0.1481
     43 H          -4.0306   -0.1826    3.4370 H       1  UNL1        0.0278
     44 H          -2.4675   -0.9768    3.2912 H       1  UNL1        0.0278
     45 H          -4.0612   -1.9372    3.2095 H       1  UNL1        0.0278
     46 H          -5.2036    0.6287    1.6794 H       1  UNL1        0.0657
     47 H          -6.1244    2.9214    0.4409 H       1  UNL1        0.0660
     48 H          -7.4579    2.3114   -0.6155 H       1  UNL1        0.0660
     49 H          -6.8787    1.3295    0.7482 H       1  UNL1        0.0660
     50 H          -3.8829   -0.8482   -3.2190 H       1  UNL1        0.0279
     51 H          -3.1806    0.8422   -2.9975 H       1  UNL1        0.0279
     52 H          -4.9322    0.5448   -2.8978 H       1  UNL1        0.0279
     53 H          -2.5103   -2.6654   -2.1619 H       1  UNL1        0.0278
     54 H          -1.9260   -1.0545   -2.6860 H       1  UNL1        0.0278
     55 H          -1.0267   -2.0584   -1.4311 H       1  UNL1        0.0278
@<TRIPOS>BOND
     1     1     2    1
     2     1     3    1
     3     3     4    1
     4     4     5   ar
     5     5     6   ar
     6     6     7   ar
     7     7     8   ar
     8     8     9   ar
     9     1    10    1
    10    10    11    1
    11    10    12    1
    12    12    13    1
    13    13    14    1
    14    14    15    2
    15    14    16    2
    16    14    17    1
    17    17    18   ar
    18    18    19    1
    19    18    20   ar
    20    20    21   ar
    21    21    22    1
    22    22    23    1
    23    21    24   ar
    24    24    25    1
    25    24    26   ar
    26    26    27    1
    27     9     4   ar
    28    26    17   ar
    29     1    28    1
    30     2    29    1
    31     2    30    1
    32     3    31    1
    33     3    32    1
    34     5    33    1
    35     6    34    1
    36     7    35    1
    37     8    36    1
    38     9    37    1
    39    10    38    1
    40    11    39    1
    41    12    40    1
    42    12    41    1
    43    13    42    1
    44    19    43    1
    45    19    44    1
    46    19    45    1
    47    20    46    1
    48    23    47    1
    49    23    48    1
    50    23    49    1
    51    25    50    1
    52    25    51    1
    53    25    52    1
    54    27    53    1
    55    27    54    1
    56    27    55    1
