@<TRIPOS>MOLECULE
*****
 63 64 0 0 0
SMALL
GASTEIGER

@<TRIPOS>ATOM
      1 C          -6.1598   -0.0636   -1.7165 C.3     1  UNL1        0.0108
      2 C          -6.4086   -0.6090   -0.3128 C.3     1  UNL1        0.2648
      3 C          -5.7782   -2.0213   -0.3127 C.3     1  UNL1        0.0108
      4 N          -7.7947   -0.6838   -0.0192 N.2     1  UNL1       -0.0662
      5 C          -8.3612   -0.1115    0.9683 C.cat   1  UNL1        0.4202
      6 N          -9.7625   -0.3055    1.0909 N.pl3   1  UNL1       -0.2468
      7 N          -7.6361    0.6755    1.9239 N.2     1  UNL1       -0.0050
      8 C          -6.3635    0.7792    1.7402 C.2     1  UNL1        0.4149
      9 N          -5.5541    1.5478    2.6426 N.pl3   1  UNL1       -0.2472
     10 N          -5.6914    0.1425    0.6749 N.3     1  UNL1       -0.0841
     11 O          -4.3123    0.2538    0.6092 O.3     1  UNL1       -0.2129
     12 C          -3.9796    1.5113    0.1420 C.3     1  UNL1        0.0903
     13 C          -2.4906    1.7756    0.2344 C.3     1  UNL1       -0.0227
     14 C          -2.0091    1.6869    1.6756 C.3     1  UNL1       -0.0164
     15 C          -0.5239    1.9651    1.6732 C.3     1  UNL1        0.0897
     16 O           0.0795    0.9584    0.8466 O.3     1  UNL1       -0.4920
     17 C           1.4627    0.9517    0.6517 C.ar    1  UNL1        0.1205
     18 C           2.0793    0.0154   -0.1247 C.ar    1  UNL1       -0.0193
     19 C           3.4698    0.0134   -0.3164 C.ar    1  UNL1       -0.0475
     20 C           4.2910    0.9422    0.2598 C.ar    1  UNL1        0.0219
     21 C           5.7174    0.9992    0.1777 C.2     1  UNL1        0.1861
     22 O           6.2268    2.1252    0.6602 O.2     1  UNL1       -0.2873
     23 C           6.7313    0.1310   -0.2990 C.2     1  UNL1       -0.0138
     24 C           6.6723   -1.0523   -0.8023 C.2     1  UNL1       -0.0510
     25 C           7.8389   -1.8229   -1.2560 C.ar    1  UNL1       -0.0249
     26 C           7.6393   -3.0831   -1.7809 C.ar    1  UNL1       -0.0546
     27 C           8.6732   -3.8725   -2.2282 C.ar    1  UNL1       -0.0612
     28 C           9.9710   -3.3944   -2.1540 C.ar    1  UNL1       -0.0617
     29 C          10.2023   -2.1414   -1.6354 C.ar    1  UNL1       -0.0612
     30 C           9.1118   -1.3768   -1.1930 C.ar    1  UNL1       -0.0546
     31 C           3.6213    1.8966    1.0555 C.ar    1  UNL1       -0.0475
     32 C           2.2613    1.8975    1.2413 C.ar    1  UNL1       -0.0193
     33 CL          0.6847    0.0000    0.0000 Cl      2  UNL2       -0.1454
     34 H          -5.1636   -0.2942   -2.1059 H       1  UNL1        0.0301
     35 H          -6.8959   -0.5498   -2.4188 H       1  UNL1        0.0301
     36 H          -6.4193    1.0072   -1.7129 H       1  UNL1        0.0301
     37 H          -4.6786   -1.9443   -0.3381 H       1  UNL1        0.0301
     38 H          -6.0910   -2.5449    0.5928 H       1  UNL1        0.0301
     39 H          -6.0993   -2.5588   -1.2284 H       1  UNL1        0.0301
     40 H         -10.1201   -0.9961    1.7606 H       1  UNL1        0.2415
     41 H         -10.4012    0.2485    0.5077 H       1  UNL1        0.2415
     42 H          -4.8405    1.1225    3.2336 H       1  UNL1        0.2414
     43 H          -5.7155    2.5712    2.6813 H       1  UNL1        0.2414
     44 H          -4.2343    1.5860   -0.9431 H       1  UNL1        0.0599
     45 H          -4.4929    2.3380    0.6344 H       1  UNL1        0.0599
     46 H          -2.3092    2.8180   -0.0992 H       1  UNL1        0.0290
     47 H          -1.9034    1.1145   -0.4231 H       1  UNL1        0.0290
     48 H          -2.4700    2.5084    2.2874 H       1  UNL1        0.0299
     49 H          -2.2706    0.7528    2.1694 H       1  UNL1        0.0299
     50 H          -0.2807    2.9549    1.2624 H       1  UNL1        0.0696
     51 H          -0.1520    1.8298    2.7071 H       1  UNL1        0.0696
     52 H           1.4706   -0.7394   -0.5995 H       1  UNL1        0.0654
     53 H           3.8660   -0.7441   -0.9696 H       1  UNL1        0.0626
     54 H           7.7805    0.5247   -0.2374 H       1  UNL1        0.0656
     55 H           5.7163   -1.5257   -0.8792 H       1  UNL1        0.0625
     56 H           6.6356   -3.4862   -1.8528 H       1  UNL1        0.0623
     57 H           8.4418   -4.8465   -2.6261 H       1  UNL1        0.0618
     58 H          10.8048   -3.9811   -2.4928 H       1  UNL1        0.0618
     59 H          11.2220   -1.7961   -1.5903 H       1  UNL1        0.0618
     60 H           9.3871   -0.4174   -0.8061 H       1  UNL1        0.0623
     61 H           4.2185    2.6658    1.5441 H       1  UNL1        0.0626
     62 H           1.7713    2.6520    1.8648 H       1  UNL1        0.0654
     63 H          -0.6847    0.0000    0.0000 H       1  UNL1        0.1454
@<TRIPOS>BOND
     1     1     2    1
     2     2     3    1
     3     2     4    1
     4     4     5    2
     5     5     6    1
     6     5     7    1
     7     7     8    2
     8     8     9    1
     9     8    10    1
    10    10    11    1
    11    11    12    1
    12    12    13    1
    13    13    14    1
    14    14    15    1
    15    15    16    1
    16    16    17    1
    17    17    18   ar
    18    18    19   ar
    19    19    20   ar
    20    20    21    1
    21    21    22    2
    22    21    23    1
    23    23    24    2
    24    24    25    1
    25    25    26   ar
    26    26    27   ar
    27    27    28   ar
    28    28    29   ar
    29    29    30   ar
    30    20    31   ar
    31    31    32   ar
    32    10     2    1
    33    32    17   ar
    34    30    25   ar
    35     1    34    1
    36     1    35    1
    37     1    36    1
    38     3    37    1
    39     3    38    1
    40     3    39    1
    41     6    40    1
    42     6    41    1
    43     9    42    1
    44     9    43    1
    45    12    44    1
    46    12    45    1
    47    13    46    1
    48    13    47    1
    49    14    48    1
    50    14    49    1
    51    15    50    1
    52    15    51    1
    53    18    52    1
    54    19    53    1
    55    23    54    1
    56    24    55    1
    57    26    56    1
    58    27    57    1
    59    28    58    1
    60    29    59    1
    61    30    60    1
    62    31    61    1
    63    32    62    1
    64    33    63    1
