
     RDKit          3D

 63 64  0  0  0  0  0  0  0  0999 V2000
   -6.1598   -0.0636   -1.7165 C   0  0  0  0  0  0  0  0  0  0  0  0
   -6.4086   -0.6090   -0.3128 C   0  0  0  0  0  0  0  0  0  0  0  0
   -5.7782   -2.0213   -0.3127 C   0  0  0  0  0  0  0  0  0  0  0  0
   -7.7947   -0.6838   -0.0192 N   0  0  0  0  0  0  0  0  0  0  0  0
   -8.3612   -0.1115    0.9683 C   0  0  0  0  0  0  0  0  0  0  0  0
   -9.7625   -0.3055    1.0909 N   0  0  0  0  0  0  0  0  0  0  0  0
   -7.6361    0.6755    1.9239 N   0  0  0  0  0  0  0  0  0  0  0  0
   -6.3635    0.7792    1.7402 C   0  0  0  0  0  0  0  0  0  0  0  0
   -5.5541    1.5478    2.6426 N   0  0  0  0  0  0  0  0  0  0  0  0
   -5.6914    0.1425    0.6749 N   0  0  0  0  0  0  0  0  0  0  0  0
   -4.3123    0.2538    0.6092 O   0  0  0  0  0  0  0  0  0  0  0  0
   -3.9796    1.5113    0.1420 C   0  0  0  0  0  0  0  0  0  0  0  0
   -2.4906    1.7756    0.2344 C   0  0  0  0  0  0  0  0  0  0  0  0
   -2.0091    1.6869    1.6756 C   0  0  0  0  0  0  0  0  0  0  0  0
   -0.5239    1.9651    1.6732 C   0  0  0  0  0  0  0  0  0  0  0  0
    0.0795    0.9584    0.8466 O   0  0  0  0  0  0  0  0  0  0  0  0
    1.4627    0.9517    0.6517 C   0  0  0  0  0  0  0  0  0  0  0  0
    2.0793    0.0154   -0.1247 C   0  0  0  0  0  0  0  0  0  0  0  0
    3.4698    0.0134   -0.3164 C   0  0  0  0  0  0  0  0  0  0  0  0
    4.2910    0.9422    0.2598 C   0  0  0  0  0  0  0  0  0  0  0  0
    5.7174    0.9992    0.1777 C   0  0  0  0  0  0  0  0  0  0  0  0
    6.2268    2.1252    0.6602 O   0  0  0  0  0  0  0  0  0  0  0  0
    6.7313    0.1310   -0.2990 C   0  0  0  0  0  0  0  0  0  0  0  0
    6.6723   -1.0523   -0.8023 C   0  0  0  0  0  0  0  0  0  0  0  0
    7.8389   -1.8229   -1.2560 C   0  0  0  0  0  0  0  0  0  0  0  0
    7.6393   -3.0831   -1.7809 C   0  0  0  0  0  0  0  0  0  0  0  0
    8.6732   -3.8725   -2.2282 C   0  0  0  0  0  0  0  0  0  0  0  0
    9.9710   -3.3944   -2.1540 C   0  0  0  0  0  0  0  0  0  0  0  0
   10.2023   -2.1414   -1.6354 C   0  0  0  0  0  0  0  0  0  0  0  0
    9.1118   -1.3768   -1.1930 C   0  0  0  0  0  0  0  0  0  0  0  0
    3.6213    1.8966    1.0555 C   0  0  0  0  0  0  0  0  0  0  0  0
    2.2613    1.8975    1.2413 C   0  0  0  0  0  0  0  0  0  0  0  0
    0.6847    0.0000    0.0000 Cl  0  0  0  0  0  0  0  0  0  0  0  0
   -5.1636   -0.2942   -2.1059 H   0  0  0  0  0  0  0  0  0  0  0  0
   -6.8959   -0.5498   -2.4188 H   0  0  0  0  0  0  0  0  0  0  0  0
   -6.4193    1.0072   -1.7129 H   0  0  0  0  0  0  0  0  0  0  0  0
   -4.6786   -1.9443   -0.3381 H   0  0  0  0  0  0  0  0  0  0  0  0
   -6.0910   -2.5449    0.5928 H   0  0  0  0  0  0  0  0  0  0  0  0
   -6.0993   -2.5588   -1.2284 H   0  0  0  0  0  0  0  0  0  0  0  0
  -10.1201   -0.9961    1.7606 H   0  0  0  0  0  0  0  0  0  0  0  0
  -10.4012    0.2485    0.5077 H   0  0  0  0  0  0  0  0  0  0  0  0
   -4.8405    1.1225    3.2336 H   0  0  0  0  0  0  0  0  0  0  0  0
   -5.7155    2.5712    2.6813 H   0  0  0  0  0  0  0  0  0  0  0  0
   -4.2343    1.5860   -0.9431 H   0  0  0  0  0  0  0  0  0  0  0  0
   -4.4929    2.3380    0.6344 H   0  0  0  0  0  0  0  0  0  0  0  0
   -2.3092    2.8180   -0.0992 H   0  0  0  0  0  0  0  0  0  0  0  0
   -1.9034    1.1145   -0.4231 H   0  0  0  0  0  0  0  0  0  0  0  0
   -2.4700    2.5084    2.2874 H   0  0  0  0  0  0  0  0  0  0  0  0
   -2.2706    0.7528    2.1694 H   0  0  0  0  0  0  0  0  0  0  0  0
   -0.2807    2.9549    1.2624 H   0  0  0  0  0  0  0  0  0  0  0  0
   -0.1520    1.8298    2.7071 H   0  0  0  0  0  0  0  0  0  0  0  0
    1.4706   -0.7394   -0.5995 H   0  0  0  0  0  0  0  0  0  0  0  0
    3.8660   -0.7441   -0.9696 H   0  0  0  0  0  0  0  0  0  0  0  0
    7.7805    0.5247   -0.2374 H   0  0  0  0  0  0  0  0  0  0  0  0
    5.7163   -1.5257   -0.8792 H   0  0  0  0  0  0  0  0  0  0  0  0
    6.6356   -3.4862   -1.8528 H   0  0  0  0  0  0  0  0  0  0  0  0
    8.4418   -4.8465   -2.6261 H   0  0  0  0  0  0  0  0  0  0  0  0
   10.8048   -3.9811   -2.4928 H   0  0  0  0  0  0  0  0  0  0  0  0
   11.2220   -1.7961   -1.5903 H   0  0  0  0  0  0  0  0  0  0  0  0
    9.3871   -0.4174   -0.8061 H   0  0  0  0  0  0  0  0  0  0  0  0
    4.2185    2.6658    1.5441 H   0  0  0  0  0  0  0  0  0  0  0  0
    1.7713    2.6520    1.8648 H   0  0  0  0  0  0  0  0  0  0  0  0
   -0.6847    0.0000    0.0000 H   0  0  0  0  0  0  0  0  0  0  0  0
  1  2  1  0
  2  3  1  0
  2  4  1  0
  4  5  2  0
  5  6  1  0
  5  7  1  0
  7  8  2  0
  8  9  1  0
  8 10  1  0
 10 11  1  0
 11 12  1  0
 12 13  1  0
 13 14  1  0
 14 15  1  0
 15 16  1  0
 16 17  1  0
 17 18  2  0
 18 19  1  0
 19 20  2  0
 20 21  1  0
 21 22  2  0
 21 23  1  0
 23 24  2  0
 24 25  1  0
 25 26  2  0
 26 27  1  0
 27 28  2  0
 28 29  1  0
 29 30  2  0
 20 31  1  0
 31 32  2  0
 10  2  1  0
 32 17  1  0
 30 25  1  0
  1 34  1  0
  1 35  1  0
  1 36  1  0
  3 37  1  0
  3 38  1  0
  3 39  1  0
  6 40  1  0
  6 41  1  0
  9 42  1  0
  9 43  1  0
 12 44  1  0
 12 45  1  0
 13 46  1  0
 13 47  1  0
 14 48  1  0
 14 49  1  0
 15 50  1  0
 15 51  1  0
 18 52  1  0
 19 53  1  0
 23 54  1  0
 24 55  1  0
 26 56  1  0
 27 57  1  0
 28 58  1  0
 29 59  1  0
 30 60  1  0
 31 61  1  0
 32 62  1  0
 33 63  1  0
M  END
$$$$
