@<TRIPOS>MOLECULE
*****
 58 62 0 0 0
SMALL
GASTEIGER

@<TRIPOS>ATOM
      1 O           7.1997    4.1309   -2.5516 O.2     1  UNL1       -0.2687
      2 C           7.9924    3.3847   -1.9583 C.2     1  UNL1        0.2594
      3 C           7.5869    2.1654   -1.2440 C.2     1  UNL1        0.0056
      4 C           6.3551    1.7310   -1.1468 C.2     1  UNL1       -0.0144
      5 C           6.0671    0.4850   -0.3979 C.ar    1  UNL1        0.1287
      6 C           6.9934   -0.3312    0.2149 C.ar    1  UNL1       -0.0158
      7 C           6.2854   -1.3563    0.7821 C.ar    1  UNL1       -0.0153
      8 C           4.9615   -1.1452    0.5064 C.ar    1  UNL1        0.1357
      9 C           3.8591   -2.0288    0.9452 C.ar    1  UNL1        0.0181
     10 C           4.1181   -3.1555    1.6666 C.ar    1  UNL1       -0.0490
     11 C           3.1190   -3.9981    2.1151 C.ar    1  UNL1       -0.0349
     12 C           1.8095   -3.7097    1.8357 C.ar    1  UNL1        0.0760
     13 N           0.8023   -4.4969    2.2641 N.ar    1  UNL1       -0.2353
     14 C          -0.4750   -4.1928    1.9919 C.ar    1  UNL1        0.1187
     15 N          -0.8063   -3.1074    1.2906 N.ar    1  UNL1       -0.2200
     16 C           0.1806   -2.2838    0.8374 C.ar    1  UNL1        0.1339
     17 N          -0.1509   -1.1180    0.0989 N.pl3   1  UNL1       -0.2988
     18 C          -1.5469   -0.7273    0.0769 C.ar    1  UNL1        0.0340
     19 C          -2.0835   -0.1612   -1.0671 C.ar    1  UNL1       -0.0370
     20 C          -3.4137    0.2523   -1.1078 C.ar    1  UNL1       -0.0167
     21 C          -4.2231    0.1034   -0.0009 C.ar    1  UNL1        0.1393
     22 O          -5.5439    0.5074   -0.0215 O.3     1  UNL1       -0.4859
     23 C          -6.2002    1.0843   -1.1063 C.3     1  UNL1        0.1148
     24 C          -7.6160    1.3960   -0.7633 C.ar    1  UNL1       -0.0077
     25 C          -8.5468    0.3819   -0.9855 C.ar    1  UNL1       -0.0552
     26 C          -9.8565    0.6503   -0.6784 C.ar    1  UNL1       -0.0587
     27 C         -10.2495    1.8669   -0.1710 C.ar    1  UNL1       -0.0264
     28 C          -9.3143    2.8790    0.0496 C.ar    1  UNL1        0.1238
     29 F          -9.6829    4.0932    0.5518 F       1  UNL1       -0.2055
     30 C          -8.0037    2.6152   -0.2562 C.ar    1  UNL1       -0.0201
     31 C          -3.6865   -0.4588    1.1331 C.ar    1  UNL1        0.0843
     32 CL         -4.6438   -0.6841    2.5884 Cl      1  UNL1       -0.0797
     33 C          -2.3491   -0.8794    1.1867 C.ar    1  UNL1       -0.0186
     34 C           1.5069   -2.5650    1.0989 C.ar    1  UNL1        0.0411
     35 C           2.5337   -1.7317    0.6581 C.ar    1  UNL1       -0.0386
     36 O           4.8919   -0.0524   -0.1882 O.2     1  UNL1       -0.4554
     37 N           9.3681    3.7237   -1.9666 N.am    1  UNL1       -0.1940
     38 O           9.7879    4.8283   -2.6044 O.3     1  UNL1       -0.2949
     39 H           8.3483    1.5601   -0.7482 H       1  UNL1        0.0671
     40 H           5.5633    2.2891   -1.6163 H       1  UNL1        0.0656
     41 H           8.0740   -0.1643    0.2272 H       1  UNL1        0.0655
     42 H           6.7024   -2.1682    1.3376 H       1  UNL1        0.0656
     43 H           5.1675   -3.3876    1.8900 H       1  UNL1        0.0625
     44 H           3.3361   -4.8976    2.6912 H       1  UNL1        0.0639
     45 H          -1.2773   -4.8437    2.3471 H       1  UNL1        0.1048
     46 H           0.5472   -0.5647   -0.4118 H       1  UNL1        0.1536
     47 H          -1.4739   -0.0334   -1.9449 H       1  UNL1        0.0637
     48 H          -3.8319    0.6933   -1.9996 H       1  UNL1        0.0655
     49 H          -6.1279    0.4989   -2.0428 H       1  UNL1        0.0748
     50 H          -5.7018    2.0668   -1.3189 H       1  UNL1        0.0748
     51 H          -8.2522   -0.5918   -1.3883 H       1  UNL1        0.0621
     52 H         -10.6314   -0.0969   -0.8283 H       1  UNL1        0.0619
     53 H         -11.2976    2.0483    0.0629 H       1  UNL1        0.0646
     54 H          -7.2600    3.3664   -0.1009 H       1  UNL1        0.0650
     55 H          -1.9737   -1.3034    2.1043 H       1  UNL1        0.0652
     56 H           2.3333   -0.8499    0.0953 H       1  UNL1        0.0632
     57 H          10.0697    3.1314   -1.4840 H       1  UNL1        0.1825
     58 H          10.6598    5.1520   -2.2276 H       1  UNL1        0.2414
@<TRIPOS>BOND
     1     1     2    2
     2     2     3    1
     3     3     4    2
     4     4     5    1
     5     5     6   ar
     6     6     7   ar
     7     7     8   ar
     8     8     9    1
     9     9    10   ar
    10    10    11   ar
    11    11    12   ar
    12    12    13   ar
    13    13    14   ar
    14    14    15   ar
    15    15    16   ar
    16    16    17    1
    17    17    18    1
    18    18    19   ar
    19    19    20   ar
    20    20    21   ar
    21    21    22    1
    22    22    23    1
    23    23    24    1
    24    24    25   ar
    25    25    26   ar
    26    26    27   ar
    27    27    28   ar
    28    28    29    1
    29    28    30   ar
    30    21    31   ar
    31    31    32    1
    32    31    33   ar
    33    16    34   ar
    34    34    35   ar
    35     8    36   ar
    36     2    37   am
    37    37    38    1
    38    36     5   ar
    39    35     9   ar
    40    34    12   ar
    41    33    18   ar
    42    30    24   ar
    43     3    39    1
    44     4    40    1
    45     6    41    1
    46     7    42    1
    47    10    43    1
    48    11    44    1
    49    14    45    1
    50    17    46    1
    51    19    47    1
    52    20    48    1
    53    23    49    1
    54    23    50    1
    55    25    51    1
    56    26    52    1
    57    27    53    1
    58    30    54    1
    59    33    55    1
    60    35    56    1
    61    37    57    1
    62    38    58    1
