
     RDKit          3D

 58 62  0  0  0  0  0  0  0  0999 V2000
    7.1997    4.1309   -2.5516 O   0  0  0  0  0  0  0  0  0  0  0  0
    7.9924    3.3847   -1.9583 C   0  0  0  0  0  0  0  0  0  0  0  0
    7.5869    2.1654   -1.2440 C   0  0  0  0  0  0  0  0  0  0  0  0
    6.3551    1.7310   -1.1468 C   0  0  0  0  0  0  0  0  0  0  0  0
    6.0671    0.4850   -0.3979 C   0  0  0  0  0  0  0  0  0  0  0  0
    6.9934   -0.3312    0.2149 C   0  0  0  0  0  0  0  0  0  0  0  0
    6.2854   -1.3563    0.7821 C   0  0  0  0  0  0  0  0  0  0  0  0
    4.9615   -1.1452    0.5064 C   0  0  0  0  0  0  0  0  0  0  0  0
    3.8591   -2.0288    0.9452 C   0  0  0  0  0  0  0  0  0  0  0  0
    4.1181   -3.1555    1.6666 C   0  0  0  0  0  0  0  0  0  0  0  0
    3.1190   -3.9981    2.1151 C   0  0  0  0  0  0  0  0  0  0  0  0
    1.8095   -3.7097    1.8357 C   0  0  0  0  0  0  0  0  0  0  0  0
    0.8023   -4.4969    2.2641 N   0  0  0  0  0  0  0  0  0  0  0  0
   -0.4750   -4.1928    1.9919 C   0  0  0  0  0  0  0  0  0  0  0  0
   -0.8063   -3.1074    1.2906 N   0  0  0  0  0  0  0  0  0  0  0  0
    0.1806   -2.2838    0.8374 C   0  0  0  0  0  0  0  0  0  0  0  0
   -0.1509   -1.1180    0.0989 N   0  0  0  0  0  0  0  0  0  0  0  0
   -1.5469   -0.7273    0.0769 C   0  0  0  0  0  0  0  0  0  0  0  0
   -2.0835   -0.1612   -1.0671 C   0  0  0  0  0  0  0  0  0  0  0  0
   -3.4137    0.2523   -1.1078 C   0  0  0  0  0  0  0  0  0  0  0  0
   -4.2231    0.1034   -0.0009 C   0  0  0  0  0  0  0  0  0  0  0  0
   -5.5439    0.5074   -0.0215 O   0  0  0  0  0  0  0  0  0  0  0  0
   -6.2002    1.0843   -1.1063 C   0  0  0  0  0  0  0  0  0  0  0  0
   -7.6160    1.3960   -0.7633 C   0  0  0  0  0  0  0  0  0  0  0  0
   -8.5468    0.3819   -0.9855 C   0  0  0  0  0  0  0  0  0  0  0  0
   -9.8565    0.6503   -0.6784 C   0  0  0  0  0  0  0  0  0  0  0  0
  -10.2495    1.8669   -0.1710 C   0  0  0  0  0  0  0  0  0  0  0  0
   -9.3143    2.8790    0.0496 C   0  0  0  0  0  0  0  0  0  0  0  0
   -9.6829    4.0932    0.5518 F   0  0  0  0  0  0  0  0  0  0  0  0
   -8.0037    2.6152   -0.2562 C   0  0  0  0  0  0  0  0  0  0  0  0
   -3.6865   -0.4588    1.1331 C   0  0  0  0  0  0  0  0  0  0  0  0
   -4.6438   -0.6841    2.5884 Cl  0  0  0  0  0  0  0  0  0  0  0  0
   -2.3491   -0.8794    1.1867 C   0  0  0  0  0  0  0  0  0  0  0  0
    1.5069   -2.5650    1.0989 C   0  0  0  0  0  0  0  0  0  0  0  0
    2.5337   -1.7317    0.6581 C   0  0  0  0  0  0  0  0  0  0  0  0
    4.8919   -0.0524   -0.1882 O   0  0  0  0  0  0  0  0  0  0  0  0
    9.3681    3.7237   -1.9666 N   0  0  0  0  0  0  0  0  0  0  0  0
    9.7879    4.8283   -2.6044 O   0  0  0  0  0  0  0  0  0  0  0  0
    8.3483    1.5601   -0.7482 H   0  0  0  0  0  0  0  0  0  0  0  0
    5.5633    2.2891   -1.6163 H   0  0  0  0  0  0  0  0  0  0  0  0
    8.0740   -0.1643    0.2272 H   0  0  0  0  0  0  0  0  0  0  0  0
    6.7024   -2.1682    1.3376 H   0  0  0  0  0  0  0  0  0  0  0  0
    5.1675   -3.3876    1.8900 H   0  0  0  0  0  0  0  0  0  0  0  0
    3.3361   -4.8976    2.6912 H   0  0  0  0  0  0  0  0  0  0  0  0
   -1.2773   -4.8437    2.3471 H   0  0  0  0  0  0  0  0  0  0  0  0
    0.5472   -0.5647   -0.4118 H   0  0  0  0  0  0  0  0  0  0  0  0
   -1.4739   -0.0334   -1.9449 H   0  0  0  0  0  0  0  0  0  0  0  0
   -3.8319    0.6933   -1.9996 H   0  0  0  0  0  0  0  0  0  0  0  0
   -6.1279    0.4989   -2.0428 H   0  0  0  0  0  0  0  0  0  0  0  0
   -5.7018    2.0668   -1.3189 H   0  0  0  0  0  0  0  0  0  0  0  0
   -8.2522   -0.5918   -1.3883 H   0  0  0  0  0  0  0  0  0  0  0  0
  -10.6314   -0.0969   -0.8283 H   0  0  0  0  0  0  0  0  0  0  0  0
  -11.2976    2.0483    0.0629 H   0  0  0  0  0  0  0  0  0  0  0  0
   -7.2600    3.3664   -0.1009 H   0  0  0  0  0  0  0  0  0  0  0  0
   -1.9737   -1.3034    2.1043 H   0  0  0  0  0  0  0  0  0  0  0  0
    2.3333   -0.8499    0.0953 H   0  0  0  0  0  0  0  0  0  0  0  0
   10.0697    3.1314   -1.4840 H   0  0  0  0  0  0  0  0  0  0  0  0
   10.6598    5.1520   -2.2276 H   0  0  0  0  0  0  0  0  0  0  0  0
  1  2  2  0
  2  3  1  0
  3  4  2  0
  4  5  1  0
  5  6  2  0
  6  7  1  0
  7  8  2  0
  8  9  1  0
  9 10  2  0
 10 11  1  0
 11 12  2  0
 12 13  1  0
 13 14  2  0
 14 15  1  0
 15 16  2  0
 16 17  1  0
 17 18  1  0
 18 19  2  0
 19 20  1  0
 20 21  2  0
 21 22  1  0
 22 23  1  0
 23 24  1  0
 24 25  2  0
 25 26  1  0
 26 27  2  0
 27 28  1  0
 28 29  1  0
 28 30  2  0
 21 31  1  0
 31 32  1  0
 31 33  2  0
 16 34  1  0
 34 35  2  0
  8 36  1  0
  2 37  1  0
 37 38  1  0
 36  5  1  0
 35  9  1  0
 34 12  1  0
 33 18  1  0
 30 24  1  0
  3 39  1  0
  4 40  1  0
  6 41  1  0
  7 42  1  0
 10 43  1  0
 11 44  1  0
 14 45  1  0
 17 46  1  0
 19 47  1  0
 20 48  1  0
 23 49  1  0
 23 50  1  0
 25 51  1  0
 26 52  1  0
 27 53  1  0
 30 54  1  0
 33 55  1  0
 35 56  1  0
 37 57  1  0
 38 58  1  0
M  END
$$$$
