@<TRIPOS>MOLECULE
*****
 35 37 0 0 0
SMALL
GASTEIGER

@<TRIPOS>ATOM
      1 N           0.3159    2.1577   -2.1924 N.pl3   1  UNL1       -0.3045
      2 C           0.2137    1.1358   -1.1928 C.ar    1  UNL1        0.2866
      3 C           1.3197    0.6103   -0.6430 C.ar    1  UNL1        0.1536
      4 S           0.6334   -0.5561    0.4840 S.2     1  UNL1        0.0085
      5 C          -1.1159   -0.2188    0.1013 C.ar    1  UNL1        0.3166
      6 N          -2.2267   -0.8993    0.7072 N.pl3   1  UNL1       -0.2556
      7 C          -3.6375   -0.7242    0.6775 C.ar    1  UNL1        0.0378
      8 C          -4.4803   -1.7976    0.7610 C.ar    1  UNL1       -0.0220
      9 C          -5.8176   -1.4865    0.7415 C.ar    1  UNL1        0.0427
     10 CL         -7.0580   -2.7325    0.8385 Cl      1  UNL1       -0.0835
     11 C          -6.2933   -0.2032    0.6478 C.ar    1  UNL1       -0.0433
     12 C          -5.4017    0.8483    0.5644 C.ar    1  UNL1       -0.0586
     13 C          -4.0551    0.5813    0.5804 C.ar    1  UNL1       -0.0403
     14 N          -1.0160    0.7573   -0.8564 N.ar    1  UNL1       -0.1718
     15 C           2.6881    0.8553   -0.8657 C.2     1  UNL1        0.2077
     16 O           2.9332    1.7100   -1.7868 O.2     1  UNL1       -0.2858
     17 C           3.7757    0.2425   -0.1657 C.ar    1  UNL1        0.0232
     18 C           3.7904   -0.3602    1.0500 C.ar    1  UNL1       -0.0482
     19 C           4.8589   -0.9383    1.6665 C.ar    1  UNL1       -0.0258
     20 C           6.0706   -0.9229    1.0055 C.ar    1  UNL1        0.1234
     21 F           7.2127   -1.4655    1.5085 F       1  UNL1       -0.2055
     22 C           6.1280   -0.3218   -0.2435 C.ar    1  UNL1       -0.0258
     23 C           5.0153    0.2372   -0.7999 C.ar    1  UNL1       -0.0482
     24 H           0.6944    1.8294   -3.1154 H       1  UNL1        0.1478
     25 H           0.1740    3.1490   -2.4376 H       1  UNL1        0.1478
     26 H          -1.9416   -1.7155    1.3165 H       1  UNL1        0.1582
     27 H          -4.1370   -2.8044    0.8390 H       1  UNL1        0.0651
     28 H          -7.3567    0.0408    0.6302 H       1  UNL1        0.0632
     29 H          -5.8185    1.8652    0.4901 H       1  UNL1        0.0619
     30 H          -3.4524    1.4810    0.5168 H       1  UNL1        0.0636
     31 H          -1.9355    1.0819   -1.2145 H       1  UNL1        0.4567
     32 H           2.8637   -0.3942    1.6063 H       1  UNL1        0.0625
     33 H           4.7983   -1.4070    2.6515 H       1  UNL1        0.0646
     34 H           7.0907   -0.3150   -0.7570 H       1  UNL1        0.0646
     35 H           5.1670    0.6802   -1.7856 H       1  UNL1        0.0625
@<TRIPOS>UNITY_ATOM_ATTR
14 1
charge 1
@<TRIPOS>BOND
     1     1     2    1
     2     2     3   ar
     3     3     4   ar
     4     4     5   ar
     5     5     6    1
     6     6     7    1
     7     7     8   ar
     8     8     9   ar
     9     9    10    1
    10     9    11   ar
    11    11    12   ar
    12    12    13   ar
    13     5    14   ar
    14     3    15    1
    15    15    16    2
    16    15    17    1
    17    17    18   ar
    18    18    19   ar
    19    19    20   ar
    20    20    21    1
    21    20    22   ar
    22    22    23   ar
    23    14     2   ar
    24    23    17   ar
    25    13     7   ar
    26     1    24    1
    27     1    25    1
    28     6    26    1
    29     8    27    1
    30    11    28    1
    31    12    29    1
    32    13    30    1
    33    14    31    1
    34    18    32    1
    35    19    33    1
    36    22    34    1
    37    23    35    1
