@<TRIPOS>MOLECULE
*****
 52 56 0 0 0
SMALL
GASTEIGER

@<TRIPOS>ATOM
      1 F          -6.2399   -0.6621   -2.8103 F       1  UNL1       -0.1659
      2 C          -5.2588   -0.5726   -1.8249 C.3     1  UNL1        0.4180
      3 F          -5.0508   -1.8579   -1.3971 F       1  UNL1       -0.1659
      4 F          -4.1162   -0.1164   -2.4877 F       1  UNL1       -0.1659
      5 C          -5.6731    0.3778   -0.7734 C.ar    1  UNL1        0.0625
      6 C          -6.9142    1.0075   -0.9246 C.ar    1  UNL1       -0.0495
      7 C          -7.3521    1.9259    0.0010 C.ar    1  UNL1       -0.0612
      8 C          -6.5939    2.2484    1.0876 C.ar    1  UNL1       -0.0612
      9 C          -5.3850    1.6528    1.2609 C.ar    1  UNL1       -0.0535
     10 C          -4.9473    0.7182    0.3133 C.ar    1  UNL1       -0.0062
     11 C          -3.6661    0.1025    0.5837 C.ar    1  UNL1       -0.0147
     12 C          -3.5564   -1.2073    0.9522 C.ar    1  UNL1       -0.0403
     13 C          -2.2849   -1.7306    1.1631 C.ar    1  UNL1        0.0807
     14 C          -2.1213   -3.1373    1.5599 C.3     1  UNL1        0.4194
     15 F          -1.4865   -3.2837    2.7749 F       1  UNL1       -0.1658
     16 F          -3.3732   -3.7033    1.6917 F       1  UNL1       -0.1658
     17 F          -1.4695   -3.8335    0.5550 F       1  UNL1       -0.1658
     18 C          -1.1892   -0.9093    0.9936 C.ar    1  UNL1        0.0783
     19 N           0.1428   -1.1323    1.1250 N.ar    1  UNL1       -0.3364
     20 C           0.8481   -0.0418    0.8609 C.ar    1  UNL1        0.1568
     21 C           2.3000    0.1611    0.8810 C.2     1  UNL1        0.1259
     22 N           3.1526   -0.3674    1.6931 N.2     1  UNL1       -0.0852
     23 O           4.4157    0.0392    1.4262 O.2     1  UNL1       -0.3865
     24 C           4.4527    0.5581    0.1240 C.3     1  UNL1        0.1443
     25 C           5.4547    1.6703   -0.0376 C.3     1  UNL1       -0.0100
     26 C           6.8157    1.0722   -0.2777 C.3     1  UNL1       -0.0493
     27 C           6.9046   -0.3549    0.1993 C.3     1  UNL1       -0.0528
     28 C           6.0137   -1.2711   -0.5848 C.3     1  UNL1       -0.0493
     29 C           4.6926   -0.5790   -0.8361 C.3     1  UNL1       -0.0100
     30 C           3.0306    1.0409   -0.0701 C.3     1  UNL1        0.0388
     31 N          -0.0329    0.9250    0.5477 N.ar    1  UNL1       -0.2264
     32 C          -1.2962    0.4132    0.6227 C.ar    1  UNL1        0.0906
     33 C          -2.5401    0.9230    0.4164 C.ar    1  UNL1       -0.0265
     34 H          -7.5277    0.7591   -1.7862 H       1  UNL1        0.0623
     35 H          -8.3089    2.4120   -0.1147 H       1  UNL1        0.0618
     36 H          -6.9445    2.9785    1.8205 H       1  UNL1        0.0618
     37 H          -4.7500    1.8865    2.1197 H       1  UNL1        0.0624
     38 H          -4.4379   -1.8525    1.1080 H       1  UNL1        0.0630
     39 H           0.5324   -2.0510    1.3991 H       1  UNL1        0.1674
     40 H           5.2106    2.3472   -0.8661 H       1  UNL1        0.0305
     41 H           5.4765    2.2169    0.9475 H       1  UNL1        0.0305
     42 H           7.5645    1.6671    0.2947 H       1  UNL1        0.0267
     43 H           7.0635    1.0826   -1.3680 H       1  UNL1        0.0267
     44 H           7.9591   -0.6855    0.0199 H       1  UNL1        0.0265
     45 H           6.7073   -0.4158    1.2700 H       1  UNL1        0.0265
     46 H           5.8863   -2.1997    0.0030 H       1  UNL1        0.0267
     47 H           6.4405   -1.5371   -1.5810 H       1  UNL1        0.0267
     48 H           3.8933   -1.3281   -0.6587 H       1  UNL1        0.0305
     49 H           4.5908   -0.2616   -1.9009 H       1  UNL1        0.0305
     50 H           2.7205    0.8578   -1.1207 H       1  UNL1        0.0370
     51 H           2.8892    2.0866    0.2309 H       1  UNL1        0.0370
     52 H          -2.6416    1.9612    0.1244 H       1  UNL1        0.0645
@<TRIPOS>BOND
     1     1     2    1
     2     2     3    1
     3     2     4    1
     4     2     5    1
     5     5     6   ar
     6     6     7   ar
     7     7     8   ar
     8     8     9   ar
     9     9    10   ar
    10    10    11    1
    11    11    12   ar
    12    12    13   ar
    13    13    14    1
    14    14    15    1
    15    14    16    1
    16    14    17    1
    17    13    18   ar
    18    18    19   ar
    19    19    20   ar
    20    20    21    1
    21    21    22    2
    22    22    23    1
    23    23    24    1
    24    24    25    1
    25    25    26    1
    26    26    27    1
    27    27    28    1
    28    28    29    1
    29    24    30    1
    30    20    31   ar
    31    31    32   ar
    32    32    33   ar
    33    10     5   ar
    34    33    11   ar
    35    32    18   ar
    36    30    21    1
    37    29    24    1
    38     6    34    1
    39     7    35    1
    40     8    36    1
    41     9    37    1
    42    12    38    1
    43    19    39    1
    44    25    40    1
    45    25    41    1
    46    26    42    1
    47    26    43    1
    48    27    44    1
    49    27    45    1
    50    28    46    1
    51    28    47    1
    52    29    48    1
    53    29    49    1
    54    30    50    1
    55    30    51    1
    56    33    52    1
