@<TRIPOS>MOLECULE
*****
 79 85 0 0 0
SMALL
GASTEIGER

@<TRIPOS>ATOM
      1 C          -2.6031   -3.7811    1.2024 C.3     1  UNL1       -0.0377
      2 C          -2.7332   -2.2829    1.0464 C.ar    1  UNL1       -0.0250
      3 C          -3.8437   -1.5327    1.3952 C.ar    1  UNL1       -0.0284
      4 C          -3.5750   -0.1869    1.1428 C.ar    1  UNL1        0.1025
      5 C          -4.5129    0.9215    1.3771 C.2     1  UNL1        0.2604
      6 O          -4.1772    2.0950    1.1662 O.2     1  UNL1       -0.2686
      7 N          -5.8213    0.6660    1.8484 N.am    1  UNL1       -0.3089
      8 C          -6.8409    1.6084    2.1252 C.3     1  UNL1        0.0247
      9 C          -7.3033    2.4707    1.0120 C.3     1  UNL1        0.0146
     10 N          -7.8265    1.8456   -0.1372 N.3     1  UNL1       -0.2965
     11 C          -8.3733    2.8494   -1.0312 C.3     1  UNL1        0.0225
     12 C          -9.7434    3.3050   -0.5599 C.3     1  UNL1        0.0604
     13 O         -10.2576    2.5732    0.4787 O.3     1  UNL1       -0.3772
     14 C         -10.1403    1.2107    0.3655 C.3     1  UNL1        0.0604
     15 C          -8.7344    0.7787    0.0017 C.3     1  UNL1        0.0225
     16 N          -2.3378   -0.1411    0.6568 N.ar    1  UNL1       -0.3508
     17 C          -1.8050   -1.3773    0.5846 C.ar    1  UNL1        0.0435
     18 C          -0.4742   -1.6767    0.0450 C.2     1  UNL1       -0.0252
     19 C          -0.3360   -2.3235   -1.0950 C.2     1  UNL1        0.0527
     20 C          -1.4523   -2.7988   -1.9484 C.2     1  UNL1        0.2502
     21 O          -2.6570   -2.6122   -1.6638 O.2     1  UNL1       -0.2698
     22 N          -0.8699   -3.4412   -3.0477 N.am    1  UNL1       -0.2657
     23 C           0.5434   -3.3970   -2.9363 C.ar    1  UNL1        0.1381
     24 N           1.5282   -3.8596   -3.7440 N.ar    1  UNL1       -0.2198
     25 C           2.8186   -3.6884   -3.4394 C.ar    1  UNL1        0.1202
     26 N           3.1630   -3.0502   -2.3164 N.ar    1  UNL1       -0.2199
     27 C           2.2212   -2.5470   -1.4347 C.ar    1  UNL1        0.1359
     28 N           2.6796   -1.9072   -0.2719 N.pl3   1  UNL1       -0.2988
     29 C           4.0594   -1.4460   -0.2815 C.ar    1  UNL1        0.0331
     30 C           4.7296   -1.4099    0.9187 C.ar    1  UNL1       -0.0385
     31 C           6.0477   -0.9700    0.9911 C.ar    1  UNL1       -0.0358
     32 C           6.7299   -0.5533   -0.1392 C.ar    1  UNL1        0.0495
     33 C           6.0469   -0.5935   -1.3394 C.ar    1  UNL1        0.0016
     34 C           6.9373   -0.1387   -2.2821 C.ar    1  UNL1       -0.0364
     35 C           8.1486    0.1748   -1.6675 C.ar    1  UNL1        0.0061
     36 N           7.9786   -0.0956   -0.3442 N.ar    1  UNL1       -0.3423
     37 C           8.9916    0.0818    0.6739 C.3     1  UNL1        0.0483
     38 C           8.9304    1.4319    1.2673 C.ar    1  UNL1       -0.0278
     39 C           9.5685    2.4913    0.6518 C.ar    1  UNL1       -0.0569
     40 C           9.5523    3.7653    1.1638 C.ar    1  UNL1       -0.0614
     41 C           8.8806    4.0310    2.3379 C.ar    1  UNL1       -0.0617
     42 C           8.2430    2.9676    2.9519 C.ar    1  UNL1       -0.0614
     43 C           8.2659    1.6846    2.4253 C.ar    1  UNL1       -0.0569
     44 C           4.7366   -1.0349   -1.3857 C.ar    1  UNL1       -0.0313
     45 C           0.9132   -2.7314   -1.7688 C.ar    1  UNL1        0.0673
     46 H          -2.9985   -4.0736    2.2145 H       1  UNL1        0.0278
     47 H          -1.5408   -4.0670    1.1928 H       1  UNL1        0.0278
     48 H          -3.2402   -4.3072    0.4732 H       1  UNL1        0.0278
     49 H          -4.7707   -1.9285    1.7978 H       1  UNL1        0.0643
     50 H          -6.0549   -0.3588    2.0112 H       1  UNL1        0.1491
     51 H          -7.7597    1.1254    2.5666 H       1  UNL1        0.0475
     52 H          -6.5267    2.3178    2.9540 H       1  UNL1        0.0475
     53 H          -6.4447    3.1262    0.6676 H       1  UNL1        0.0442
     54 H          -8.0199    3.2268    1.4497 H       1  UNL1        0.0442
     55 H          -7.7263    3.7676   -1.0382 H       1  UNL1        0.0449
     56 H          -8.4424    2.5207   -2.0790 H       1  UNL1        0.0449
     57 H          -9.7219    4.3768   -0.2122 H       1  UNL1        0.0572
     58 H         -10.4579    3.2947   -1.4223 H       1  UNL1        0.0572
     59 H         -10.4628    0.7670    1.3383 H       1  UNL1        0.0572
     60 H         -10.9039    0.8737   -0.3726 H       1  UNL1        0.0572
     61 H          -8.8308    0.3018   -1.0208 H       1  UNL1        0.0449
     62 H          -8.4392   -0.0295    0.6717 H       1  UNL1        0.0449
     63 H          -1.8380    0.7233    0.3693 H       1  UNL1        0.1660
     64 H           0.3326   -1.3167    0.6286 H       1  UNL1        0.0646
     65 H          -1.3918   -3.8891   -3.8359 H       1  UNL1        0.1566
     66 H           3.5633   -4.0718   -4.1195 H       1  UNL1        0.1048
     67 H           2.1806   -1.7479    0.6131 H       1  UNL1        0.1536
     68 H           4.1983   -1.7353    1.8017 H       1  UNL1        0.0637
     69 H           6.5522   -0.9507    1.9503 H       1  UNL1        0.0639
     70 H           6.7531   -0.0287   -3.3470 H       1  UNL1        0.0639
     71 H           9.0611    0.5558   -2.1111 H       1  UNL1        0.0809
     72 H           9.9841   -0.0438    0.1584 H       1  UNL1        0.0541
     73 H           8.9500   -0.7198    1.4448 H       1  UNL1        0.0541
     74 H          10.1011    2.3211   -0.2607 H       1  UNL1        0.0621
     75 H          10.0550    4.5688    0.6654 H       1  UNL1        0.0618
     76 H           8.8479    5.0339    2.7713 H       1  UNL1        0.0618
     77 H           7.7092    3.1579    3.8799 H       1  UNL1        0.0618
     78 H           7.7592    0.8700    2.9254 H       1  UNL1        0.0621
     79 H           4.2278   -1.0361   -2.3498 H       1  UNL1        0.0643
@<TRIPOS>BOND
     1     1     2    1
     2     2     3   ar
     3     3     4   ar
     4     4     5    1
     5     5     6    2
     6     5     7   am
     7     7     8    1
     8     8     9    1
     9     9    10    1
    10    10    11    1
    11    11    12    1
    12    12    13    1
    13    13    14    1
    14    14    15    1
    15     4    16   ar
    16    16    17   ar
    17    17    18    1
    18    18    19    2
    19    19    20    1
    20    20    21    2
    21    20    22   am
    22    22    23    1
    23    23    24   ar
    24    24    25   ar
    25    25    26   ar
    26    26    27   ar
    27    27    28    1
    28    28    29    1
    29    29    30   ar
    30    30    31   ar
    31    31    32   ar
    32    32    33   ar
    33    33    34   ar
    34    34    35   ar
    35    35    36   ar
    36    36    37    1
    37    37    38    1
    38    38    39   ar
    39    39    40   ar
    40    40    41   ar
    41    41    42   ar
    42    42    43   ar
    43    33    44   ar
    44    27    45   ar
    45    17     2   ar
    46    45    19    1
    47    15    10    1
    48    45    23   ar
    49    44    29   ar
    50    36    32   ar
    51    43    38   ar
    52     1    46    1
    53     1    47    1
    54     1    48    1
    55     3    49    1
    56     7    50    1
    57     8    51    1
    58     8    52    1
    59     9    53    1
    60     9    54    1
    61    11    55    1
    62    11    56    1
    63    12    57    1
    64    12    58    1
    65    14    59    1
    66    14    60    1
    67    15    61    1
    68    15    62    1
    69    16    63    1
    70    18    64    1
    71    22    65    1
    72    25    66    1
    73    28    67    1
    74    30    68    1
    75    31    69    1
    76    34    70    1
    77    35    71    1
    78    37    72    1
    79    37    73    1
    80    39    74    1
    81    40    75    1
    82    41    76    1
    83    42    77    1
    84    43    78    1
    85    44    79    1
