
     RDKit          3D

 79 85  0  0  0  0  0  0  0  0999 V2000
   -2.6031   -3.7811    1.2024 C   0  0  0  0  0  0  0  0  0  0  0  0
   -2.7332   -2.2829    1.0464 C   0  0  0  0  0  0  0  0  0  0  0  0
   -3.8437   -1.5327    1.3952 C   0  0  0  0  0  0  0  0  0  0  0  0
   -3.5750   -0.1869    1.1428 C   0  0  0  0  0  0  0  0  0  0  0  0
   -4.5129    0.9215    1.3771 C   0  0  0  0  0  0  0  0  0  0  0  0
   -4.1772    2.0950    1.1662 O   0  0  0  0  0  0  0  0  0  0  0  0
   -5.8213    0.6660    1.8484 N   0  0  0  0  0  0  0  0  0  0  0  0
   -6.8409    1.6084    2.1252 C   0  0  0  0  0  0  0  0  0  0  0  0
   -7.3033    2.4707    1.0120 C   0  0  0  0  0  0  0  0  0  0  0  0
   -7.8265    1.8456   -0.1372 N   0  0  0  0  0  0  0  0  0  0  0  0
   -8.3733    2.8494   -1.0312 C   0  0  0  0  0  0  0  0  0  0  0  0
   -9.7434    3.3050   -0.5599 C   0  0  0  0  0  0  0  0  0  0  0  0
  -10.2576    2.5732    0.4787 O   0  0  0  0  0  0  0  0  0  0  0  0
  -10.1403    1.2107    0.3655 C   0  0  0  0  0  0  0  0  0  0  0  0
   -8.7344    0.7787    0.0017 C   0  0  0  0  0  0  0  0  0  0  0  0
   -2.3378   -0.1411    0.6568 N   0  0  0  0  0  0  0  0  0  0  0  0
   -1.8050   -1.3773    0.5846 C   0  0  0  0  0  0  0  0  0  0  0  0
   -0.4742   -1.6767    0.0450 C   0  0  0  0  0  0  0  0  0  0  0  0
   -0.3360   -2.3235   -1.0950 C   0  0  0  0  0  0  0  0  0  0  0  0
   -1.4523   -2.7988   -1.9484 C   0  0  0  0  0  0  0  0  0  0  0  0
   -2.6570   -2.6122   -1.6638 O   0  0  0  0  0  0  0  0  0  0  0  0
   -0.8699   -3.4412   -3.0477 N   0  0  0  0  0  0  0  0  0  0  0  0
    0.5434   -3.3970   -2.9363 C   0  0  0  0  0  0  0  0  0  0  0  0
    1.5282   -3.8596   -3.7440 N   0  0  0  0  0  0  0  0  0  0  0  0
    2.8186   -3.6884   -3.4394 C   0  0  0  0  0  0  0  0  0  0  0  0
    3.1630   -3.0502   -2.3164 N   0  0  0  0  0  0  0  0  0  0  0  0
    2.2212   -2.5470   -1.4347 C   0  0  0  0  0  0  0  0  0  0  0  0
    2.6796   -1.9072   -0.2719 N   0  0  0  0  0  0  0  0  0  0  0  0
    4.0594   -1.4460   -0.2815 C   0  0  0  0  0  0  0  0  0  0  0  0
    4.7296   -1.4099    0.9187 C   0  0  0  0  0  0  0  0  0  0  0  0
    6.0477   -0.9700    0.9911 C   0  0  0  0  0  0  0  0  0  0  0  0
    6.7299   -0.5533   -0.1392 C   0  0  0  0  0  0  0  0  0  0  0  0
    6.0469   -0.5935   -1.3394 C   0  0  0  0  0  0  0  0  0  0  0  0
    6.9373   -0.1387   -2.2821 C   0  0  0  0  0  0  0  0  0  0  0  0
    8.1486    0.1748   -1.6675 C   0  0  0  0  0  0  0  0  0  0  0  0
    7.9786   -0.0956   -0.3442 N   0  0  0  0  0  0  0  0  0  0  0  0
    8.9916    0.0818    0.6739 C   0  0  0  0  0  0  0  0  0  0  0  0
    8.9304    1.4319    1.2673 C   0  0  0  0  0  0  0  0  0  0  0  0
    9.5685    2.4913    0.6518 C   0  0  0  0  0  0  0  0  0  0  0  0
    9.5523    3.7653    1.1638 C   0  0  0  0  0  0  0  0  0  0  0  0
    8.8806    4.0310    2.3379 C   0  0  0  0  0  0  0  0  0  0  0  0
    8.2430    2.9676    2.9519 C   0  0  0  0  0  0  0  0  0  0  0  0
    8.2659    1.6846    2.4253 C   0  0  0  0  0  0  0  0  0  0  0  0
    4.7366   -1.0349   -1.3857 C   0  0  0  0  0  0  0  0  0  0  0  0
    0.9132   -2.7314   -1.7688 C   0  0  0  0  0  0  0  0  0  0  0  0
   -2.9985   -4.0736    2.2145 H   0  0  0  0  0  0  0  0  0  0  0  0
   -1.5408   -4.0670    1.1928 H   0  0  0  0  0  0  0  0  0  0  0  0
   -3.2402   -4.3072    0.4732 H   0  0  0  0  0  0  0  0  0  0  0  0
   -4.7707   -1.9285    1.7978 H   0  0  0  0  0  0  0  0  0  0  0  0
   -6.0549   -0.3588    2.0112 H   0  0  0  0  0  0  0  0  0  0  0  0
   -7.7597    1.1254    2.5666 H   0  0  0  0  0  0  0  0  0  0  0  0
   -6.5267    2.3178    2.9540 H   0  0  0  0  0  0  0  0  0  0  0  0
   -6.4447    3.1262    0.6676 H   0  0  0  0  0  0  0  0  0  0  0  0
   -8.0199    3.2268    1.4497 H   0  0  0  0  0  0  0  0  0  0  0  0
   -7.7263    3.7676   -1.0382 H   0  0  0  0  0  0  0  0  0  0  0  0
   -8.4424    2.5207   -2.0790 H   0  0  0  0  0  0  0  0  0  0  0  0
   -9.7219    4.3768   -0.2122 H   0  0  0  0  0  0  0  0  0  0  0  0
  -10.4579    3.2947   -1.4223 H   0  0  0  0  0  0  0  0  0  0  0  0
  -10.4628    0.7670    1.3383 H   0  0  0  0  0  0  0  0  0  0  0  0
  -10.9039    0.8737   -0.3726 H   0  0  0  0  0  0  0  0  0  0  0  0
   -8.8308    0.3018   -1.0208 H   0  0  0  0  0  0  0  0  0  0  0  0
   -8.4392   -0.0295    0.6717 H   0  0  0  0  0  0  0  0  0  0  0  0
   -1.8380    0.7233    0.3693 H   0  0  0  0  0  0  0  0  0  0  0  0
    0.3326   -1.3167    0.6286 H   0  0  0  0  0  0  0  0  0  0  0  0
   -1.3918   -3.8891   -3.8359 H   0  0  0  0  0  0  0  0  0  0  0  0
    3.5633   -4.0718   -4.1195 H   0  0  0  0  0  0  0  0  0  0  0  0
    2.1806   -1.7479    0.6131 H   0  0  0  0  0  0  0  0  0  0  0  0
    4.1983   -1.7353    1.8017 H   0  0  0  0  0  0  0  0  0  0  0  0
    6.5522   -0.9507    1.9503 H   0  0  0  0  0  0  0  0  0  0  0  0
    6.7531   -0.0287   -3.3470 H   0  0  0  0  0  0  0  0  0  0  0  0
    9.0611    0.5558   -2.1111 H   0  0  0  0  0  0  0  0  0  0  0  0
    9.9841   -0.0438    0.1584 H   0  0  0  0  0  0  0  0  0  0  0  0
    8.9500   -0.7198    1.4448 H   0  0  0  0  0  0  0  0  0  0  0  0
   10.1011    2.3211   -0.2607 H   0  0  0  0  0  0  0  0  0  0  0  0
   10.0550    4.5688    0.6654 H   0  0  0  0  0  0  0  0  0  0  0  0
    8.8479    5.0339    2.7713 H   0  0  0  0  0  0  0  0  0  0  0  0
    7.7092    3.1579    3.8799 H   0  0  0  0  0  0  0  0  0  0  0  0
    7.7592    0.8700    2.9254 H   0  0  0  0  0  0  0  0  0  0  0  0
    4.2278   -1.0361   -2.3498 H   0  0  0  0  0  0  0  0  0  0  0  0
  1  2  1  0
  2  3  1  0
  3  4  2  0
  4  5  1  0
  5  6  2  0
  5  7  1  0
  7  8  1  0
  8  9  1  0
  9 10  1  0
 10 11  1  0
 11 12  1  0
 12 13  1  0
 13 14  1  0
 14 15  1  0
  4 16  1  0
 16 17  1  0
 17 18  1  0
 18 19  2  0
 19 20  1  0
 20 21  2  0
 20 22  1  0
 22 23  1  0
 23 24  2  0
 24 25  1  0
 25 26  2  0
 26 27  1  0
 27 28  1  0
 28 29  1  0
 29 30  2  0
 30 31  1  0
 31 32  2  0
 32 33  1  0
 33 34  1  0
 34 35  2  0
 35 36  1  0
 36 37  1  0
 37 38  1  0
 38 39  2  0
 39 40  1  0
 40 41  2  0
 41 42  1  0
 42 43  2  0
 33 44  2  0
 27 45  2  0
 17  2  2  0
 45 19  1  0
 15 10  1  0
 45 23  1  0
 44 29  1  0
 36 32  1  0
 43 38  1  0
  1 46  1  0
  1 47  1  0
  1 48  1  0
  3 49  1  0
  7 50  1  0
  8 51  1  0
  8 52  1  0
  9 53  1  0
  9 54  1  0
 11 55  1  0
 11 56  1  0
 12 57  1  0
 12 58  1  0
 14 59  1  0
 14 60  1  0
 15 61  1  0
 15 62  1  0
 16 63  1  0
 18 64  1  0
 22 65  1  0
 25 66  1  0
 28 67  1  0
 30 68  1  0
 31 69  1  0
 34 70  1  0
 35 71  1  0
 37 72  1  0
 37 73  1  0
 39 74  1  0
 40 75  1  0
 41 76  1  0
 42 77  1  0
 43 78  1  0
 44 79  1  0
M  END
$$$$
