@<TRIPOS>MOLECULE
*****
 52 55 0 0 0
SMALL
GASTEIGER

@<TRIPOS>ATOM
      1 N          -6.8029    2.1533   -2.4935 N.pl3   1  UNL1       -0.3274
      2 C          -5.8062    1.4177   -1.7884 C.ar    1  UNL1        0.2148
      3 N          -6.2340    0.2154   -1.3261 N.ar    1  UNL1       -0.2144
      4 C          -5.4366   -0.6284   -0.6327 C.ar    1  UNL1        0.0814
      5 C          -4.1438   -0.2159   -0.4061 C.ar    1  UNL1        0.0816
      6 C          -3.7098    1.0066   -0.8764 C.ar    1  UNL1        0.1326
      7 N          -2.3785    1.4408   -0.6472 N.pl3   1  UNL1       -0.3424
      8 N          -4.5280    1.8379   -1.5705 N.ar    1  UNL1       -0.1994
      9 C          -3.2684   -1.0256    0.2961 C.ar    1  UNL1        0.1330
     10 O          -1.9554   -0.6669    0.5567 O.3     1  UNL1       -0.4909
     11 C          -1.0403   -1.4909    1.2798 C.3     1  UNL1        0.0925
     12 C           0.2486   -0.7367    1.3345 C.3     1  UNL1       -0.0045
     13 C           0.8327   -0.4299   -0.0174 C.3     1  UNL1       -0.0342
     14 C           1.9021    0.6003    0.1829 C.3     1  UNL1       -0.0004
     15 N           2.8520    0.3242    1.2017 N.3     1  UNL1       -0.2981
     16 C           3.9989   -0.3426    0.6788 C.3     1  UNL1        0.0255
     17 C           4.7299    0.4229   -0.3561 C.ar    1  UNL1       -0.0137
     18 C           5.5485    1.4933   -0.0504 C.ar    1  UNL1        0.0636
     19 CL          5.7203    1.9558    1.6415 Cl      1  UNL1       -0.0817
     20 C           6.2325    2.2083   -1.0097 C.ar    1  UNL1        0.0596
     21 CL          7.2556    3.5556   -0.5574 Cl      1  UNL1       -0.0820
     22 C           6.1150    1.8620   -2.3599 C.ar    1  UNL1       -0.0420
     23 C           5.3045    0.7937   -2.7204 C.ar    1  UNL1       -0.0600
     24 C           4.6550    0.1284   -1.7163 C.ar    1  UNL1       -0.0559
     25 C           2.3785   -0.3108    2.3823 C.3     1  UNL1       -0.0004
     26 C           1.3309   -1.3828    2.1495 C.3     1  UNL1       -0.0342
     27 C          -3.7379   -2.2364    0.7487 C.ar    1  UNL1       -0.0191
     28 C          -5.0335   -2.6694    0.5317 C.ar    1  UNL1       -0.0563
     29 C          -5.9053   -1.8403   -0.1793 C.ar    1  UNL1       -0.0353
     30 H          -7.5207    2.6823   -1.9120 H       1  UNL1        0.1452
     31 H          -7.0546    2.3400   -3.4909 H       1  UNL1        0.1452
     32 H          -2.1885    1.6838    0.3685 H       1  UNL1        0.1437
     33 H          -1.8837    1.4184   -1.5601 H       1  UNL1        0.1437
     34 H          -0.8919   -2.3998    0.6341 H       1  UNL1        0.0699
     35 H          -1.4108   -1.7754    2.2622 H       1  UNL1        0.0699
     36 H           0.0759    0.2710    1.8158 H       1  UNL1        0.0334
     37 H           0.0382    0.0322   -0.6356 H       1  UNL1        0.0281
     38 H           1.2030   -1.3386   -0.5357 H       1  UNL1        0.0281
     39 H           2.4750    0.7970   -0.7578 H       1  UNL1        0.0427
     40 H           1.3678    1.5464    0.4786 H       1  UNL1        0.0427
     41 H           3.7392   -1.3387    0.2198 H       1  UNL1        0.0476
     42 H           4.7261   -0.5956    1.5030 H       1  UNL1        0.0476
     43 H           6.6234    2.3827   -3.1496 H       1  UNL1        0.0633
     44 H           5.1634    0.4644   -3.7548 H       1  UNL1        0.0618
     45 H           4.0142   -0.7134   -1.9762 H       1  UNL1        0.0621
     46 H           3.2502   -0.7616    2.9063 H       1  UNL1        0.0427
     47 H           1.8776    0.4322    3.0677 H       1  UNL1        0.0427
     48 H           1.7637   -2.2933    1.7022 H       1  UNL1        0.0281
     49 H           0.9452   -1.6389    3.1749 H       1  UNL1        0.0281
     50 H          -3.0711   -2.8711    1.2920 H       1  UNL1        0.0654
     51 H          -5.4318   -3.6239    0.8786 H       1  UNL1        0.0619
     52 H          -6.9338   -2.1397   -0.3736 H       1  UNL1        0.0639
@<TRIPOS>BOND
     1     1     2    1
     2     2     3   ar
     3     3     4   ar
     4     4     5   ar
     5     5     6   ar
     6     6     7    1
     7     6     8   ar
     8     5     9   ar
     9     9    10    1
    10    10    11    1
    11    11    12    1
    12    12    13    1
    13    13    14    1
    14    14    15    1
    15    15    16    1
    16    16    17    1
    17    17    18   ar
    18    18    19    1
    19    18    20   ar
    20    20    21    1
    21    20    22   ar
    22    22    23   ar
    23    23    24   ar
    24    15    25    1
    25    25    26    1
    26     9    27   ar
    27    27    28   ar
    28    28    29   ar
    29     8     2   ar
    30    26    12    1
    31    29     4   ar
    32    24    17   ar
    33     1    30    1
    34     1    31    1
    35     7    32    1
    36     7    33    1
    37    11    34    1
    38    11    35    1
    39    12    36    1
    40    13    37    1
    41    13    38    1
    42    14    39    1
    43    14    40    1
    44    16    41    1
    45    16    42    1
    46    22    43    1
    47    23    44    1
    48    24    45    1
    49    25    46    1
    50    25    47    1
    51    26    48    1
    52    26    49    1
    53    27    50    1
    54    28    51    1
    55    29    52    1
