
     RDKit          3D

 52 55  0  0  0  0  0  0  0  0999 V2000
   -6.8029    2.1533   -2.4935 N   0  0  0  0  0  0  0  0  0  0  0  0
   -5.8062    1.4177   -1.7884 C   0  0  0  0  0  0  0  0  0  0  0  0
   -6.2340    0.2154   -1.3261 N   0  0  0  0  0  0  0  0  0  0  0  0
   -5.4366   -0.6284   -0.6327 C   0  0  0  0  0  0  0  0  0  0  0  0
   -4.1438   -0.2159   -0.4061 C   0  0  0  0  0  0  0  0  0  0  0  0
   -3.7098    1.0066   -0.8764 C   0  0  0  0  0  0  0  0  0  0  0  0
   -2.3785    1.4408   -0.6472 N   0  0  0  0  0  0  0  0  0  0  0  0
   -4.5280    1.8379   -1.5705 N   0  0  0  0  0  0  0  0  0  0  0  0
   -3.2684   -1.0256    0.2961 C   0  0  0  0  0  0  0  0  0  0  0  0
   -1.9554   -0.6669    0.5567 O   0  0  0  0  0  0  0  0  0  0  0  0
   -1.0403   -1.4909    1.2798 C   0  0  0  0  0  0  0  0  0  0  0  0
    0.2486   -0.7367    1.3345 C   0  0  0  0  0  0  0  0  0  0  0  0
    0.8327   -0.4299   -0.0174 C   0  0  0  0  0  0  0  0  0  0  0  0
    1.9021    0.6003    0.1829 C   0  0  0  0  0  0  0  0  0  0  0  0
    2.8520    0.3242    1.2017 N   0  0  0  0  0  0  0  0  0  0  0  0
    3.9989   -0.3426    0.6788 C   0  0  0  0  0  0  0  0  0  0  0  0
    4.7299    0.4229   -0.3561 C   0  0  0  0  0  0  0  0  0  0  0  0
    5.5485    1.4933   -0.0504 C   0  0  0  0  0  0  0  0  0  0  0  0
    5.7203    1.9558    1.6415 Cl  0  0  0  0  0  0  0  0  0  0  0  0
    6.2325    2.2083   -1.0097 C   0  0  0  0  0  0  0  0  0  0  0  0
    7.2556    3.5556   -0.5574 Cl  0  0  0  0  0  0  0  0  0  0  0  0
    6.1150    1.8620   -2.3599 C   0  0  0  0  0  0  0  0  0  0  0  0
    5.3045    0.7937   -2.7204 C   0  0  0  0  0  0  0  0  0  0  0  0
    4.6550    0.1284   -1.7163 C   0  0  0  0  0  0  0  0  0  0  0  0
    2.3785   -0.3108    2.3823 C   0  0  0  0  0  0  0  0  0  0  0  0
    1.3309   -1.3828    2.1495 C   0  0  0  0  0  0  0  0  0  0  0  0
   -3.7379   -2.2364    0.7487 C   0  0  0  0  0  0  0  0  0  0  0  0
   -5.0335   -2.6694    0.5317 C   0  0  0  0  0  0  0  0  0  0  0  0
   -5.9053   -1.8403   -0.1793 C   0  0  0  0  0  0  0  0  0  0  0  0
   -7.5207    2.6823   -1.9120 H   0  0  0  0  0  0  0  0  0  0  0  0
   -7.0546    2.3400   -3.4909 H   0  0  0  0  0  0  0  0  0  0  0  0
   -2.1885    1.6838    0.3685 H   0  0  0  0  0  0  0  0  0  0  0  0
   -1.8837    1.4184   -1.5601 H   0  0  0  0  0  0  0  0  0  0  0  0
   -0.8919   -2.3998    0.6341 H   0  0  0  0  0  0  0  0  0  0  0  0
   -1.4108   -1.7754    2.2622 H   0  0  0  0  0  0  0  0  0  0  0  0
    0.0759    0.2710    1.8158 H   0  0  0  0  0  0  0  0  0  0  0  0
    0.0382    0.0322   -0.6356 H   0  0  0  0  0  0  0  0  0  0  0  0
    1.2030   -1.3386   -0.5357 H   0  0  0  0  0  0  0  0  0  0  0  0
    2.4750    0.7970   -0.7578 H   0  0  0  0  0  0  0  0  0  0  0  0
    1.3678    1.5464    0.4786 H   0  0  0  0  0  0  0  0  0  0  0  0
    3.7392   -1.3387    0.2198 H   0  0  0  0  0  0  0  0  0  0  0  0
    4.7261   -0.5956    1.5030 H   0  0  0  0  0  0  0  0  0  0  0  0
    6.6234    2.3827   -3.1496 H   0  0  0  0  0  0  0  0  0  0  0  0
    5.1634    0.4644   -3.7548 H   0  0  0  0  0  0  0  0  0  0  0  0
    4.0142   -0.7134   -1.9762 H   0  0  0  0  0  0  0  0  0  0  0  0
    3.2502   -0.7616    2.9063 H   0  0  0  0  0  0  0  0  0  0  0  0
    1.8776    0.4322    3.0677 H   0  0  0  0  0  0  0  0  0  0  0  0
    1.7637   -2.2933    1.7022 H   0  0  0  0  0  0  0  0  0  0  0  0
    0.9452   -1.6389    3.1749 H   0  0  0  0  0  0  0  0  0  0  0  0
   -3.0711   -2.8711    1.2920 H   0  0  0  0  0  0  0  0  0  0  0  0
   -5.4318   -3.6239    0.8786 H   0  0  0  0  0  0  0  0  0  0  0  0
   -6.9338   -2.1397   -0.3736 H   0  0  0  0  0  0  0  0  0  0  0  0
  1  2  1  0
  2  3  2  0
  3  4  1  0
  4  5  2  0
  5  6  1  0
  6  7  1  0
  6  8  2  0
  5  9  1  0
  9 10  1  0
 10 11  1  0
 11 12  1  0
 12 13  1  0
 13 14  1  0
 14 15  1  0
 15 16  1  0
 16 17  1  0
 17 18  2  0
 18 19  1  0
 18 20  1  0
 20 21  1  0
 20 22  2  0
 22 23  1  0
 23 24  2  0
 15 25  1  0
 25 26  1  0
  9 27  2  0
 27 28  1  0
 28 29  2  0
  8  2  1  0
 26 12  1  0
 29  4  1  0
 24 17  1  0
  1 30  1  0
  1 31  1  0
  7 32  1  0
  7 33  1  0
 11 34  1  0
 11 35  1  0
 12 36  1  0
 13 37  1  0
 13 38  1  0
 14 39  1  0
 14 40  1  0
 16 41  1  0
 16 42  1  0
 22 43  1  0
 23 44  1  0
 24 45  1  0
 25 46  1  0
 25 47  1  0
 26 48  1  0
 26 49  1  0
 27 50  1  0
 28 51  1  0
 29 52  1  0
M  END
$$$$
