@<TRIPOS>MOLECULE
*****
 63 65 0 0 0
SMALL
GASTEIGER

@<TRIPOS>ATOM
      1 C          -7.9994    0.9863    1.6921 C.3     1  UNL1       -0.0224
      2 C          -7.1566    0.1593    0.8116 C.ar    1  UNL1        0.0385
      3 C          -5.8893    0.5056    0.4097 C.ar    1  UNL1       -0.0372
      4 C          -5.1507   -0.2914   -0.4042 C.ar    1  UNL1       -0.0413
      5 C          -3.8031   -0.0484   -0.9185 C.3     1  UNL1       -0.0271
      6 C          -3.0628    0.9479   -0.1066 C.3     1  UNL1       -0.0461
      7 C          -1.6679    1.2278   -0.6457 C.3     1  UNL1       -0.0383
      8 C          -0.9554    2.2314    0.1983 C.3     1  UNL1       -0.0357
      9 C           0.1528    1.7474    1.0482 C.3     1  UNL1        0.0204
     10 N           0.7617    0.5151    0.7369 N.3     1  UNL1       -0.1810
     11 S           2.2602    0.5435   -0.0525 S.O2    1  UNL1        0.0339
     12 O           2.2382   -0.1363   -1.3933 O.2     1  UNL1       -0.1580
     13 O           2.6338    1.9747   -0.3177 O.2     1  UNL1       -0.1580
     14 C           3.5204   -0.1412    0.9920 C.3     1  UNL1        0.1057
     15 C           4.8706   -0.1545    0.3072 C.3     1  UNL1        0.0884
     16 N           4.6724   -0.9803   -0.8957 N.am    1  UNL1       -0.1784
     17 O           4.8920   -0.4778   -2.1211 O.3     1  UNL1       -0.2921
     18 C           4.2488   -2.3268   -0.7747 C.2     1  UNL1        0.2256
     19 O           4.0753   -3.0432   -1.8140 O.2     1  UNL1       -0.2772
     20 C           5.3122    1.1920   -0.1001 C.3     1  UNL1       -0.0039
     21 C           6.8071    1.3320   -0.2680 C.3     1  UNL1        0.0497
     22 O           7.3892    0.9312    0.9314 O.3     1  UNL1       -0.3796
     23 C           7.2609   -0.4325    1.0148 C.3     1  UNL1        0.0497
     24 C           5.8368   -0.9039    1.1829 C.3     1  UNL1       -0.0039
     25 C          -0.1274   -0.5146    0.2483 C.3     1  UNL1        0.0204
     26 C          -0.8692    0.0165   -0.9603 C.3     1  UNL1       -0.0357
     27 C          -5.7577   -1.4928   -0.8129 C.ar    1  UNL1       -0.0292
     28 C          -5.0300   -2.4360   -1.7065 C.3     1  UNL1       -0.0380
     29 C          -7.0282   -1.8409   -0.4104 C.ar    1  UNL1        0.0310
     30 N          -7.6919   -1.0074    0.3892 N.ar    1  UNL1       -0.2599
     31 H          -9.0142    1.0311    1.1945 H       1  UNL1        0.0292
     32 H          -7.5959    1.9720    1.9029 H       1  UNL1        0.0292
     33 H          -8.2103    0.3703    2.6163 H       1  UNL1        0.0292
     34 H          -5.4559    1.4328    0.7412 H       1  UNL1        0.0638
     35 H          -3.2793   -1.0477   -0.8706 H       1  UNL1        0.0313
     36 H          -3.9044    0.2847   -1.9708 H       1  UNL1        0.0313
     37 H          -3.6456    1.8940   -0.1043 H       1  UNL1        0.0271
     38 H          -2.9834    0.6315    0.9506 H       1  UNL1        0.0271
     39 H          -1.8638    1.7305   -1.6445 H       1  UNL1        0.0302
     40 H          -1.7354    2.7053    0.8648 H       1  UNL1        0.0281
     41 H          -0.5950    3.1057   -0.4188 H       1  UNL1        0.0281
     42 H           0.9371    2.5405    1.1004 H       1  UNL1        0.0444
     43 H          -0.2173    1.6673    2.1166 H       1  UNL1        0.0444
     44 H           3.5390    0.4068    1.9497 H       1  UNL1        0.0538
     45 H           3.2548   -1.1979    1.2055 H       1  UNL1        0.0538
     46 H           4.7912   -1.2053   -2.7782 H       1  UNL1        0.2417
     47 H           4.0486   -2.8274    0.1547 H       1  UNL1        0.1274
     48 H           4.8493    1.5183   -1.0529 H       1  UNL1        0.0309
     49 H           5.0113    1.9439    0.6562 H       1  UNL1        0.0309
     50 H           7.0403    2.3861   -0.5020 H       1  UNL1        0.0560
     51 H           7.1833    0.6430   -1.0591 H       1  UNL1        0.0560
     52 H           7.9075   -0.8456    1.8108 H       1  UNL1        0.0560
     53 H           7.6675   -0.8746    0.0607 H       1  UNL1        0.0560
     54 H           5.5908   -0.8384    2.2608 H       1  UNL1        0.0309
     55 H           5.8385   -1.9928    0.9340 H       1  UNL1        0.0309
     56 H          -0.8246   -0.7890    1.0610 H       1  UNL1        0.0444
     57 H           0.4703   -1.3786   -0.0584 H       1  UNL1        0.0444
     58 H          -1.4214   -0.7772   -1.4225 H       1  UNL1        0.0281
     59 H          -0.0592    0.3134   -1.6945 H       1  UNL1        0.0281
     60 H          -4.4970   -3.2140   -1.1054 H       1  UNL1        0.0278
     61 H          -4.3434   -1.9079   -2.3953 H       1  UNL1        0.0278
     62 H          -5.7699   -2.9707   -2.3332 H       1  UNL1        0.0278
     63 H          -7.4559   -2.7925   -0.7580 H       1  UNL1        0.0832
@<TRIPOS>BOND
     1     1     2    1
     2     2     3   ar
     3     3     4   ar
     4     4     5    1
     5     5     6    1
     6     6     7    1
     7     7     8    1
     8     8     9    1
     9     9    10    1
    10    10    11    1
    11    11    12    2
    12    11    13    2
    13    11    14    1
    14    14    15    1
    15    15    16    1
    16    16    17    1
    17    16    18   am
    18    18    19    2
    19    15    20    1
    20    20    21    1
    21    21    22    1
    22    22    23    1
    23    23    24    1
    24    10    25    1
    25    25    26    1
    26     4    27   ar
    27    27    28    1
    28    27    29   ar
    29    29    30   ar
    30    30     2   ar
    31    26     7    1
    32    24    15    1
    33     1    31    1
    34     1    32    1
    35     1    33    1
    36     3    34    1
    37     5    35    1
    38     5    36    1
    39     6    37    1
    40     6    38    1
    41     7    39    1
    42     8    40    1
    43     8    41    1
    44     9    42    1
    45     9    43    1
    46    14    44    1
    47    14    45    1
    48    17    46    1
    49    18    47    1
    50    20    48    1
    51    20    49    1
    52    21    50    1
    53    21    51    1
    54    23    52    1
    55    23    53    1
    56    24    54    1
    57    24    55    1
    58    25    56    1
    59    25    57    1
    60    26    58    1
    61    26    59    1
    62    28    60    1
    63    28    61    1
    64    28    62    1
    65    29    63    1
