
     RDKit          3D

 63 65  0  0  0  0  0  0  0  0999 V2000
   -7.9994    0.9863    1.6921 C   0  0  0  0  0  0  0  0  0  0  0  0
   -7.1566    0.1593    0.8116 C   0  0  0  0  0  0  0  0  0  0  0  0
   -5.8893    0.5056    0.4097 C   0  0  0  0  0  0  0  0  0  0  0  0
   -5.1507   -0.2914   -0.4042 C   0  0  0  0  0  0  0  0  0  0  0  0
   -3.8031   -0.0484   -0.9185 C   0  0  0  0  0  0  0  0  0  0  0  0
   -3.0628    0.9479   -0.1066 C   0  0  0  0  0  0  0  0  0  0  0  0
   -1.6679    1.2278   -0.6457 C   0  0  0  0  0  0  0  0  0  0  0  0
   -0.9554    2.2314    0.1983 C   0  0  0  0  0  0  0  0  0  0  0  0
    0.1528    1.7474    1.0482 C   0  0  0  0  0  0  0  0  0  0  0  0
    0.7617    0.5151    0.7369 N   0  0  0  0  0  0  0  0  0  0  0  0
    2.2602    0.5435   -0.0525 S   0  0  0  0  0  6  0  0  0  0  0  0
    2.2382   -0.1363   -1.3933 O   0  0  0  0  0  0  0  0  0  0  0  0
    2.6338    1.9747   -0.3177 O   0  0  0  0  0  0  0  0  0  0  0  0
    3.5204   -0.1412    0.9920 C   0  0  0  0  0  0  0  0  0  0  0  0
    4.8706   -0.1545    0.3072 C   0  0  0  0  0  0  0  0  0  0  0  0
    4.6724   -0.9803   -0.8957 N   0  0  0  0  0  0  0  0  0  0  0  0
    4.8920   -0.4778   -2.1211 O   0  0  0  0  0  0  0  0  0  0  0  0
    4.2488   -2.3268   -0.7747 C   0  0  0  0  0  0  0  0  0  0  0  0
    4.0753   -3.0432   -1.8140 O   0  0  0  0  0  0  0  0  0  0  0  0
    5.3122    1.1920   -0.1001 C   0  0  0  0  0  0  0  0  0  0  0  0
    6.8071    1.3320   -0.2680 C   0  0  0  0  0  0  0  0  0  0  0  0
    7.3892    0.9312    0.9314 O   0  0  0  0  0  0  0  0  0  0  0  0
    7.2609   -0.4325    1.0148 C   0  0  0  0  0  0  0  0  0  0  0  0
    5.8368   -0.9039    1.1829 C   0  0  0  0  0  0  0  0  0  0  0  0
   -0.1274   -0.5146    0.2483 C   0  0  0  0  0  0  0  0  0  0  0  0
   -0.8692    0.0165   -0.9603 C   0  0  0  0  0  0  0  0  0  0  0  0
   -5.7577   -1.4928   -0.8129 C   0  0  0  0  0  0  0  0  0  0  0  0
   -5.0300   -2.4360   -1.7065 C   0  0  0  0  0  0  0  0  0  0  0  0
   -7.0282   -1.8409   -0.4104 C   0  0  0  0  0  0  0  0  0  0  0  0
   -7.6919   -1.0074    0.3892 N   0  0  0  0  0  0  0  0  0  0  0  0
   -9.0142    1.0311    1.1945 H   0  0  0  0  0  0  0  0  0  0  0  0
   -7.5959    1.9720    1.9029 H   0  0  0  0  0  0  0  0  0  0  0  0
   -8.2103    0.3703    2.6163 H   0  0  0  0  0  0  0  0  0  0  0  0
   -5.4559    1.4328    0.7412 H   0  0  0  0  0  0  0  0  0  0  0  0
   -3.2793   -1.0477   -0.8706 H   0  0  0  0  0  0  0  0  0  0  0  0
   -3.9044    0.2847   -1.9708 H   0  0  0  0  0  0  0  0  0  0  0  0
   -3.6456    1.8940   -0.1043 H   0  0  0  0  0  0  0  0  0  0  0  0
   -2.9834    0.6315    0.9506 H   0  0  0  0  0  0  0  0  0  0  0  0
   -1.8638    1.7305   -1.6445 H   0  0  0  0  0  0  0  0  0  0  0  0
   -1.7354    2.7053    0.8648 H   0  0  0  0  0  0  0  0  0  0  0  0
   -0.5950    3.1057   -0.4188 H   0  0  0  0  0  0  0  0  0  0  0  0
    0.9371    2.5405    1.1004 H   0  0  0  0  0  0  0  0  0  0  0  0
   -0.2173    1.6673    2.1166 H   0  0  0  0  0  0  0  0  0  0  0  0
    3.5390    0.4068    1.9497 H   0  0  0  0  0  0  0  0  0  0  0  0
    3.2548   -1.1979    1.2055 H   0  0  0  0  0  0  0  0  0  0  0  0
    4.7912   -1.2053   -2.7782 H   0  0  0  0  0  0  0  0  0  0  0  0
    4.0486   -2.8274    0.1547 H   0  0  0  0  0  0  0  0  0  0  0  0
    4.8493    1.5183   -1.0529 H   0  0  0  0  0  0  0  0  0  0  0  0
    5.0113    1.9439    0.6562 H   0  0  0  0  0  0  0  0  0  0  0  0
    7.0403    2.3861   -0.5020 H   0  0  0  0  0  0  0  0  0  0  0  0
    7.1833    0.6430   -1.0591 H   0  0  0  0  0  0  0  0  0  0  0  0
    7.9075   -0.8456    1.8108 H   0  0  0  0  0  0  0  0  0  0  0  0
    7.6675   -0.8746    0.0607 H   0  0  0  0  0  0  0  0  0  0  0  0
    5.5908   -0.8384    2.2608 H   0  0  0  0  0  0  0  0  0  0  0  0
    5.8385   -1.9928    0.9340 H   0  0  0  0  0  0  0  0  0  0  0  0
   -0.8246   -0.7890    1.0610 H   0  0  0  0  0  0  0  0  0  0  0  0
    0.4703   -1.3786   -0.0584 H   0  0  0  0  0  0  0  0  0  0  0  0
   -1.4214   -0.7772   -1.4225 H   0  0  0  0  0  0  0  0  0  0  0  0
   -0.0592    0.3134   -1.6945 H   0  0  0  0  0  0  0  0  0  0  0  0
   -4.4970   -3.2140   -1.1054 H   0  0  0  0  0  0  0  0  0  0  0  0
   -4.3434   -1.9079   -2.3953 H   0  0  0  0  0  0  0  0  0  0  0  0
   -5.7699   -2.9707   -2.3332 H   0  0  0  0  0  0  0  0  0  0  0  0
   -7.4559   -2.7925   -0.7580 H   0  0  0  0  0  0  0  0  0  0  0  0
  1  2  1  0
  2  3  2  0
  3  4  1  0
  4  5  1  0
  5  6  1  0
  6  7  1  0
  7  8  1  0
  8  9  1  0
  9 10  1  0
 10 11  1  0
 11 12  2  0
 11 13  2  0
 11 14  1  0
 14 15  1  0
 15 16  1  0
 16 17  1  0
 16 18  1  0
 18 19  2  0
 15 20  1  0
 20 21  1  0
 21 22  1  0
 22 23  1  0
 23 24  1  0
 10 25  1  0
 25 26  1  0
  4 27  2  0
 27 28  1  0
 27 29  1  0
 29 30  2  0
 30  2  1  0
 26  7  1  0
 24 15  1  0
  1 31  1  0
  1 32  1  0
  1 33  1  0
  3 34  1  0
  5 35  1  0
  5 36  1  0
  6 37  1  0
  6 38  1  0
  7 39  1  0
  8 40  1  0
  8 41  1  0
  9 42  1  0
  9 43  1  0
 14 44  1  0
 14 45  1  0
 17 46  1  0
 18 47  1  0
 20 48  1  0
 20 49  1  0
 21 50  1  0
 21 51  1  0
 23 52  1  0
 23 53  1  0
 24 54  1  0
 24 55  1  0
 25 56  1  0
 25 57  1  0
 26 58  1  0
 26 59  1  0
 28 60  1  0
 28 61  1  0
 28 62  1  0
 29 63  1  0
M  END
$$$$
