@<TRIPOS>MOLECULE
*****
 43 45 0 0 0
SMALL
GASTEIGER

@<TRIPOS>ATOM
      1 CL         -8.3923    0.1357   -2.1523 Cl      1  UNL1       -0.0804
      2 C          -7.2244   -0.1912   -0.8746 C.ar    1  UNL1        0.0783
      3 C          -5.8685   -0.3679   -1.0593 C.ar    1  UNL1        0.0438
      4 N          -5.2971   -0.5960    0.1354 N.ar    1  UNL1       -0.2700
      5 C          -3.8871   -0.8423    0.4694 C.3     1  UNL1        0.0416
      6 C          -3.2533    0.4791    0.7454 C.3     1  UNL1       -0.0322
      7 C          -1.8018    0.3937    1.1051 C.3     1  UNL1       -0.0385
      8 C          -0.9338   -0.2166    0.0433 C.3     1  UNL1       -0.0009
      9 N           0.4532   -0.2683    0.4618 N.3     1  UNL1       -0.2994
     10 C           1.0615    1.0208    0.5745 C.3     1  UNL1        0.0148
     11 C           2.4845    0.7973    1.0512 C.3     1  UNL1        0.0277
     12 N           3.2127    0.1535   -0.0228 N.pl3   1  UNL1       -0.2972
     13 C           2.3924   -0.4724   -1.0385 C.3     1  UNL1        0.0277
     14 C           1.2445   -1.1757   -0.3260 C.3     1  UNL1        0.0148
     15 C           4.6341    0.1879    0.0037 C.ar    1  UNL1        0.2178
     16 N           5.2000    0.8193    1.0459 N.ar    1  UNL1       -0.2228
     17 C           6.5618    0.8944    1.1413 C.ar    1  UNL1        0.0326
     18 C           7.3866    0.3267    0.1744 C.ar    1  UNL1       -0.0253
     19 C           6.7644   -0.3233   -0.8988 C.ar    1  UNL1        0.0326
     20 N           5.4156   -0.3658   -0.9392 N.ar    1  UNL1       -0.2228
     21 N          -6.2399   -0.5707    1.0692 N.ar    1  UNL1       -0.1782
     22 C          -7.4322   -0.3262    0.4924 C.ar    1  UNL1        0.0677
     23 H          -5.2979   -0.3410   -1.9760 H       1  UNL1        0.0841
     24 H          -3.8108   -1.4698    1.3773 H       1  UNL1        0.0509
     25 H          -3.4689   -1.3706   -0.3946 H       1  UNL1        0.0509
     26 H          -3.7985    0.9625    1.5754 H       1  UNL1        0.0283
     27 H          -3.3955    1.1250   -0.1626 H       1  UNL1        0.0283
     28 H          -1.4839    1.4408    1.3456 H       1  UNL1        0.0278
     29 H          -1.6993   -0.1778    2.0467 H       1  UNL1        0.0278
     30 H          -0.9655    0.3650   -0.8961 H       1  UNL1        0.0427
     31 H          -1.2950   -1.2582   -0.1172 H       1  UNL1        0.0427
     32 H           0.5618    1.5842    1.3963 H       1  UNL1        0.0442
     33 H           1.0518    1.5470   -0.3773 H       1  UNL1        0.0442
     34 H           2.4451    0.1318    1.9358 H       1  UNL1        0.0477
     35 H           3.0137    1.7129    1.3258 H       1  UNL1        0.0477
     36 H           1.9917    0.3175   -1.7011 H       1  UNL1        0.0477
     37 H           2.9708   -1.2188   -1.6352 H       1  UNL1        0.0477
     38 H           0.5848   -1.7000   -1.0596 H       1  UNL1        0.0442
     39 H           1.7367   -1.9412    0.3269 H       1  UNL1        0.0442
     40 H           7.0000    1.4154    2.0037 H       1  UNL1        0.0831
     41 H           8.4669    0.3804    0.2410 H       1  UNL1        0.0648
     42 H           7.3586   -0.7758   -1.6709 H       1  UNL1        0.0831
     43 H          -8.4479   -0.2214    0.8593 H       1  UNL1        0.0863
@<TRIPOS>BOND
     1     1     2    1
     2     2     3   ar
     3     3     4   ar
     4     4     5    1
     5     5     6    1
     6     6     7    1
     7     7     8    1
     8     8     9    1
     9     9    10    1
    10    10    11    1
    11    11    12    1
    12    12    13    1
    13    13    14    1
    14    12    15    1
    15    15    16   ar
    16    16    17   ar
    17    17    18   ar
    18    18    19   ar
    19    19    20   ar
    20     4    21   ar
    21    21    22   ar
    22    22     2   ar
    23    14     9    1
    24    20    15   ar
    25     3    23    1
    26     5    24    1
    27     5    25    1
    28     6    26    1
    29     6    27    1
    30     7    28    1
    31     7    29    1
    32     8    30    1
    33     8    31    1
    34    10    32    1
    35    10    33    1
    36    11    34    1
    37    11    35    1
    38    13    36    1
    39    13    37    1
    40    14    38    1
    41    14    39    1
    42    17    40    1
    43    18    41    1
    44    19    42    1
    45    22    43    1
