
     RDKit          3D

 43 45  0  0  0  0  0  0  0  0999 V2000
   -8.3923    0.1357   -2.1523 Cl  0  0  0  0  0  0  0  0  0  0  0  0
   -7.2244   -0.1912   -0.8746 C   0  0  0  0  0  0  0  0  0  0  0  0
   -5.8685   -0.3679   -1.0593 C   0  0  0  0  0  0  0  0  0  0  0  0
   -5.2971   -0.5960    0.1354 N   0  0  0  0  0  0  0  0  0  0  0  0
   -3.8871   -0.8423    0.4694 C   0  0  0  0  0  0  0  0  0  0  0  0
   -3.2533    0.4791    0.7454 C   0  0  0  0  0  0  0  0  0  0  0  0
   -1.8018    0.3937    1.1051 C   0  0  0  0  0  0  0  0  0  0  0  0
   -0.9338   -0.2166    0.0433 C   0  0  0  0  0  0  0  0  0  0  0  0
    0.4532   -0.2683    0.4618 N   0  0  0  0  0  0  0  0  0  0  0  0
    1.0615    1.0208    0.5745 C   0  0  0  0  0  0  0  0  0  0  0  0
    2.4845    0.7973    1.0512 C   0  0  0  0  0  0  0  0  0  0  0  0
    3.2127    0.1535   -0.0228 N   0  0  0  0  0  0  0  0  0  0  0  0
    2.3924   -0.4724   -1.0385 C   0  0  0  0  0  0  0  0  0  0  0  0
    1.2445   -1.1757   -0.3260 C   0  0  0  0  0  0  0  0  0  0  0  0
    4.6341    0.1879    0.0037 C   0  0  0  0  0  0  0  0  0  0  0  0
    5.2000    0.8193    1.0459 N   0  0  0  0  0  0  0  0  0  0  0  0
    6.5618    0.8944    1.1413 C   0  0  0  0  0  0  0  0  0  0  0  0
    7.3866    0.3267    0.1744 C   0  0  0  0  0  0  0  0  0  0  0  0
    6.7644   -0.3233   -0.8988 C   0  0  0  0  0  0  0  0  0  0  0  0
    5.4156   -0.3658   -0.9392 N   0  0  0  0  0  0  0  0  0  0  0  0
   -6.2399   -0.5707    1.0692 N   0  0  0  0  0  0  0  0  0  0  0  0
   -7.4322   -0.3262    0.4924 C   0  0  0  0  0  0  0  0  0  0  0  0
   -5.2979   -0.3410   -1.9760 H   0  0  0  0  0  0  0  0  0  0  0  0
   -3.8108   -1.4698    1.3773 H   0  0  0  0  0  0  0  0  0  0  0  0
   -3.4689   -1.3706   -0.3946 H   0  0  0  0  0  0  0  0  0  0  0  0
   -3.7985    0.9625    1.5754 H   0  0  0  0  0  0  0  0  0  0  0  0
   -3.3955    1.1250   -0.1626 H   0  0  0  0  0  0  0  0  0  0  0  0
   -1.4839    1.4408    1.3456 H   0  0  0  0  0  0  0  0  0  0  0  0
   -1.6993   -0.1778    2.0467 H   0  0  0  0  0  0  0  0  0  0  0  0
   -0.9655    0.3650   -0.8961 H   0  0  0  0  0  0  0  0  0  0  0  0
   -1.2950   -1.2582   -0.1172 H   0  0  0  0  0  0  0  0  0  0  0  0
    0.5618    1.5842    1.3963 H   0  0  0  0  0  0  0  0  0  0  0  0
    1.0518    1.5470   -0.3773 H   0  0  0  0  0  0  0  0  0  0  0  0
    2.4451    0.1318    1.9358 H   0  0  0  0  0  0  0  0  0  0  0  0
    3.0137    1.7129    1.3258 H   0  0  0  0  0  0  0  0  0  0  0  0
    1.9917    0.3175   -1.7011 H   0  0  0  0  0  0  0  0  0  0  0  0
    2.9708   -1.2188   -1.6352 H   0  0  0  0  0  0  0  0  0  0  0  0
    0.5848   -1.7000   -1.0596 H   0  0  0  0  0  0  0  0  0  0  0  0
    1.7367   -1.9412    0.3269 H   0  0  0  0  0  0  0  0  0  0  0  0
    7.0000    1.4154    2.0037 H   0  0  0  0  0  0  0  0  0  0  0  0
    8.4669    0.3804    0.2410 H   0  0  0  0  0  0  0  0  0  0  0  0
    7.3586   -0.7758   -1.6709 H   0  0  0  0  0  0  0  0  0  0  0  0
   -8.4479   -0.2214    0.8593 H   0  0  0  0  0  0  0  0  0  0  0  0
  1  2  1  0
  2  3  2  0
  3  4  1  0
  4  5  1  0
  5  6  1  0
  6  7  1  0
  7  8  1  0
  8  9  1  0
  9 10  1  0
 10 11  1  0
 11 12  1  0
 12 13  1  0
 13 14  1  0
 12 15  1  0
 15 16  2  0
 16 17  1  0
 17 18  2  0
 18 19  1  0
 19 20  2  0
  4 21  1  0
 21 22  2  0
 22  2  1  0
 14  9  1  0
 20 15  1  0
  3 23  1  0
  5 24  1  0
  5 25  1  0
  6 26  1  0
  6 27  1  0
  7 28  1  0
  7 29  1  0
  8 30  1  0
  8 31  1  0
 10 32  1  0
 10 33  1  0
 11 34  1  0
 11 35  1  0
 13 36  1  0
 13 37  1  0
 14 38  1  0
 14 39  1  0
 17 40  1  0
 18 41  1  0
 19 42  1  0
 22 43  1  0
M  END
$$$$
