@<TRIPOS>MOLECULE
*****
 54 57 0 0 0
SMALL
GASTEIGER

@<TRIPOS>ATOM
      1 C          -5.3623   -0.0555    0.6949 C.3     1  UNL1        0.1587
      2 C          -4.1461    0.7843    0.9969 C.3     1  UNL1        0.0092
      3 C          -2.8907    0.2138    0.5203 C.ar    1  UNL1       -0.0437
      4 C          -2.2076   -0.6278    1.3848 C.ar    1  UNL1       -0.0493
      5 C          -1.0164   -1.2246    1.0569 C.ar    1  UNL1        0.0001
      6 C          -0.4846   -0.9734   -0.1802 C.ar    1  UNL1        0.0494
      7 C          -1.0977   -0.1511   -1.0983 C.ar    1  UNL1       -0.0373
      8 C          -2.3017    0.4230   -0.7055 C.ar    1  UNL1       -0.0565
      9 N           0.6767   -1.6244   -0.3587 N.ar    1  UNL1       -0.3407
     10 C           1.6790   -1.7365   -1.4018 C.3     1  UNL1        0.0687
     11 C           2.7751   -0.7379   -1.2307 C.ar    1  UNL1        0.1023
     12 C           2.9094    0.5912   -1.4823 C.ar    1  UNL1        0.1275
     13 C           1.8412    1.4219   -2.0795 C.3     1  UNL1       -0.0044
     14 O           4.1021    0.9792   -1.1161 O.2     1  UNL1       -0.4401
     15 C           4.7915   -0.0059   -0.6293 C.ar    1  UNL1        0.2291
     16 N           3.9810   -1.0921   -0.6912 N.ar    1  UNL1       -0.2119
     17 C           6.1583    0.0593   -0.1229 C.ar    1  UNL1        0.0552
     18 C           6.7448    1.3125   -0.1819 C.ar    1  UNL1        0.0532
     19 CL          5.9627    2.7391   -0.8077 Cl      1  UNL1       -0.0828
     20 C           8.0502    1.4011    0.3004 C.ar    1  UNL1       -0.0426
     21 C           8.7184    0.2968    0.8086 C.ar    1  UNL1       -0.0603
     22 C           8.1109   -0.9470    0.8572 C.ar    1  UNL1       -0.0610
     23 C           6.8048   -1.0482    0.3775 C.ar    1  UNL1       -0.0481
     24 C           0.8618   -2.2935    0.7988 C.ar    1  UNL1        0.0061
     25 C          -0.1521   -2.0826    1.7065 C.ar    1  UNL1       -0.0364
     26 O          -6.4456    0.6356    1.2187 O.3     1  UNL1       -0.3653
     27 C          -7.3790    1.0653    0.3264 C.3     1  UNL1        0.0459
     28 C          -6.9173    2.0182   -0.7246 C.3     1  UNL1       -0.0415
     29 C          -5.1938   -1.3822    1.3396 C.2     1  UNL1        0.3342
     30 O          -4.7508   -2.6390    1.7032 O.3     1  UNL1       -0.4788
     31 O          -5.8848   -1.9260    2.2670 O.2     1  UNL1       -0.2481
     32 H          -5.4897   -0.1256   -0.3843 H       1  UNL1        0.0716
     33 H          -4.0732    0.9396    2.0924 H       1  UNL1        0.0344
     34 H          -4.3613    1.7904    0.5558 H       1  UNL1        0.0344
     35 H          -2.6077   -0.8421    2.3699 H       1  UNL1        0.0627
     36 H          -0.6804    0.0399   -2.0704 H       1  UNL1        0.0638
     37 H          -2.8378    1.0800   -1.3763 H       1  UNL1        0.0621
     38 H           2.1046   -2.7476   -1.4300 H       1  UNL1        0.0558
     39 H           1.1996   -1.4811   -2.3936 H       1  UNL1        0.0558
     40 H           1.1107    1.6938   -1.2964 H       1  UNL1        0.0308
     41 H           2.2870    2.3900   -2.4186 H       1  UNL1        0.0308
     42 H           1.3644    0.9126   -2.9417 H       1  UNL1        0.0308
     43 H           8.5961    2.3428    0.2964 H       1  UNL1        0.0632
     44 H           9.7302    0.4166    1.1709 H       1  UNL1        0.0618
     45 H           8.6354   -1.7919    1.2513 H       1  UNL1        0.0618
     46 H           6.3230   -2.0148    0.4109 H       1  UNL1        0.0626
     47 H           1.6793   -2.9569    1.1003 H       1  UNL1        0.0809
     48 H          -0.3108   -2.4576    2.7056 H       1  UNL1        0.0639
     49 H          -8.1597    1.6137    0.9186 H       1  UNL1        0.0557
     50 H          -7.9578    0.2230   -0.1496 H       1  UNL1        0.0557
     51 H          -7.7295    2.2380   -1.4494 H       1  UNL1        0.0252
     52 H          -6.6180    3.0066   -0.3229 H       1  UNL1        0.0252
     53 H          -6.1171    1.5446   -1.3255 H       1  UNL1        0.0252
     54 H          -4.0246   -3.0821    1.1391 H       1  UNL1        0.2951
@<TRIPOS>BOND
     1     1     2    1
     2     2     3    1
     3     3     4   ar
     4     4     5   ar
     5     5     6   ar
     6     6     7   ar
     7     7     8   ar
     8     6     9   ar
     9     9    10    1
    10    10    11    1
    11    11    12   ar
    12    12    13    1
    13    12    14   ar
    14    14    15   ar
    15    15    16   ar
    16    15    17    1
    17    17    18   ar
    18    18    19    1
    19    18    20   ar
    20    20    21   ar
    21    21    22   ar
    22    22    23   ar
    23     9    24   ar
    24    24    25   ar
    25     1    26    1
    26    26    27    1
    27    27    28    1
    28     1    29    1
    29    29    30    1
    30    29    31    2
    31     8     3   ar
    32    16    11   ar
    33    23    17   ar
    34    25     5   ar
    35     1    32    1
    36     2    33    1
    37     2    34    1
    38     4    35    1
    39     7    36    1
    40     8    37    1
    41    10    38    1
    42    10    39    1
    43    13    40    1
    44    13    41    1
    45    13    42    1
    46    20    43    1
    47    21    44    1
    48    22    45    1
    49    23    46    1
    50    24    47    1
    51    25    48    1
    52    27    49    1
    53    27    50    1
    54    28    51    1
    55    28    52    1
    56    28    53    1
    57    30    54    1
