@<TRIPOS>MOLECULE
*****
 70 74 0 0 0
SMALL
GASTEIGER

@<TRIPOS>ATOM
      1 C          10.8227    0.5468   -0.8088 C.3     1  UNL1        0.0004
      2 N           9.4037    0.6939   -0.5353 N.am    1  UNL1       -0.3132
      3 C           8.6251   -0.3428    0.0363 C.2     1  UNL1        0.2622
      4 O           9.1749   -1.4292    0.3186 O.2     1  UNL1       -0.2685
      5 C           7.1903   -0.1434    0.2940 C.ar    1  UNL1        0.1253
      6 C           6.4468   -1.1584    0.8529 C.ar    1  UNL1       -0.0306
      7 C           5.0946   -0.9802    1.1001 C.ar    1  UNL1       -0.0504
      8 C           4.4782    0.2036    0.7931 C.ar    1  UNL1        0.0008
      9 C           3.0548    0.3601    1.0361 C.ar    1  UNL1       -0.0051
     10 C           2.6516    1.1107    2.1281 C.ar    1  UNL1       -0.0164
     11 C           1.3194    1.2304    2.3890 C.ar    1  UNL1        0.1451
     12 F           0.9027    1.9691    3.4662 F       1  UNL1       -0.2035
     13 C           0.3337    0.6427    1.6232 C.ar    1  UNL1        0.0686
     14 N          -1.0365    0.8033    1.9633 N.pl3   1  UNL1       -0.2955
     15 C          -2.0857    0.2108    1.2083 C.ar    1  UNL1        0.1499
     16 N          -2.5140   -1.0359    1.3655 N.ar    1  UNL1       -0.1552
     17 N          -3.5145   -1.3157    0.5247 N.ar    1  UNL1       -0.2630
     18 C          -4.2016   -2.5892    0.4428 C.3     1  UNL1        0.0572
     19 C          -3.6711   -3.5478    1.4859 C.3     1  UNL1       -0.0069
     20 C          -4.3857   -4.8674    1.3050 C.3     1  UNL1        0.0496
     21 O          -5.4624   -4.7050    0.4279 O.3     1  UNL1       -0.3796
     22 C          -5.0443   -4.4463   -0.8757 C.3     1  UNL1        0.0496
     23 C          -4.0763   -3.2681   -0.8819 C.3     1  UNL1       -0.0069
     24 C          -3.7173   -0.2040   -0.1819 C.ar    1  UNL1        0.0476
     25 C          -2.8373    0.7932    0.2128 C.ar    1  UNL1        0.0325
     26 C          -2.8680    2.1488   -0.4327 C.3     1  UNL1        0.0462
     27 N          -4.2310    2.4594   -0.8714 N.am    1  UNL1       -0.2808
     28 C          -4.4718    3.7797   -1.3289 C.2     1  UNL1        0.3023
     29 O          -5.6295    4.0928   -1.7176 O.2     1  UNL1       -0.2526
     30 N          -3.4665    4.7826   -1.3743 N.am    1  UNL1       -0.3023
     31 C          -3.8099    6.1062   -1.8585 C.3     1  UNL1        0.0015
     32 C          -5.2852    1.4886   -0.8473 C.3     1  UNL1        0.0219
     33 C          -4.6757    0.1434   -1.2648 C.3     1  UNL1        0.0056
     34 C           0.7500   -0.0961    0.5449 C.ar    1  UNL1       -0.0286
     35 C           2.1083   -0.2403    0.2464 C.ar    1  UNL1        0.0271
     36 C           2.4756   -1.0216   -0.9500 C.3     1  UNL1        0.2650
     37 F           3.3648   -2.0406   -0.7237 F       1  UNL1       -0.2039
     38 F           3.0724   -0.2039   -1.9201 F       1  UNL1       -0.2039
     39 C           5.2537    1.2070    0.2317 C.ar    1  UNL1        0.0361
     40 N           6.5762    1.0106   -0.0014 N.ar    1  UNL1       -0.2498
     41 H          11.1698    1.3927   -1.4067 H       1  UNL1        0.0426
     42 H          11.3655    0.4585    0.1778 H       1  UNL1        0.0426
     43 H          10.9957   -0.4358   -1.3093 H       1  UNL1        0.0426
     44 H           8.9218    1.5779   -0.7570 H       1  UNL1        0.1487
     45 H           6.9110   -2.1077    1.1045 H       1  UNL1        0.0641
     46 H           4.5581   -1.8224    1.5685 H       1  UNL1        0.0625
     47 H           3.4036    1.5973    2.7668 H       1  UNL1        0.0653
     48 H          -1.2838    1.3791    2.8009 H       1  UNL1        0.1537
     49 H          -5.2923   -2.4726    0.6521 H       1  UNL1        0.0546
     50 H          -2.5624   -3.6938    1.3355 H       1  UNL1        0.0308
     51 H          -3.7732   -3.1258    2.5012 H       1  UNL1        0.0308
     52 H          -3.7334   -5.6396    0.8515 H       1  UNL1        0.0560
     53 H          -4.8155   -5.1826    2.2805 H       1  UNL1        0.0560
     54 H          -4.6029   -5.3484   -1.3336 H       1  UNL1        0.0560
     55 H          -5.9545   -4.1008   -1.4243 H       1  UNL1        0.0560
     56 H          -4.2046   -2.6261   -1.7583 H       1  UNL1        0.0308
     57 H          -3.0543   -3.7454   -0.9369 H       1  UNL1        0.0308
     58 H          -2.1894    2.0897   -1.3102 H       1  UNL1        0.0516
     59 H          -2.5780    2.9458    0.2817 H       1  UNL1        0.0516
     60 H          -2.5100    4.5135   -1.0498 H       1  UNL1        0.1499
     61 H          -4.1760    6.0415   -2.9087 H       1  UNL1        0.0426
     62 H          -4.6659    6.4615   -1.2119 H       1  UNL1        0.0426
     63 H          -2.9372    6.7548   -1.7513 H       1  UNL1        0.0426
     64 H          -6.0863    1.7498   -1.5670 H       1  UNL1        0.0469
     65 H          -5.7478    1.3289    0.1274 H       1  UNL1        0.0469
     66 H          -4.1250    0.3285   -2.2038 H       1  UNL1        0.0343
     67 H          -5.4741   -0.6297   -1.3752 H       1  UNL1        0.0343
     68 H          -0.0206   -0.5700   -0.0748 H       1  UNL1        0.0642
     69 H           1.5488   -1.4169   -1.4717 H       1  UNL1        0.1072
     70 H           4.7979    2.1502   -0.0204 H       1  UNL1        0.0836
@<TRIPOS>BOND
     1     1     2    1
     2     2     3   am
     3     3     4    2
     4     3     5    1
     5     5     6   ar
     6     6     7   ar
     7     7     8   ar
     8     8     9    1
     9     9    10   ar
    10    10    11   ar
    11    11    12    1
    12    11    13   ar
    13    13    14    1
    14    14    15    1
    15    15    16   ar
    16    16    17   ar
    17    17    18    1
    18    18    19    1
    19    19    20    1
    20    20    21    1
    21    21    22    1
    22    22    23    1
    23    17    24   ar
    24    24    25   ar
    25    25    26    1
    26    26    27    1
    27    27    28   am
    28    28    29    2
    29    28    30   am
    30    30    31    1
    31    27    32    1
    32    32    33    1
    33    13    34   ar
    34    34    35   ar
    35    35    36    1
    36    36    37    1
    37    36    38    1
    38     8    39   ar
    39    39    40   ar
    40    40     5   ar
    41    35     9   ar
    42    25    15   ar
    43    23    18    1
    44    33    24    1
    45     1    41    1
    46     1    42    1
    47     1    43    1
    48     2    44    1
    49     6    45    1
    50     7    46    1
    51    10    47    1
    52    14    48    1
    53    18    49    1
    54    19    50    1
    55    19    51    1
    56    20    52    1
    57    20    53    1
    58    22    54    1
    59    22    55    1
    60    23    56    1
    61    23    57    1
    62    26    58    1
    63    26    59    1
    64    30    60    1
    65    31    61    1
    66    31    62    1
    67    31    63    1
    68    32    64    1
    69    32    65    1
    70    33    66    1
    71    33    67    1
    72    34    68    1
    73    36    69    1
    74    39    70    1
