
     RDKit          3D

 70 74  0  0  0  0  0  0  0  0999 V2000
   10.8227    0.5468   -0.8088 C   0  0  0  0  0  0  0  0  0  0  0  0
    9.4037    0.6939   -0.5353 N   0  0  0  0  0  0  0  0  0  0  0  0
    8.6251   -0.3428    0.0363 C   0  0  0  0  0  0  0  0  0  0  0  0
    9.1749   -1.4292    0.3186 O   0  0  0  0  0  0  0  0  0  0  0  0
    7.1903   -0.1434    0.2940 C   0  0  0  0  0  0  0  0  0  0  0  0
    6.4468   -1.1584    0.8529 C   0  0  0  0  0  0  0  0  0  0  0  0
    5.0946   -0.9802    1.1001 C   0  0  0  0  0  0  0  0  0  0  0  0
    4.4782    0.2036    0.7931 C   0  0  0  0  0  0  0  0  0  0  0  0
    3.0548    0.3601    1.0361 C   0  0  0  0  0  0  0  0  0  0  0  0
    2.6516    1.1107    2.1281 C   0  0  0  0  0  0  0  0  0  0  0  0
    1.3194    1.2304    2.3890 C   0  0  0  0  0  0  0  0  0  0  0  0
    0.9027    1.9691    3.4662 F   0  0  0  0  0  0  0  0  0  0  0  0
    0.3337    0.6427    1.6232 C   0  0  0  0  0  0  0  0  0  0  0  0
   -1.0365    0.8033    1.9633 N   0  0  0  0  0  0  0  0  0  0  0  0
   -2.0857    0.2108    1.2083 C   0  0  0  0  0  0  0  0  0  0  0  0
   -2.5140   -1.0359    1.3655 N   0  0  0  0  0  0  0  0  0  0  0  0
   -3.5145   -1.3157    0.5247 N   0  0  0  0  0  0  0  0  0  0  0  0
   -4.2016   -2.5892    0.4428 C   0  0  0  0  0  0  0  0  0  0  0  0
   -3.6711   -3.5478    1.4859 C   0  0  0  0  0  0  0  0  0  0  0  0
   -4.3857   -4.8674    1.3050 C   0  0  0  0  0  0  0  0  0  0  0  0
   -5.4624   -4.7050    0.4279 O   0  0  0  0  0  0  0  0  0  0  0  0
   -5.0443   -4.4463   -0.8757 C   0  0  0  0  0  0  0  0  0  0  0  0
   -4.0763   -3.2681   -0.8819 C   0  0  0  0  0  0  0  0  0  0  0  0
   -3.7173   -0.2040   -0.1819 C   0  0  0  0  0  0  0  0  0  0  0  0
   -2.8373    0.7932    0.2128 C   0  0  0  0  0  0  0  0  0  0  0  0
   -2.8680    2.1488   -0.4327 C   0  0  0  0  0  0  0  0  0  0  0  0
   -4.2310    2.4594   -0.8714 N   0  0  0  0  0  0  0  0  0  0  0  0
   -4.4718    3.7797   -1.3289 C   0  0  0  0  0  0  0  0  0  0  0  0
   -5.6295    4.0928   -1.7176 O   0  0  0  0  0  0  0  0  0  0  0  0
   -3.4665    4.7826   -1.3743 N   0  0  0  0  0  0  0  0  0  0  0  0
   -3.8099    6.1062   -1.8585 C   0  0  0  0  0  0  0  0  0  0  0  0
   -5.2852    1.4886   -0.8473 C   0  0  0  0  0  0  0  0  0  0  0  0
   -4.6757    0.1434   -1.2648 C   0  0  0  0  0  0  0  0  0  0  0  0
    0.7500   -0.0961    0.5449 C   0  0  0  0  0  0  0  0  0  0  0  0
    2.1083   -0.2403    0.2464 C   0  0  0  0  0  0  0  0  0  0  0  0
    2.4756   -1.0216   -0.9500 C   0  0  0  0  0  0  0  0  0  0  0  0
    3.3648   -2.0406   -0.7237 F   0  0  0  0  0  0  0  0  0  0  0  0
    3.0724   -0.2039   -1.9201 F   0  0  0  0  0  0  0  0  0  0  0  0
    5.2537    1.2070    0.2317 C   0  0  0  0  0  0  0  0  0  0  0  0
    6.5762    1.0106   -0.0014 N   0  0  0  0  0  0  0  0  0  0  0  0
   11.1698    1.3927   -1.4067 H   0  0  0  0  0  0  0  0  0  0  0  0
   11.3655    0.4585    0.1778 H   0  0  0  0  0  0  0  0  0  0  0  0
   10.9957   -0.4358   -1.3093 H   0  0  0  0  0  0  0  0  0  0  0  0
    8.9218    1.5779   -0.7570 H   0  0  0  0  0  0  0  0  0  0  0  0
    6.9110   -2.1077    1.1045 H   0  0  0  0  0  0  0  0  0  0  0  0
    4.5581   -1.8224    1.5685 H   0  0  0  0  0  0  0  0  0  0  0  0
    3.4036    1.5973    2.7668 H   0  0  0  0  0  0  0  0  0  0  0  0
   -1.2838    1.3791    2.8009 H   0  0  0  0  0  0  0  0  0  0  0  0
   -5.2923   -2.4726    0.6521 H   0  0  0  0  0  0  0  0  0  0  0  0
   -2.5624   -3.6938    1.3355 H   0  0  0  0  0  0  0  0  0  0  0  0
   -3.7732   -3.1258    2.5012 H   0  0  0  0  0  0  0  0  0  0  0  0
   -3.7334   -5.6396    0.8515 H   0  0  0  0  0  0  0  0  0  0  0  0
   -4.8155   -5.1826    2.2805 H   0  0  0  0  0  0  0  0  0  0  0  0
   -4.6029   -5.3484   -1.3336 H   0  0  0  0  0  0  0  0  0  0  0  0
   -5.9545   -4.1008   -1.4243 H   0  0  0  0  0  0  0  0  0  0  0  0
   -4.2046   -2.6261   -1.7583 H   0  0  0  0  0  0  0  0  0  0  0  0
   -3.0543   -3.7454   -0.9369 H   0  0  0  0  0  0  0  0  0  0  0  0
   -2.1894    2.0897   -1.3102 H   0  0  0  0  0  0  0  0  0  0  0  0
   -2.5780    2.9458    0.2817 H   0  0  0  0  0  0  0  0  0  0  0  0
   -2.5100    4.5135   -1.0498 H   0  0  0  0  0  0  0  0  0  0  0  0
   -4.1760    6.0415   -2.9087 H   0  0  0  0  0  0  0  0  0  0  0  0
   -4.6659    6.4615   -1.2119 H   0  0  0  0  0  0  0  0  0  0  0  0
   -2.9372    6.7548   -1.7513 H   0  0  0  0  0  0  0  0  0  0  0  0
   -6.0863    1.7498   -1.5670 H   0  0  0  0  0  0  0  0  0  0  0  0
   -5.7478    1.3289    0.1274 H   0  0  0  0  0  0  0  0  0  0  0  0
   -4.1250    0.3285   -2.2038 H   0  0  0  0  0  0  0  0  0  0  0  0
   -5.4741   -0.6297   -1.3752 H   0  0  0  0  0  0  0  0  0  0  0  0
   -0.0206   -0.5700   -0.0748 H   0  0  0  0  0  0  0  0  0  0  0  0
    1.5488   -1.4169   -1.4717 H   0  0  0  0  0  0  0  0  0  0  0  0
    4.7979    2.1502   -0.0204 H   0  0  0  0  0  0  0  0  0  0  0  0
  1  2  1  0
  2  3  1  0
  3  4  2  0
  3  5  1  0
  5  6  2  0
  6  7  1  0
  7  8  2  0
  8  9  1  0
  9 10  2  0
 10 11  1  0
 11 12  1  0
 11 13  2  0
 13 14  1  0
 14 15  1  0
 15 16  2  0
 16 17  1  0
 17 18  1  0
 18 19  1  0
 19 20  1  0
 20 21  1  0
 21 22  1  0
 22 23  1  0
 17 24  1  0
 24 25  2  0
 25 26  1  0
 26 27  1  0
 27 28  1  0
 28 29  2  0
 28 30  1  0
 30 31  1  0
 27 32  1  0
 32 33  1  0
 13 34  1  0
 34 35  2  0
 35 36  1  0
 36 37  1  0
 36 38  1  0
  8 39  1  0
 39 40  2  0
 40  5  1  0
 35  9  1  0
 25 15  1  0
 23 18  1  0
 33 24  1  0
  1 41  1  0
  1 42  1  0
  1 43  1  0
  2 44  1  0
  6 45  1  0
  7 46  1  0
 10 47  1  0
 14 48  1  0
 18 49  1  0
 19 50  1  0
 19 51  1  0
 20 52  1  0
 20 53  1  0
 22 54  1  0
 22 55  1  0
 23 56  1  0
 23 57  1  0
 26 58  1  0
 26 59  1  0
 30 60  1  0
 31 61  1  0
 31 62  1  0
 31 63  1  0
 32 64  1  0
 32 65  1  0
 33 66  1  0
 33 67  1  0
 34 68  1  0
 36 69  1  0
 39 70  1  0
M  END
$$$$
