@<TRIPOS>MOLECULE
*****
 48 51 0 0 0
SMALL
GASTEIGER

@<TRIPOS>ATOM
      1 C          -7.0211   -0.7759    2.2217 C.3     1  UNL1        0.0124
      2 C          -5.5504   -0.6621    2.3561 C.2     1  UNL1        0.2128
      3 O          -5.0776   -0.7339    3.5361 O.2     1  UNL1       -0.2759
      4 N          -4.6865   -0.4824    1.2498 N.am    1  UNL1       -0.2968
      5 C          -5.2096   -0.3993   -0.0894 C.3     1  UNL1        0.0204
      6 C          -4.7439    0.9189   -0.6843 C.3     1  UNL1        0.0055
      7 C          -3.2399    0.7808   -0.7777 C.ar    1  UNL1        0.0469
      8 C          -2.5709    0.1610    0.2467 C.ar    1  UNL1        0.0324
      9 C          -1.2195    0.1659   -0.0862 C.ar    1  UNL1        0.1498
     10 N          -0.1689   -0.3650    0.6783 N.pl3   1  UNL1       -0.2955
     11 C           1.1965   -0.3554    0.3227 C.ar    1  UNL1        0.0681
     12 C           1.7275    0.1685   -0.8220 C.ar    1  UNL1       -0.0371
     13 C           3.0921    0.1573   -1.1360 C.ar    1  UNL1       -0.0520
     14 C           3.9652   -0.4084   -0.2557 C.ar    1  UNL1       -0.0121
     15 C           5.3861   -0.4232   -0.5767 C.ar    1  UNL1        0.0196
     16 C           5.9263   -0.5063   -1.8390 C.ar    1  UNL1        0.0571
     17 N           7.2785   -0.4912   -1.7174 N.ar    1  UNL1       -0.1793
     18 N           7.6103   -0.4029   -0.4454 N.ar    1  UNL1       -0.2739
     19 C           8.9554   -0.3593    0.0962 C.3     1  UNL1        0.0302
     20 C           6.4742   -0.3586    0.2911 C.ar    1  UNL1        0.0329
     21 C           3.4578   -0.9482    0.9139 C.ar    1  UNL1       -0.0168
     22 C           2.1308   -0.9306    1.2063 C.ar    1  UNL1        0.1450
     23 F           1.6978   -1.4746    2.3659 F       1  UNL1       -0.2035
     24 N          -1.1625    0.7805   -1.2743 N.ar    1  UNL1       -0.1557
     25 N          -2.3471    1.1458   -1.6889 N.ar    1  UNL1       -0.2692
     26 C          -2.7081    1.8400   -2.9291 C.3     1  UNL1        0.0306
     27 C          -3.2639   -0.3806    1.4477 C.3     1  UNL1        0.0447
     28 H          -7.4707    0.1225    1.7294 H       1  UNL1        0.0323
     29 H          -7.3313   -1.6492    1.6181 H       1  UNL1        0.0323
     30 H          -7.5206   -0.8658    3.2046 H       1  UNL1        0.0323
     31 H          -4.7155   -1.2177   -0.6860 H       1  UNL1        0.0468
     32 H          -6.2973   -0.5324   -0.1437 H       1  UNL1        0.0468
     33 H          -4.9395    1.7204    0.0284 H       1  UNL1        0.0343
     34 H          -5.1909    1.1403   -1.6535 H       1  UNL1        0.0343
     35 H          -0.4269   -0.8077    1.5961 H       1  UNL1        0.1537
     36 H           1.0533    0.6305   -1.5508 H       1  UNL1        0.0637
     37 H           3.4023    0.6043   -2.0777 H       1  UNL1        0.0624
     38 H           5.3547   -0.5724   -2.7685 H       1  UNL1        0.0854
     39 H           9.4216    0.6233    0.0447 H       1  UNL1        0.0473
     40 H           9.5840   -1.1555   -0.4006 H       1  UNL1        0.0473
     41 H           8.9405   -0.6577    1.1738 H       1  UNL1        0.0473
     42 H           6.3619   -0.2868    1.3534 H       1  UNL1        0.0832
     43 H           4.1878   -1.3935    1.5965 H       1  UNL1        0.0653
     44 H          -1.8200    2.0435   -3.5552 H       1  UNL1        0.0473
     45 H          -3.1450    2.8308   -2.6783 H       1  UNL1        0.0473
     46 H          -3.4969    1.2674   -3.4567 H       1  UNL1        0.0473
     47 H          -2.8788   -1.3872    1.7014 H       1  UNL1        0.0515
     48 H          -3.0012    0.2686    2.3141 H       1  UNL1        0.0515
@<TRIPOS>BOND
     1     1     2    1
     2     2     3    2
     3     2     4   am
     4     4     5    1
     5     5     6    1
     6     6     7    1
     7     7     8   ar
     8     8     9   ar
     9     9    10    1
    10    10    11    1
    11    11    12   ar
    12    12    13   ar
    13    13    14   ar
    14    14    15    1
    15    15    16   ar
    16    16    17   ar
    17    17    18   ar
    18    18    19    1
    19    18    20   ar
    20    14    21   ar
    21    21    22   ar
    22    22    23    1
    23     9    24   ar
    24    24    25   ar
    25    25    26    1
    26     8    27    1
    27    27     4    1
    28    25     7   ar
    29    22    11   ar
    30    20    15   ar
    31     1    28    1
    32     1    29    1
    33     1    30    1
    34     5    31    1
    35     5    32    1
    36     6    33    1
    37     6    34    1
    38    10    35    1
    39    12    36    1
    40    13    37    1
    41    16    38    1
    42    19    39    1
    43    19    40    1
    44    19    41    1
    45    20    42    1
    46    21    43    1
    47    26    44    1
    48    26    45    1
    49    26    46    1
    50    27    47    1
    51    27    48    1
