@<TRIPOS>MOLECULE
*****
 56 59 0 0 0
SMALL
GASTEIGER

@<TRIPOS>ATOM
      1 C          -1.3294   -0.1975   -0.3077 C.3     1  UNL1        0.0256
      2 C          -0.0465   -0.9661   -0.0283 C.3     1  UNL1       -0.0349
      3 C           1.0870   -0.1077   -0.6362 C.3     1  UNL1        0.0242
      4 C           1.3476    0.9718    0.3171 C.2     1  UNL1        0.0466
      5 C           0.2077    1.6197    0.4828 C.2     1  UNL1        0.1407
      6 O           0.3185    2.6956    1.3867 O.2     1  UNL1       -0.5073
      7 C          -1.0679    1.2630   -0.2058 C.3     1  UNL1        0.1898
      8 O          -0.9531    1.8893   -1.4751 O.3     1  UNL1       -0.3732
      9 C          -2.1270    2.0418    0.5141 C.2     1  UNL1        0.2105
     10 O          -1.8658    3.0363    1.2471 O.2     1  UNL1       -0.2882
     11 C          -3.4968    1.5837    0.3191 C.2     1  UNL1        0.1208
     12 C          -4.5739    2.5444    0.2185 C.2     1  UNL1        0.2483
     13 N          -4.3595    3.9442    0.3035 N.am    1  UNL1       -0.3252
     14 O          -5.7582    2.2336    0.0522 O.2     1  UNL1       -0.2702
     15 C          -3.6413    0.2730    0.2614 C.2     1  UNL1        0.1270
     16 O          -5.0017   -0.0629    0.0679 O.2     1  UNL1       -0.5086
     17 C          -2.5343   -0.7058    0.3844 C.3     1  UNL1        0.0746
     18 N          -2.9375   -2.0312    0.0315 N.3     1  UNL1       -0.2985
     19 C          -4.2545   -2.3586    0.6011 C.3     1  UNL1       -0.0124
     20 C          -2.0517   -3.0718    0.5661 C.3     1  UNL1       -0.0124
     21 C           2.5880    1.3237    0.9902 C.2     1  UNL1        0.1967
     22 O           2.6148    2.3019    1.7724 O.2     1  UNL1       -0.2867
     23 C           3.7236    0.4760    0.6813 C.ar    1  UNL1        0.0693
     24 C           4.9333    0.7297    1.2677 C.ar    1  UNL1        0.1280
     25 O           5.0310    1.8008    2.1459 O.3     1  UNL1       -0.5060
     26 C           6.0211   -0.0727    0.9800 C.ar    1  UNL1       -0.0194
     27 C           5.8385   -1.1266    0.0884 C.ar    1  UNL1       -0.0579
     28 C           4.6026   -1.3786   -0.5050 C.ar    1  UNL1       -0.0549
     29 C           3.5144   -0.5530   -0.1992 C.ar    1  UNL1       -0.0015
     30 C           2.2913   -0.9669   -0.9170 C.3     1  UNL1        0.0959
     31 C           2.6146   -0.9107   -2.3921 C.3     1  UNL1       -0.0313
     32 O           2.0535   -2.3005   -0.5736 O.3     1  UNL1       -0.3836
     33 H          -1.5110   -0.3914   -1.4161 H       1  UNL1        0.0357
     34 H          -0.0394   -1.9560   -0.4886 H       1  UNL1        0.0276
     35 H           0.1677   -0.9525    1.0554 H       1  UNL1        0.0276
     36 H           0.7219    0.3030   -1.5938 H       1  UNL1        0.0382
     37 H           0.3726    2.5736    2.3778 H       1  UNL1        0.2918
     38 H          -0.9447    2.8638   -1.2432 H       1  UNL1        0.2113
     39 H          -4.3713    4.6876   -0.4394 H       1  UNL1        0.1453
     40 H          -4.1882    3.9973    1.3295 H       1  UNL1        0.1453
     41 H          -5.4027    0.1067   -0.8601 H       1  UNL1        0.2918
     42 H          -2.2752   -0.7519    1.4873 H       1  UNL1        0.0547
     43 H          -5.0471   -2.3406   -0.1797 H       1  UNL1        0.0391
     44 H          -4.4644   -1.7881    1.5063 H       1  UNL1        0.0391
     45 H          -4.2528   -3.4378    0.9367 H       1  UNL1        0.0391
     46 H          -1.3482   -2.7230    1.3141 H       1  UNL1        0.0391
     47 H          -1.6260   -3.6368   -0.2929 H       1  UNL1        0.0391
     48 H          -2.6527   -3.8762    1.1066 H       1  UNL1        0.0391
     49 H           5.2984    2.6932    1.7044 H       1  UNL1        0.2922
     50 H           6.9677    0.1462    1.4550 H       1  UNL1        0.0654
     51 H           6.7460   -1.6937   -0.0706 H       1  UNL1        0.0619
     52 H           4.6838   -2.2484   -1.1668 H       1  UNL1        0.0621
     53 H           2.5564    0.1861   -2.6550 H       1  UNL1        0.0261
     54 H           3.6439   -1.2577   -2.6149 H       1  UNL1        0.0261
     55 H           1.9064   -1.5044   -3.0052 H       1  UNL1        0.0261
     56 H           2.2704   -2.9170   -1.3201 H       1  UNL1        0.2106
@<TRIPOS>BOND
     1     1     2    1
     2     2     3    1
     3     3     4    1
     4     4     5    2
     5     5     6    1
     6     5     7    1
     7     7     8    1
     8     7     9    1
     9     9    10    2
    10     9    11    1
    11    11    12    1
    12    12    13   am
    13    12    14    2
    14    11    15    2
    15    15    16    1
    16    15    17    1
    17    17    18    1
    18    18    19    1
    19    18    20    1
    20     4    21    1
    21    21    22    2
    22    21    23    1
    23    23    24   ar
    24    24    25    1
    25    24    26   ar
    26    26    27   ar
    27    27    28   ar
    28    28    29   ar
    29    29    30    1
    30    30    31    1
    31    30    32    1
    32     7     1    1
    33    29    23   ar
    34    17     1    1
    35    30     3    1
    36     1    33    1
    37     2    34    1
    38     2    35    1
    39     3    36    1
    40     6    37    1
    41     8    38    1
    42    13    39    1
    43    13    40    1
    44    16    41    1
    45    17    42    1
    46    19    43    1
    47    19    44    1
    48    19    45    1
    49    20    46    1
    50    20    47    1
    51    20    48    1
    52    25    49    1
    53    26    50    1
    54    27    51    1
    55    28    52    1
    56    31    53    1
    57    31    54    1
    58    31    55    1
    59    32    56    1
