@<TRIPOS>MOLECULE
*****
 69 73 0 0 0
SMALL
GASTEIGER

@<TRIPOS>ATOM
      1 C          -4.0491    2.5185    1.7146 C.3     1  UNL1       -0.0634
      2 C          -4.7691    1.3221    2.3331 C.3     1  UNL1       -0.0317
      3 C          -4.3636    0.0805    1.5201 C.3     1  UNL1        0.0874
      4 C          -2.8958   -0.0863    1.5927 C.2     1  UNL1        0.2345
      5 O          -2.3797   -0.7252    2.5765 O.2     1  UNL1       -0.2737
      6 N          -1.9605    0.4113    0.6534 N.am    1  UNL1       -0.2825
      7 C          -0.5439    0.1900    0.8186 C.ar    1  UNL1        0.0576
      8 C           0.1401    1.1153    1.5941 C.ar    1  UNL1       -0.0384
      9 C           1.4890    1.0269    1.8278 C.ar    1  UNL1       -0.0593
     10 C           2.1802   -0.0253    1.2655 C.ar    1  UNL1       -0.0518
     11 C           1.5142   -0.9546    0.4909 C.ar    1  UNL1        0.0107
     12 C           1.9548   -2.0747   -0.1792 C.ar    1  UNL1        0.0284
     13 C           3.3276   -2.5635   -0.2096 C.ar    1  UNL1        0.1132
     14 N           4.3675   -1.7361   -0.4517 N.ar    1  UNL1       -0.2113
     15 C           5.6374   -2.1382   -0.4973 C.ar    1  UNL1        0.2202
     16 N           6.7436   -1.2862   -0.7393 N.pl3   1  UNL1       -0.2809
     17 C           6.6342    0.1279   -0.9344 C.ar    1  UNL1        0.0744
     18 C           5.5167    0.9028   -0.9264 C.ar    1  UNL1        0.0467
     19 N           5.8814    2.1876   -1.1499 N.ar    1  UNL1       -0.2724
     20 C           4.9561    3.3038   -1.2095 C.3     1  UNL1        0.0303
     21 N           7.1820    2.2225   -1.2934 N.ar    1  UNL1       -0.1748
     22 C           7.7020    1.0014   -1.1741 C.ar    1  UNL1        0.0811
     23 C           9.1426    0.5853   -1.2665 C.3     1  UNL1       -0.0188
     24 N           5.9168   -3.4582   -0.2897 N.ar    1  UNL1       -0.2198
     25 C           4.9509   -4.3606   -0.0410 C.ar    1  UNL1        0.0685
     26 C           3.6462   -3.8879   -0.0042 C.ar    1  UNL1        0.1674
     27 F           2.6542   -4.7571    0.2418 F       1  UNL1       -0.2016
     28 C           0.8169   -2.6014   -0.7869 C.ar    1  UNL1        0.0121
     29 N          -0.2629   -1.8554   -0.5116 N.ar    1  UNL1       -0.3586
     30 C           0.1375   -0.8489    0.2632 C.ar    1  UNL1        0.0686
     31 N          -4.8809    0.2535    0.1818 N.3     1  UNL1       -0.2891
     32 C          -4.5598   -0.8441   -0.6837 C.3     1  UNL1        0.0124
     33 C          -5.2170   -0.8181   -2.0092 C.3     1  UNL1        0.0114
     34 N          -6.3987   -0.0381   -2.1051 N.3     1  UNL1       -0.3029
     35 C          -6.2796    1.2523   -2.6923 C.3     1  UNL1       -0.0127
     36 C          -7.1052   -0.0654   -0.8731 C.3     1  UNL1        0.0114
     37 C          -6.2909    0.5410    0.2271 C.3     1  UNL1        0.0124
     38 H          -2.9977    2.5551    2.0235 H       1  UNL1        0.0230
     39 H          -4.5566    3.4564    1.9822 H       1  UNL1        0.0230
     40 H          -4.1843    2.3865    0.6161 H       1  UNL1        0.0230
     41 H          -4.3876    1.1887    3.3535 H       1  UNL1        0.0282
     42 H          -5.8334    1.4784    2.2211 H       1  UNL1        0.0282
     43 H          -4.8552   -0.7748    1.9828 H       1  UNL1        0.0558
     44 H          -2.2812    0.9564   -0.1662 H       1  UNL1        0.1549
     45 H          -0.3884    1.9559    2.0496 H       1  UNL1        0.0637
     46 H           2.0464    1.7490    2.4398 H       1  UNL1        0.0618
     47 H           3.2512   -0.1244    1.4326 H       1  UNL1        0.0624
     48 H           7.7196   -1.6882   -0.7842 H       1  UNL1        0.1551
     49 H           4.4769    0.5771   -0.7683 H       1  UNL1        0.0845
     50 H           3.9994    2.9296   -1.6702 H       1  UNL1        0.0473
     51 H           4.7125    3.6633   -0.1771 H       1  UNL1        0.0473
     52 H           5.3844    4.1663   -1.7505 H       1  UNL1        0.0473
     53 H           9.4959    0.2141   -0.2993 H       1  UNL1        0.0294
     54 H           9.7173    1.5144   -1.5196 H       1  UNL1        0.0294
     55 H           9.2356   -0.1380   -2.0781 H       1  UNL1        0.0294
     56 H           5.2017   -5.4156    0.1229 H       1  UNL1        0.0861
     57 H           0.8672   -3.5121   -1.3996 H       1  UNL1        0.0814
     58 H          -1.2357   -2.0069   -0.8278 H       1  UNL1        0.1654
     59 H          -4.8944   -1.7806   -0.1447 H       1  UNL1        0.0439
     60 H          -3.4696   -0.9399   -0.7774 H       1  UNL1        0.0439
     61 H          -5.4618   -1.8691   -2.3471 H       1  UNL1        0.0439
     62 H          -4.5066   -0.4417   -2.7986 H       1  UNL1        0.0439
     63 H          -5.9672    1.2083   -3.7442 H       1  UNL1        0.0391
     64 H          -5.6385    1.9548   -2.1431 H       1  UNL1        0.0391
     65 H          -7.3192    1.6975   -2.6927 H       1  UNL1        0.0391
     66 H          -8.0423    0.5485   -0.9880 H       1  UNL1        0.0439
     67 H          -7.4309   -1.0933   -0.6126 H       1  UNL1        0.0439
     68 H          -6.6768    0.0530    1.1718 H       1  UNL1        0.0439
     69 H          -6.5158    1.6139    0.3196 H       1  UNL1        0.0439
@<TRIPOS>BOND
     1     1     2    1
     2     2     3    1
     3     3     4    1
     4     4     5    2
     5     4     6   am
     6     6     7    1
     7     7     8   ar
     8     8     9   ar
     9     9    10   ar
    10    10    11   ar
    11    11    12   ar
    12    12    13    1
    13    13    14   ar
    14    14    15   ar
    15    15    16    1
    16    16    17    1
    17    17    18   ar
    18    18    19   ar
    19    19    20    1
    20    19    21   ar
    21    21    22   ar
    22    22    23    1
    23    15    24   ar
    24    24    25   ar
    25    25    26   ar
    26    26    27    1
    27    12    28   ar
    28    28    29   ar
    29    29    30   ar
    30     3    31    1
    31    31    32    1
    32    32    33    1
    33    33    34    1
    34    34    35    1
    35    34    36    1
    36    36    37    1
    37    30     7   ar
    38    37    31    1
    39    30    11   ar
    40    26    13   ar
    41    22    17   ar
    42     1    38    1
    43     1    39    1
    44     1    40    1
    45     2    41    1
    46     2    42    1
    47     3    43    1
    48     6    44    1
    49     8    45    1
    50     9    46    1
    51    10    47    1
    52    16    48    1
    53    18    49    1
    54    20    50    1
    55    20    51    1
    56    20    52    1
    57    23    53    1
    58    23    54    1
    59    23    55    1
    60    25    56    1
    61    28    57    1
    62    29    58    1
    63    32    59    1
    64    32    60    1
    65    33    61    1
    66    33    62    1
    67    35    63    1
    68    35    64    1
    69    35    65    1
    70    36    66    1
    71    36    67    1
    72    37    68    1
    73    37    69    1
