@<TRIPOS>MOLECULE
*****
 44 45 0 0 0
SMALL
GASTEIGER

@<TRIPOS>ATOM
      1 C           1.1536    0.6712    1.6972 C.3     1  UNL1       -0.0619
      2 C          -0.2059    0.6372    1.0601 C.3     1  UNL1       -0.0370
      3 C          -1.1031   -0.2402    1.8985 C.3     1  UNL1       -0.0247
      4 C          -0.6403   -1.6337    2.0239 C.ar    1  UNL1       -0.0434
      5 C          -1.0249   -2.5869    1.0734 C.ar    1  UNL1       -0.0549
      6 C          -0.6195   -3.9013    1.1568 C.ar    1  UNL1       -0.0163
      7 C           0.1832   -4.3069    2.1920 C.ar    1  UNL1        0.1582
      8 O           0.6066   -5.6456    2.2926 O.3     1  UNL1       -0.5033
      9 C           0.5792   -3.3929    3.1444 C.ar    1  UNL1        0.1585
     10 O           1.3959   -3.7885    4.2043 O.3     1  UNL1       -0.5033
     11 C           0.1553   -2.0698    3.0369 C.ar    1  UNL1       -0.0133
     12 C          -0.8065    1.9692    0.7583 C.3     1  UNL1       -0.0370
     13 C          -2.1958    1.8405    0.1462 C.3     1  UNL1       -0.0619
     14 C           0.0707    2.8407   -0.0910 C.3     1  UNL1       -0.0247
     15 C           0.4212    2.3452   -1.4052 C.ar    1  UNL1       -0.0434
     16 C           1.5567    1.6112   -1.6280 C.ar    1  UNL1       -0.0549
     17 C           1.8827    1.1322   -2.9057 C.ar    1  UNL1       -0.0163
     18 C           1.0586    1.3974   -3.9563 C.ar    1  UNL1        0.1582
     19 O           1.3674    0.9328   -5.2160 O.3     1  UNL1       -0.5033
     20 C          -0.0742    2.1237   -3.7617 C.ar    1  UNL1        0.1585
     21 O          -0.9263    2.4011   -4.8336 O.3     1  UNL1       -0.5033
     22 C          -0.3798    2.5867   -2.5000 C.ar    1  UNL1       -0.0133
     23 H           1.7868   -0.1874    1.3428 H       1  UNL1        0.0233
     24 H           1.6845    1.5816    1.3957 H       1  UNL1        0.0233
     25 H           1.0785    0.6737    2.8080 H       1  UNL1        0.0233
     26 H          -0.0159    0.1459    0.0507 H       1  UNL1        0.0304
     27 H          -2.0893   -0.2816    1.3547 H       1  UNL1        0.0316
     28 H          -1.2567    0.1869    2.9091 H       1  UNL1        0.0316
     29 H          -1.6521   -2.2972    0.2537 H       1  UNL1        0.0621
     30 H          -0.9207   -4.6467    0.4128 H       1  UNL1        0.0655
     31 H           0.0993   -6.3428    1.7583 H       1  UNL1        0.2923
     32 H           2.0764   -4.5314    4.1181 H       1  UNL1        0.2923
     33 H           0.4791   -1.3935    3.7949 H       1  UNL1        0.0658
     34 H          -0.9675    2.5018    1.7091 H       1  UNL1        0.0304
     35 H          -2.2241    1.2034   -0.7291 H       1  UNL1        0.0233
     36 H          -2.8782    1.5662    0.9621 H       1  UNL1        0.0233
     37 H          -2.4790    2.8688   -0.1799 H       1  UNL1        0.0233
     38 H          -0.5306    3.7952   -0.2643 H       1  UNL1        0.0316
     39 H           0.9196    3.1865    0.5168 H       1  UNL1        0.0316
     40 H           2.2742    1.3503   -0.8712 H       1  UNL1        0.0621
     41 H           2.7796    0.5529   -3.0790 H       1  UNL1        0.0655
     42 H           2.1428    0.3084   -5.4076 H       1  UNL1        0.2923
     43 H          -1.4943    1.6867   -5.2411 H       1  UNL1        0.2923
     44 H          -1.2670    3.1494   -2.3754 H       1  UNL1        0.0658
@<TRIPOS>BOND
     1     1     2    1
     2     2     3    1
     3     3     4    1
     4     4     5   ar
     5     5     6   ar
     6     6     7   ar
     7     7     8    1
     8     7     9   ar
     9     9    10    1
    10     9    11   ar
    11     2    12    1
    12    12    13    1
    13    12    14    1
    14    14    15    1
    15    15    16   ar
    16    16    17   ar
    17    17    18   ar
    18    18    19    1
    19    18    20   ar
    20    20    21    1
    21    20    22   ar
    22    11     4   ar
    23    22    15   ar
    24     1    23    1
    25     1    24    1
    26     1    25    1
    27     2    26    1
    28     3    27    1
    29     3    28    1
    30     5    29    1
    31     6    30    1
    32     8    31    1
    33    10    32    1
    34    11    33    1
    35    12    34    1
    36    13    35    1
    37    13    36    1
    38    13    37    1
    39    14    38    1
    40    14    39    1
    41    16    40    1
    42    17    41    1
    43    19    42    1
    44    21    43    1
    45    22    44    1
