@<TRIPOS>MOLECULE
*****
 56 58 0 0 0
SMALL
GASTEIGER

@<TRIPOS>ATOM
      1 C           0.5061    2.5625    1.8848 C.3     1  UNL1       -0.0445
      2 C           0.2124    2.2949    0.4257 C.3     1  UNL1        0.0295
      3 C           0.1578    3.6705   -0.2346 C.3     1  UNL1       -0.0445
      4 N          -0.9450    1.4879    0.2263 N.ar    1  UNL1       -0.3372
      5 C          -0.8935    0.1528    0.2424 C.ar    1  UNL1        0.0507
      6 C           0.0728   -0.8702    0.5023 C.2     1  UNL1       -0.0391
      7 C           1.3119   -0.8802    0.9309 C.2     1  UNL1       -0.0539
      8 C           2.3167   -1.9366    1.1993 C.3     1  UNL1        0.0761
      9 O           2.9642   -1.8178    2.4021 O.3     1  UNL1       -0.3877
     10 C           3.2504   -2.1508    0.0452 C.3     1  UNL1        0.0034
     11 C           3.9888   -0.9147   -0.3038 C.3     1  UNL1        0.0679
     12 O           4.8361   -1.1874   -1.3880 O.3     1  UNL1       -0.3912
     13 C           4.7340   -0.3458    0.8508 C.3     1  UNL1        0.0708
     14 C           5.4797    0.8904    0.4249 C.2     1  UNL1        0.3072
     15 O           5.8924    1.8579   -0.4714 O.3     1  UNL1       -0.4806
     16 O           6.1697    1.4829    1.3171 O.2     1  UNL1       -0.2509
     17 C          -2.1882   -0.3354   -0.0177 C.ar    1  UNL1        0.0147
     18 C          -2.7335   -1.7145   -0.1250 C.ar    1  UNL1       -0.0151
     19 C          -3.2338   -2.3925    0.9744 C.ar    1  UNL1       -0.0512
     20 C          -3.7312   -3.6739    0.8275 C.ar    1  UNL1       -0.0259
     21 C          -3.7090   -4.2372   -0.4325 C.ar    1  UNL1        0.1234
     22 F          -4.2138   -5.5052   -0.5163 F       1  UNL1       -0.2055
     23 C          -3.2141   -3.5760   -1.5397 C.ar    1  UNL1       -0.0259
     24 C          -2.7190   -2.2896   -1.3712 C.ar    1  UNL1       -0.0512
     25 C          -3.0102    0.7531   -0.1860 C.ar    1  UNL1        0.0082
     26 C          -4.3660    0.8649   -0.4517 C.ar    1  UNL1       -0.0520
     27 C          -4.9735    2.0936   -0.5688 C.ar    1  UNL1       -0.0611
     28 C          -4.1831    3.2121   -0.4115 C.ar    1  UNL1       -0.0598
     29 C          -2.8585    3.0586   -0.1521 C.ar    1  UNL1       -0.0376
     30 C          -2.2033    1.8576   -0.0266 C.ar    1  UNL1        0.0503
     31 H          -0.0010    3.4966    2.2464 H       1  UNL1        0.0249
     32 H           0.1071    1.7603    2.5515 H       1  UNL1        0.0249
     33 H           1.5804    2.7343    2.0845 H       1  UNL1        0.0249
     34 H           1.1321    1.8368   -0.0183 H       1  UNL1        0.0522
     35 H          -0.1342    4.4556    0.4747 H       1  UNL1        0.0249
     36 H           1.2201    3.9800   -0.5228 H       1  UNL1        0.0249
     37 H          -0.3544    3.6656   -1.2109 H       1  UNL1        0.0249
     38 H          -0.0833   -1.9547    0.3608 H       1  UNL1        0.0636
     39 H           1.7197    0.0668    1.1680 H       1  UNL1        0.0598
     40 H           1.7505   -2.9213    1.2815 H       1  UNL1        0.0638
     41 H           2.4177   -2.0845    3.1713 H       1  UNL1        0.2102
     42 H           3.9702   -2.9748    0.3431 H       1  UNL1        0.0318
     43 H           2.6562   -2.5428   -0.8303 H       1  UNL1        0.0318
     44 H           3.3021   -0.1126   -0.6942 H       1  UNL1        0.0599
     45 H           4.2156   -1.4813   -2.1218 H       1  UNL1        0.2098
     46 H           5.4687   -1.0619    1.2318 H       1  UNL1        0.0403
     47 H           4.0494   -0.0288    1.6896 H       1  UNL1        0.0403
     48 H           5.2090    2.4971   -0.8598 H       1  UNL1        0.2951
     49 H          -3.2163   -1.8797    1.9345 H       1  UNL1        0.0624
     50 H          -4.1239   -4.2077    1.6875 H       1  UNL1        0.0646
     51 H          -3.2479   -4.1207   -2.4839 H       1  UNL1        0.0646
     52 H          -2.3347   -1.7833   -2.2456 H       1  UNL1        0.0624
     53 H          -4.9763   -0.0163   -0.5726 H       1  UNL1        0.0624
     54 H          -6.0315    2.1310   -0.7765 H       1  UNL1        0.0618
     55 H          -4.6808    4.1586   -0.5071 H       1  UNL1        0.0618
     56 H          -2.3317    3.9761   -0.0360 H       1  UNL1        0.0638
@<TRIPOS>BOND
     1     1     2    1
     2     2     3    1
     3     2     4    1
     4     4     5   ar
     5     5     6    1
     6     6     7    2
     7     7     8    1
     8     8     9    1
     9     8    10    1
    10    10    11    1
    11    11    12    1
    12    11    13    1
    13    13    14    1
    14    14    15    1
    15    14    16    2
    16     5    17   ar
    17    17    18    1
    18    18    19   ar
    19    19    20   ar
    20    20    21   ar
    21    21    22    1
    22    21    23   ar
    23    23    24   ar
    24    17    25   ar
    25    25    26   ar
    26    26    27   ar
    27    27    28   ar
    28    28    29   ar
    29    29    30   ar
    30    30     4   ar
    31    24    18   ar
    32    30    25   ar
    33     1    31    1
    34     1    32    1
    35     1    33    1
    36     2    34    1
    37     3    35    1
    38     3    36    1
    39     3    37    1
    40     6    38    1
    41     7    39    1
    42     8    40    1
    43     9    41    1
    44    10    42    1
    45    10    43    1
    46    11    44    1
    47    12    45    1
    48    13    46    1
    49    13    47    1
    50    15    48    1
    51    19    49    1
    52    20    50    1
    53    23    51    1
    54    24    52    1
    55    26    53    1
    56    27    54    1
    57    28    55    1
    58    29    56    1
