
     RDKit          3D

 71 73  0  0  0  0  0  0  0  0999 V2000
   -5.5698    1.2188   -1.2009 C   0  0  1  0  0  0  0  0  0  0  0  0
   -6.9276    1.4924   -1.4237 O   0  0  0  0  0  0  0  0  0  0  0  0
   -5.0133    2.4008   -0.7384 O   0  0  0  0  0  0  0  0  0  0  0  0
   -4.9601    2.4771    0.6351 C   0  0  2  0  0  0  0  0  0  0  0  0
   -4.4315    3.8823    0.9517 C   0  0  0  0  0  0  0  0  0  0  0  0
   -3.1687    3.9704    0.3565 O   0  0  0  0  0  0  0  0  0  0  0  0
   -3.9049    1.5242    1.2089 C   0  0  1  0  0  0  0  0  0  0  0  0
   -4.2492    1.1544    2.5072 O   0  0  0  0  0  0  0  0  0  0  0  0
   -3.9476    0.2725    0.3579 C   0  0  2  0  0  0  0  0  0  0  0  0
   -3.0267    0.3810   -0.6551 O   0  0  0  0  0  0  0  0  0  0  0  0
   -2.0564   -0.6429   -0.6419 C   0  0  1  0  0  0  0  0  0  0  0  0
   -2.1315   -1.2713   -1.8616 O   0  0  0  0  0  0  0  0  0  0  0  0
   -1.0130   -1.9613   -2.2517 C   0  0  2  0  0  0  0  0  0  0  0  0
   -1.3299   -3.2298   -3.0102 C   0  0  0  0  0  0  0  0  0  0  0  0
   -0.1248   -3.8430   -3.3531 O   0  0  0  0  0  0  0  0  0  0  0  0
   -0.2021   -2.2833   -1.0142 C   0  0  1  0  0  0  0  0  0  0  0  0
    0.7408   -3.2339   -1.3804 O   0  0  0  0  0  0  0  0  0  0  0  0
    0.4108   -0.9819   -0.5407 C   0  0  2  0  0  0  0  0  0  0  0  0
    1.1402   -1.1506    0.6227 O   0  0  0  0  0  0  0  0  0  0  0  0
    2.5000   -0.7972    0.4593 C   0  0  1  0  0  0  0  0  0  0  0  0
    2.7324    0.2300    1.3275 O   0  0  0  0  0  0  0  0  0  0  0  0
    4.0139    0.3964    1.7749 C   0  0  2  0  0  0  0  0  0  0  0  0
    4.8789    1.1993    0.8252 C   0  0  0  0  0  0  0  0  0  0  0  0
    4.3557    2.4757    0.6278 O   0  0  0  0  0  0  0  0  0  0  0  0
    5.3107    3.3847   -0.4297 P   0  0  0  0  0  0  0  0  0  0  0  0
    6.9596    3.1490   -0.1291 O   0  0  0  0  0  0  0  0  0  0  0  0
    5.0159    3.0136   -2.0495 O   0  0  0  0  0  0  0  0  0  0  0  0
    5.0507    4.8613   -0.2414 O   0  0  0  0  0  0  0  0  0  0  0  0
    4.7246   -0.8401    2.2108 C   0  0  1  0  0  0  0  0  0  0  0  0
    5.1625   -0.7940    3.5318 O   0  0  0  0  0  0  0  0  0  0  0  0
    3.8752   -2.0726    2.0465 C   0  0  2  0  0  0  0  0  0  0  0  0
    4.7376   -3.1621    2.2106 O   0  0  0  0  0  0  0  0  0  0  0  0
    3.3358   -2.0177    0.6299 C   0  0  2  0  0  0  0  0  0  0  0  0
    4.4261   -1.9592   -0.2421 O   0  0  0  0  0  0  0  0  0  0  0  0
   -0.7249    0.0069   -0.3664 C   0  0  2  0  0  0  0  0  0  0  0  0
   -0.6964    0.4281    0.9551 O   0  0  0  0  0  0  0  0  0  0  0  0
   -5.3729    0.1624   -0.1594 C   0  0  2  0  0  0  0  0  0  0  0  0
   -5.6506   -1.1167   -0.6279 O   0  0  0  0  0  0  0  0  0  0  0  0
   -5.0581    0.8836   -2.1260 H   0  0  0  0  0  0  0  0  0  0  0  0
   -7.3250    0.9121   -2.1223 H   0  0  0  0  0  0  0  0  0  0  0  0
   -5.9137    2.3727    1.1584 H   0  0  0  0  0  0  0  0  0  0  0  0
   -4.3956    4.0253    2.0351 H   0  0  0  0  0  0  0  0  0  0  0  0
   -5.1353    4.6129    0.5118 H   0  0  0  0  0  0  0  0  0  0  0  0
   -3.1673    3.4101   -0.4487 H   0  0  0  0  0  0  0  0  0  0  0  0
   -2.9294    2.0071    1.2433 H   0  0  0  0  0  0  0  0  0  0  0  0
   -4.0215    0.2095    2.6422 H   0  0  0  0  0  0  0  0  0  0  0  0
   -3.7460   -0.6202    1.0062 H   0  0  0  0  0  0  0  0  0  0  0  0
   -2.3119   -1.2915    0.2263 H   0  0  0  0  0  0  0  0  0  0  0  0
   -0.3975   -1.2677   -2.8801 H   0  0  0  0  0  0  0  0  0  0  0  0
   -1.9688   -3.0210   -3.8709 H   0  0  0  0  0  0  0  0  0  0  0  0
   -1.8451   -3.9076   -2.2731 H   0  0  0  0  0  0  0  0  0  0  0  0
    0.1336   -3.6791   -4.2996 H   0  0  0  0  0  0  0  0  0  0  0  0
   -0.8182   -2.7507   -0.2202 H   0  0  0  0  0  0  0  0  0  0  0  0
    1.4752   -2.8828   -1.9115 H   0  0  0  0  0  0  0  0  0  0  0  0
    1.0875   -0.6047   -1.3251 H   0  0  0  0  0  0  0  0  0  0  0  0
    2.5994   -0.4699   -0.6049 H   0  0  0  0  0  0  0  0  0  0  0  0
    3.9308    1.0452    2.6955 H   0  0  0  0  0  0  0  0  0  0  0  0
    5.8687    1.3528    1.3024 H   0  0  0  0  0  0  0  0  0  0  0  0
    4.9969    0.7298   -0.1647 H   0  0  0  0  0  0  0  0  0  0  0  0
    7.3552    2.5007   -0.7548 H   0  0  0  0  0  0  0  0  0  0  0  0
    5.7476    3.4352   -2.5645 H   0  0  0  0  0  0  0  0  0  0  0  0
    5.6479   -0.9992    1.5823 H   0  0  0  0  0  0  0  0  0  0  0  0
    4.4093   -0.7363    4.1701 H   0  0  0  0  0  0  0  0  0  0  0  0
    3.0459   -2.0720    2.7825 H   0  0  0  0  0  0  0  0  0  0  0  0
    4.3399   -4.0259    2.0111 H   0  0  0  0  0  0  0  0  0  0  0  0
    2.7804   -2.9654    0.4836 H   0  0  0  0  0  0  0  0  0  0  0  0
    5.0980   -2.6298   -0.0062 H   0  0  0  0  0  0  0  0  0  0  0  0
   -0.5760    0.9112   -0.9952 H   0  0  0  0  0  0  0  0  0  0  0  0
   -1.1378   -0.2372    1.5525 H   0  0  0  0  0  0  0  0  0  0  0  0
   -6.0400    0.3886    0.6989 H   0  0  0  0  0  0  0  0  0  0  0  0
   -6.5983   -1.3593   -0.4561 H   0  0  0  0  0  0  0  0  0  0  0  0
  1  2  1  0
  1  3  1  0
  3  4  1  0
  4  5  1  0
  5  6  1  0
  4  7  1  0
  7  8  1  0
  7  9  1  0
  9 10  1  0
 10 11  1  0
 11 12  1  0
 12 13  1  0
 13 14  1  0
 14 15  1  0
 13 16  1  0
 16 17  1  0
 16 18  1  0
 18 19  1  0
 19 20  1  0
 20 21  1  0
 21 22  1  0
 22 23  1  0
 23 24  1  0
 24 25  1  0
 25 26  1  0
 25 27  1  0
 25 28  2  0
 22 29  1  0
 29 30  1  0
 29 31  1  0
 31 32  1  0
 31 33  1  0
 33 34  1  0
 18 35  1  0
 35 36  1  0
  9 37  1  0
 37 38  1  0
 37  1  1  0
 35 11  1  0
 33 20  1  0
  1 39  1  6
  2 40  1  0
  4 41  1  1
  5 42  1  0
  5 43  1  0
  6 44  1  0
  7 45  1  1
  8 46  1  0
  9 47  1  1
 11 48  1  1
 13 49  1  6
 14 50  1  0
 14 51  1  0
 15 52  1  0
 16 53  1  1
 17 54  1  0
 18 55  1  6
 20 56  1  6
 22 57  1  1
 23 58  1  0
 23 59  1  0
 26 60  1  0
 27 61  1  0
 29 62  1  6
 30 63  1  0
 31 64  1  1
 32 65  1  0
 33 66  1  6
 34 67  1  0
 35 68  1  6
 36 69  1  0
 37 70  1  1
 38 71  1  0
M  END
$$$$
