@<TRIPOS>MOLECULE
*****
 71 73 0 0 0
SMALL
GASTEIGER

@<TRIPOS>ATOM
      1 C          -5.5698    1.2188   -1.2009 C.3     1  UNL1        0.1854
      2 O          -6.9276    1.4924   -1.4237 O.3     1  UNL1       -0.3649
      3 O          -5.0133    2.4008   -0.7384 O.3     1  UNL1       -0.3407
      4 C          -4.9601    2.4771    0.6351 C.3     1  UNL1        0.1130
      5 C          -4.4315    3.8823    0.9517 C.3     1  UNL1        0.0730
      6 O          -3.1687    3.9704    0.3565 O.3     1  UNL1       -0.3924
      7 C          -3.9049    1.5242    1.2089 C.3     1  UNL1        0.1123
      8 O          -4.2492    1.1544    2.5072 O.3     1  UNL1       -0.3865
      9 C          -3.9476    0.2725    0.3579 C.3     1  UNL1        0.1206
     10 O          -3.0267    0.3810   -0.6551 O.3     1  UNL1       -0.3401
     11 C          -2.0564   -0.6429   -0.6419 C.3     1  UNL1        0.1884
     12 O          -2.1315   -1.2713   -1.8616 O.3     1  UNL1       -0.3405
     13 C          -1.0130   -1.9613   -2.2517 C.3     1  UNL1        0.1130
     14 C          -1.3299   -3.2298   -3.0102 C.3     1  UNL1        0.0730
     15 O          -0.1248   -3.8430   -3.3531 O.3     1  UNL1       -0.3924
     16 C          -0.2021   -2.2833   -1.0142 C.3     1  UNL1        0.1123
     17 O           0.7408   -3.2339   -1.3804 O.3     1  UNL1       -0.3865
     18 C           0.4108   -0.9819   -0.5407 C.3     1  UNL1        0.1206
     19 O           1.1402   -1.1506    0.6227 O.3     1  UNL1       -0.3401
     20 C           2.5000   -0.7972    0.4593 C.3     1  UNL1        0.1884
     21 O           2.7324    0.2300    1.3275 O.3     1  UNL1       -0.3405
     22 C           4.0139    0.3964    1.7749 C.3     1  UNL1        0.1138
     23 C           4.8789    1.1993    0.8252 C.3     1  UNL1        0.0879
     24 O           4.3557    2.4757    0.6278 O.3     1  UNL1       -0.2841
     25 P           5.3107    3.3847   -0.4297 P.3     1  UNL1        0.4724
     26 O           6.9596    3.1490   -0.1291 O.3     1  UNL1       -0.3026
     27 O           5.0159    3.0136   -2.0495 O.3     1  UNL1       -0.3026
     28 O           5.0507    4.8613   -0.2414 O.2     1  UNL1       -0.2275
     29 C           4.7246   -0.8401    2.2108 C.3     1  UNL1        0.1119
     30 O           5.1625   -0.7940    3.5318 O.3     1  UNL1       -0.3865
     31 C           3.8752   -2.0726    2.0465 C.3     1  UNL1        0.1141
     32 O           4.7376   -3.1621    2.2106 O.3     1  UNL1       -0.3864
     33 C           3.3358   -2.0177    0.6299 C.3     1  UNL1        0.1341
     34 O           4.4261   -1.9592   -0.2421 O.3     1  UNL1       -0.3841
     35 C          -0.7249    0.0069   -0.3664 C.3     1  UNL1        0.1345
     36 O          -0.6964    0.4281    0.9551 O.3     1  UNL1       -0.3841
     37 C          -5.3729    0.1624   -0.1594 C.3     1  UNL1        0.1343
     38 O          -5.6506   -1.1167   -0.6279 O.3     1  UNL1       -0.3841
     39 H          -5.0581    0.8836   -2.1260 H       1  UNL1        0.0935
     40 H          -7.3250    0.9121   -2.1223 H       1  UNL1        0.2126
     41 H          -5.9137    2.3727    1.1584 H       1  UNL1        0.0647
     42 H          -4.3956    4.0253    2.0351 H       1  UNL1        0.0584
     43 H          -5.1353    4.6129    0.5118 H       1  UNL1        0.0584
     44 H          -3.1673    3.4101   -0.4487 H       1  UNL1        0.2095
     45 H          -2.9294    2.0071    1.2433 H       1  UNL1        0.0647
     46 H          -4.0215    0.2095    2.6422 H       1  UNL1        0.2100
     47 H          -3.7460   -0.6202    1.0062 H       1  UNL1        0.0651
     48 H          -2.3119   -1.2915    0.2263 H       1  UNL1        0.0938
     49 H          -0.3975   -1.2677   -2.8801 H       1  UNL1        0.0647
     50 H          -1.9688   -3.0210   -3.8709 H       1  UNL1        0.0584
     51 H          -1.8451   -3.9076   -2.2731 H       1  UNL1        0.0584
     52 H           0.1336   -3.6791   -4.2996 H       1  UNL1        0.2095
     53 H          -0.8182   -2.7507   -0.2202 H       1  UNL1        0.0647
     54 H           1.4752   -2.8828   -1.9115 H       1  UNL1        0.2100
     55 H           1.0875   -0.6047   -1.3251 H       1  UNL1        0.0651
     56 H           2.5994   -0.4699   -0.6049 H       1  UNL1        0.0938
     57 H           3.9308    1.0452    2.6955 H       1  UNL1        0.0647
     58 H           5.8687    1.3528    1.3024 H       1  UNL1        0.0592
     59 H           4.9969    0.7298   -0.1647 H       1  UNL1        0.0592
     60 H           7.3552    2.5007   -0.7548 H       1  UNL1        0.2220
     61 H           5.7476    3.4352   -2.5645 H       1  UNL1        0.2220
     62 H           5.6479   -0.9992    1.5823 H       1  UNL1        0.0647
     63 H           4.4093   -0.7363    4.1701 H       1  UNL1        0.2100
     64 H           3.0459   -2.0720    2.7825 H       1  UNL1        0.0648
     65 H           4.3399   -4.0259    2.0111 H       1  UNL1        0.2100
     66 H           2.7804   -2.9654    0.4836 H       1  UNL1        0.0671
     67 H           5.0980   -2.6298   -0.0062 H       1  UNL1        0.2101
     68 H          -0.5760    0.9112   -0.9952 H       1  UNL1        0.0671
     69 H          -1.1378   -0.2372    1.5525 H       1  UNL1        0.2101
     70 H          -6.0400    0.3886    0.6989 H       1  UNL1        0.0671
     71 H          -6.5983   -1.3593   -0.4561 H       1  UNL1        0.2101
@<TRIPOS>BOND
     1     1     2    1
     2     1     3    1
     3     3     4    1
     4     4     5    1
     5     5     6    1
     6     4     7    1
     7     7     8    1
     8     7     9    1
     9     9    10    1
    10    10    11    1
    11    11    12    1
    12    12    13    1
    13    13    14    1
    14    14    15    1
    15    13    16    1
    16    16    17    1
    17    16    18    1
    18    18    19    1
    19    19    20    1
    20    20    21    1
    21    21    22    1
    22    22    23    1
    23    23    24    1
    24    24    25    1
    25    25    26    1
    26    25    27    1
    27    25    28    2
    28    22    29    1
    29    29    30    1
    30    29    31    1
    31    31    32    1
    32    31    33    1
    33    33    34    1
    34    18    35    1
    35    35    36    1
    36     9    37    1
    37    37    38    1
    38    37     1    1
    39    35    11    1
    40    33    20    1
    41     1    39    1
    42     2    40    1
    43     4    41    1
    44     5    42    1
    45     5    43    1
    46     6    44    1
    47     7    45    1
    48     8    46    1
    49     9    47    1
    50    11    48    1
    51    13    49    1
    52    14    50    1
    53    14    51    1
    54    15    52    1
    55    16    53    1
    56    17    54    1
    57    18    55    1
    58    20    56    1
    59    22    57    1
    60    23    58    1
    61    23    59    1
    62    26    60    1
    63    27    61    1
    64    29    62    1
    65    30    63    1
    66    31    64    1
    67    32    65    1
    68    33    66    1
    69    34    67    1
    70    35    68    1
    71    36    69    1
    72    37    70    1
    73    38    71    1
