@<TRIPOS>MOLECULE
*****
 43 46 0 0 0
SMALL
GASTEIGER

@<TRIPOS>ATOM
      1 C           0.0477    0.5229   -0.9526 C.3     1  UNL1        0.0949
      2 C           0.3798    1.9355   -0.8707 C.1     1  UNL1        0.0728
      3 N           0.6598    3.0521   -0.7949 N.1     1  UNL1       -0.1959
      4 C          -1.2276    0.1900   -0.3194 C.ar    1  UNL1        0.0093
      5 C          -1.5360   -1.0317    0.2460 C.ar    1  UNL1        0.1097
      6 N          -2.7781   -1.0628    0.7569 N.ar    1  UNL1       -0.3379
      7 C          -3.4424   -2.1668    1.4229 C.3     1  UNL1        0.0126
      8 C          -3.3228    0.1332    0.5439 C.ar    1  UNL1        0.0697
      9 C          -4.5831    0.6230    0.8738 C.ar    1  UNL1        0.0832
     10 CL         -5.7709   -0.3619    1.7074 Cl      1  UNL1       -0.0799
     11 C          -4.9482    1.9143    0.5541 C.ar    1  UNL1        0.0613
     12 CL         -6.5222    2.5697    0.9504 Cl      1  UNL1       -0.0820
     13 C          -4.0393    2.7148   -0.1006 C.ar    1  UNL1       -0.0413
     14 C          -2.7986    2.2004   -0.4138 C.ar    1  UNL1       -0.0508
     15 C          -2.3843    0.9263   -0.1202 C.ar    1  UNL1        0.0066
     16 C          -0.4979   -2.0669    0.2025 C.2     1  UNL1        0.2613
     17 O          -0.6479   -3.2151    0.6776 O.2     1  UNL1       -0.2686
     18 N           0.7297   -1.7111   -0.4199 N.am    1  UNL1       -0.3029
     19 C           1.1964   -0.3385   -0.4125 C.3     1  UNL1        0.0569
     20 C           2.3035   -0.1653   -1.4218 C.3     1  UNL1       -0.0172
     21 C           3.6778   -0.3754   -0.9014 C.3     1  UNL1        0.0006
     22 N           3.8314    0.2803    0.3817 N.3     1  UNL1       -0.3052
     23 C           5.2121    0.3128    0.7735 C.3     1  UNL1       -0.0128
     24 C           2.9696   -0.4095    1.2960 C.3     1  UNL1        0.0006
     25 C           1.5610    0.0332    0.9839 C.3     1  UNL1       -0.0172
     26 H          -0.0204    0.2823   -2.0348 H       1  UNL1        0.0525
     27 H          -4.3515   -2.4143    0.8018 H       1  UNL1        0.0456
     28 H          -3.7770   -1.7902    2.4185 H       1  UNL1        0.0456
     29 H          -2.8411   -3.0726    1.4732 H       1  UNL1        0.0456
     30 H          -4.2930    3.7423   -0.3698 H       1  UNL1        0.0633
     31 H          -2.1304    2.8544   -0.9189 H       1  UNL1        0.0625
     32 H           1.3186   -2.4375   -0.8953 H       1  UNL1        0.1497
     33 H           2.2665    0.8423   -1.9092 H       1  UNL1        0.0299
     34 H           2.1165   -0.9400   -2.2217 H       1  UNL1        0.0299
     35 H           3.9371   -1.4445   -0.7931 H       1  UNL1        0.0427
     36 H           4.3919    0.1139   -1.6003 H       1  UNL1        0.0427
     37 H           5.6565   -0.6988    0.6617 H       1  UNL1        0.0391
     38 H           5.7352    0.9721    0.0387 H       1  UNL1        0.0391
     39 H           5.3070    0.7001    1.8057 H       1  UNL1        0.0391
     40 H           3.0373   -1.5068    1.0921 H       1  UNL1        0.0427
     41 H           3.2348   -0.2436    2.3548 H       1  UNL1        0.0427
     42 H           0.9027   -0.5668    1.6766 H       1  UNL1        0.0299
     43 H           1.4398    1.1040    1.2190 H       1  UNL1        0.0299
@<TRIPOS>BOND
     1     1     2    1
     2     2     3    3
     3     1     4    1
     4     4     5   ar
     5     5     6   ar
     6     6     7    1
     7     6     8   ar
     8     8     9   ar
     9     9    10    1
    10     9    11   ar
    11    11    12    1
    12    11    13   ar
    13    13    14   ar
    14    14    15   ar
    15     5    16    1
    16    16    17    2
    17    16    18   am
    18    18    19    1
    19    19    20    1
    20    20    21    1
    21    21    22    1
    22    22    23    1
    23    22    24    1
    24    24    25    1
    25    19     1    1
    26    25    19    1
    27    15     4   ar
    28    15     8   ar
    29     1    26    1
    30     7    27    1
    31     7    28    1
    32     7    29    1
    33    13    30    1
    34    14    31    1
    35    18    32    1
    36    20    33    1
    37    20    34    1
    38    21    35    1
    39    21    36    1
    40    23    37    1
    41    23    38    1
    42    23    39    1
    43    24    40    1
    44    24    41    1
    45    25    42    1
    46    25    43    1
