@<TRIPOS>MOLECULE
*****
 24 24 0 0 0
SMALL
GASTEIGER

@<TRIPOS>ATOM
      1 C          -1.1408   -1.1793    0.5339 C.3     1  UNL1        0.1021
      2 O          -1.6506   -2.3497   -0.0395 O.3     1  UNL1       -0.3851
      3 C           0.3294   -1.2625    0.4566 C.2     1  UNL1       -0.0494
      4 C           1.0701   -0.1581    0.3646 C.2     1  UNL1       -0.0152
      5 C           2.5688   -0.1880    0.2833 C.3     1  UNL1        0.0678
      6 O           3.0026    0.4112   -0.9193 O.3     1  UNL1       -0.3906
      7 C           0.3113    1.1234    0.3471 C.3     1  UNL1        0.1068
      8 O           1.0720    2.2472    0.2040 O.3     1  UNL1       -0.3848
      9 C          -0.7298    0.9515   -0.7513 C.3     1  UNL1        0.1134
     10 O          -1.3581    2.1364   -1.0855 O.3     1  UNL1       -0.3862
     11 C          -1.7506   -0.0165   -0.1524 C.3     1  UNL1        0.1131
     12 O          -2.6736   -0.4040   -1.1214 O.3     1  UNL1       -0.3862
     13 H          -1.4204   -1.2039    1.6171 H       1  UNL1        0.0664
     14 H          -0.9476   -3.0183   -0.2345 H       1  UNL1        0.2103
     15 H           0.8469   -2.2226    0.4725 H       1  UNL1        0.0599
     16 H           2.8774   -1.2526    0.2893 H       1  UNL1        0.0605
     17 H           3.0289    0.4029    1.0890 H       1  UNL1        0.0605
     18 H           2.8252   -0.1947   -1.6885 H       1  UNL1        0.2098
     19 H          -0.2103    1.1606    1.3471 H       1  UNL1        0.0668
     20 H           1.3243    2.5735    1.1047 H       1  UNL1        0.2103
     21 H          -0.3195    0.4657   -1.6417 H       1  UNL1        0.0649
     22 H          -1.6399    2.6262   -0.2733 H       1  UNL1        0.2100
     23 H          -2.3216    0.5980    0.5964 H       1  UNL1        0.0649
     24 H          -3.0939   -1.2463   -0.7984 H       1  UNL1        0.2100
@<TRIPOS>BOND
     1     1     2    1
     2     1     3    1
     3     3     4    2
     4     4     5    1
     5     5     6    1
     6     4     7    1
     7     7     8    1
     8     7     9    1
     9     9    10    1
    10     9    11    1
    11    11    12    1
    12    11     1    1
    13     1    13    1
    14     2    14    1
    15     3    15    1
    16     5    16    1
    17     5    17    1
    18     6    18    1
    19     7    19    1
    20     8    20    1
    21     9    21    1
    22    10    22    1
    23    11    23    1
    24    12    24    1
