
     RDKit          3D

 68 72  0  0  0  0  0  0  0  0999 V2000
    5.1269   -4.0638   -1.5046 C   0  0  0  0  0  0  0  0  0  0  0  0
    4.5592   -2.7226   -1.1522 C   0  0  2  0  0  0  0  0  0  0  0  0
    5.1906   -2.1935    0.1467 C   0  0  0  0  0  0  0  0  0  0  0  0
    4.7282   -0.8463    0.2561 N   0  0  0  0  0  0  0  0  0  0  0  0
    5.5083    0.3465    0.1933 C   0  0  0  0  0  0  0  0  0  0  0  0
    4.9887    1.4841    0.2728 O   0  0  0  0  0  0  0  0  0  0  0  0
    6.9097    0.2457    0.0267 N   0  0  0  0  0  0  0  0  0  0  0  0
    7.8036    1.3374   -0.0508 C   0  0  0  0  0  0  0  0  0  0  0  0
    7.5201    2.6526    0.1687 C   0  0  0  0  0  0  0  0  0  0  0  0
    8.4689    3.6775    0.0209 C   0  0  0  0  0  0  0  0  0  0  0  0
    9.7415    3.3867   -0.3558 C   0  0  0  0  0  0  0  0  0  0  0  0
   10.0753    2.0824   -0.5884 C   0  0  0  0  0  0  0  0  0  0  0  0
    9.1245    1.0767   -0.4381 C   0  0  0  0  0  0  0  0  0  0  0  0
    3.3069   -0.7038    0.3917 C   0  0  0  0  0  0  0  0  0  0  0  0
    2.6969    0.2834    1.1030 C   0  0  0  0  0  0  0  0  0  0  0  0
    1.3052    0.3376    1.1615 C   0  0  0  0  0  0  0  0  0  0  0  0
    0.5331   -0.5991    0.5066 C   0  0  0  0  0  0  0  0  0  0  0  0
   -0.9363   -0.5456    0.5828 C   0  0  0  0  0  0  0  0  0  0  0  0
   -1.7010   -1.5746    0.1044 C   0  0  0  0  0  0  0  0  0  0  0  0
   -3.0908   -1.5953    0.1713 C   0  0  0  0  0  0  0  0  0  0  0  0
   -3.7814   -0.5186    0.7535 C   0  0  0  0  0  0  0  0  0  0  0  0
   -5.2355   -0.6338    0.7848 C   0  0  1  0  0  0  0  0  0  0  0  0
   -6.0207    0.5112    1.2786 C   0  0  0  0  0  0  0  0  0  0  0  0
   -6.5960    1.3894    0.2030 C   0  0  0  0  0  0  0  0  0  0  0  0
   -7.6450    0.6436   -0.5642 C   0  0  2  0  0  0  0  0  0  0  0  0
   -8.9982    0.8415    0.0166 C   0  0  0  0  0  0  0  0  0  0  0  0
   -9.4290    2.2480   -0.0057 C   0  0  0  0  0  0  0  0  0  0  0  0
   -8.6919    3.1090   -0.5331 O   0  0  0  0  0  0  0  0  0  0  0  0
  -10.6353    2.6165    0.5506 O   0  0  0  0  0  0  0  0  0  0  0  0
   -7.2335   -0.8165   -0.6837 C   0  0  0  0  0  0  0  0  0  0  0  0
   -5.6987   -0.8927   -0.6707 C   0  0  0  0  0  0  0  0  0  0  0  0
   -3.0063    0.4971    1.2284 C   0  0  0  0  0  0  0  0  0  0  0  0
   -1.6127    0.5198    1.1605 C   0  0  0  0  0  0  0  0  0  0  0  0
    1.1619   -1.5956   -0.2055 C   0  0  0  0  0  0  0  0  0  0  0  0
    2.5648   -1.6725   -0.2802 C   0  0  0  0  0  0  0  0  0  0  0  0
    3.1694   -2.6775   -1.0018 O   0  0  0  0  0  0  0  0  0  0  0  0
    4.3823   -4.8374   -1.2995 H   0  0  0  0  0  0  0  0  0  0  0  0
    6.0698   -4.1744   -0.8927 H   0  0  0  0  0  0  0  0  0  0  0  0
    5.4870   -4.0735   -2.5650 H   0  0  0  0  0  0  0  0  0  0  0  0
    4.8229   -2.0128   -1.9816 H   0  0  0  0  0  0  0  0  0  0  0  0
    4.7857   -2.7892    0.9928 H   0  0  0  0  0  0  0  0  0  0  0  0
    6.2724   -2.3472    0.1359 H   0  0  0  0  0  0  0  0  0  0  0  0
    7.3474   -0.7447   -0.0334 H   0  0  0  0  0  0  0  0  0  0  0  0
    6.5600    2.9680    0.4730 H   0  0  0  0  0  0  0  0  0  0  0  0
    8.1915    4.7003    0.2050 H   0  0  0  0  0  0  0  0  0  0  0  0
   10.4770    4.1862   -0.4774 H   0  0  0  0  0  0  0  0  0  0  0  0
   11.0945    1.8679   -0.8876 H   0  0  0  0  0  0  0  0  0  0  0  0
    9.4158    0.0697   -0.6319 H   0  0  0  0  0  0  0  0  0  0  0  0
    3.3335    0.9930    1.6022 H   0  0  0  0  0  0  0  0  0  0  0  0
    0.8901    1.1372    1.7261 H   0  0  0  0  0  0  0  0  0  0  0  0
   -1.2747   -2.4813   -0.3780 H   0  0  0  0  0  0  0  0  0  0  0  0
   -3.6321   -2.4311   -0.2353 H   0  0  0  0  0  0  0  0  0  0  0  0
   -5.5276   -1.5923    1.3170 H   0  0  0  0  0  0  0  0  0  0  0  0
   -5.5095    1.1127    2.0677 H   0  0  0  0  0  0  0  0  0  0  0  0
   -6.9213    0.0926    1.8226 H   0  0  0  0  0  0  0  0  0  0  0  0
   -6.9887    2.2928    0.7304 H   0  0  0  0  0  0  0  0  0  0  0  0
   -5.7917    1.6934   -0.5258 H   0  0  0  0  0  0  0  0  0  0  0  0
   -7.6542    1.0156   -1.6439 H   0  0  0  0  0  0  0  0  0  0  0  0
   -8.9575    0.4856    1.0839 H   0  0  0  0  0  0  0  0  0  0  0  0
   -9.7764    0.1782   -0.4551 H   0  0  0  0  0  0  0  0  0  0  0  0
  -11.2282    3.3304    0.1139 H   0  0  0  0  0  0  0  0  0  0  0  0
   -7.6880   -1.3562    0.1470 H   0  0  0  0  0  0  0  0  0  0  0  0
   -7.5747   -1.2164   -1.6424 H   0  0  0  0  0  0  0  0  0  0  0  0
   -5.4531   -1.9052   -0.9932 H   0  0  0  0  0  0  0  0  0  0  0  0
   -5.3436   -0.1038   -1.3498 H   0  0  0  0  0  0  0  0  0  0  0  0
   -3.5326    1.3345    1.7028 H   0  0  0  0  0  0  0  0  0  0  0  0
   -1.0720    1.3369    1.5505 H   0  0  0  0  0  0  0  0  0  0  0  0
    0.6246   -2.3645   -0.7307 H   0  0  0  0  0  0  0  0  0  0  0  0
  1  2  1  0
  2  3  1  0
  3  4  1  0
  4  5  1  0
  5  6  2  0
  5  7  1  0
  7  8  1  0
  8  9  2  0
  9 10  1  0
 10 11  2  0
 11 12  1  0
 12 13  2  0
  4 14  1  0
 14 15  2  0
 15 16  1  0
 16 17  2  0
 17 18  1  0
 18 19  2  0
 19 20  1  0
 20 21  2  0
 21 22  1  0
 22 23  1  0
 23 24  1  0
 24 25  1  0
 25 26  1  0
 26 27  1  0
 27 28  2  0
 27 29  1  0
 25 30  1  0
 30 31  1  0
 21 32  1  0
 32 33  2  0
 17 34  1  0
 34 35  2  0
 35 36  1  0
 36  2  1  0
 13  8  1  0
 35 14  1  0
 33 18  1  0
 31 22  1  0
  1 37  1  0
  1 38  1  0
  1 39  1  0
  2 40  1  6
  3 41  1  0
  3 42  1  0
  7 43  1  0
  9 44  1  0
 10 45  1  0
 11 46  1  0
 12 47  1  0
 13 48  1  0
 15 49  1  0
 16 50  1  0
 19 51  1  0
 20 52  1  0
 22 53  1  1
 23 54  1  0
 23 55  1  0
 24 56  1  0
 24 57  1  0
 25 58  1  6
 26 59  1  0
 26 60  1  0
 29 61  1  0
 30 62  1  0
 30 63  1  0
 31 64  1  0
 31 65  1  0
 32 66  1  0
 33 67  1  0
 34 68  1  0
M  END
$$$$
