@<TRIPOS>MOLECULE
*****
 68 72 0 0 0
SMALL
GASTEIGER

@<TRIPOS>ATOM
      1 C           5.1269   -4.0638   -1.5046 C.3     1  UNL1       -0.0263
      2 C           4.5592   -2.7226   -1.1522 C.3     1  UNL1        0.1135
      3 C           5.1906   -2.1935    0.1467 C.3     1  UNL1        0.0581
      4 N           4.7282   -0.8463    0.2561 N.am    1  UNL1       -0.2483
      5 C           5.5083    0.3465    0.1933 C.2     1  UNL1        0.3109
      6 O           4.9887    1.4841    0.2728 O.2     1  UNL1       -0.2519
      7 N           6.9097    0.2457    0.0267 N.am    1  UNL1       -0.2690
      8 C           7.8036    1.3374   -0.0508 C.ar    1  UNL1        0.0348
      9 C           7.5201    2.6526    0.1687 C.ar    1  UNL1       -0.0404
     10 C           8.4689    3.6775    0.0209 C.ar    1  UNL1       -0.0600
     11 C           9.7415    3.3867   -0.3558 C.ar    1  UNL1       -0.0616
     12 C          10.0753    2.0824   -0.5884 C.ar    1  UNL1       -0.0600
     13 C           9.1245    1.0767   -0.4381 C.ar    1  UNL1       -0.0404
     14 C           3.3069   -0.7038    0.3917 C.ar    1  UNL1        0.0796
     15 C           2.6969    0.2834    1.1030 C.ar    1  UNL1       -0.0361
     16 C           1.3052    0.3376    1.1615 C.ar    1  UNL1       -0.0520
     17 C           0.5331   -0.5991    0.5066 C.ar    1  UNL1       -0.0143
     18 C          -0.9363   -0.5456    0.5828 C.ar    1  UNL1       -0.0178
     19 C          -1.7010   -1.5746    0.1044 C.ar    1  UNL1       -0.0538
     20 C          -3.0908   -1.5953    0.1713 C.ar    1  UNL1       -0.0577
     21 C          -3.7814   -0.5186    0.7535 C.ar    1  UNL1       -0.0442
     22 C          -5.2355   -0.6338    0.7848 C.3     1  UNL1       -0.0158
     23 C          -6.0207    0.5112    1.2786 C.3     1  UNL1       -0.0459
     24 C          -6.5960    1.3894    0.2030 C.3     1  UNL1       -0.0492
     25 C          -7.6450    0.6436   -0.5642 C.3     1  UNL1       -0.0310
     26 C          -8.9982    0.8415    0.0166 C.3     1  UNL1        0.0476
     27 C          -9.4290    2.2480   -0.0057 C.2     1  UNL1        0.3050
     28 O          -8.6919    3.1090   -0.5331 O.2     1  UNL1       -0.2510
     29 O         -10.6353    2.6165    0.5506 O.3     1  UNL1       -0.4806
     30 C          -7.2335   -0.8165   -0.6837 C.3     1  UNL1       -0.0492
     31 C          -5.6987   -0.8927   -0.6707 C.3     1  UNL1       -0.0459
     32 C          -3.0063    0.4971    1.2284 C.ar    1  UNL1       -0.0577
     33 C          -1.6127    0.5198    1.1605 C.ar    1  UNL1       -0.0538
     34 C           1.1619   -1.5956   -0.2055 C.ar    1  UNL1       -0.0104
     35 C           2.5648   -1.6725   -0.2802 C.ar    1  UNL1        0.1429
     36 O           3.1694   -2.6775   -1.0018 O.3     1  UNL1       -0.4856
     37 H           4.3823   -4.8374   -1.2995 H       1  UNL1        0.0266
     38 H           6.0698   -4.1744   -0.8927 H       1  UNL1        0.0266
     39 H           5.4870   -4.0735   -2.5650 H       1  UNL1        0.0266
     40 H           4.8229   -2.0128   -1.9816 H       1  UNL1        0.0746
     41 H           4.7857   -2.7892    0.9928 H       1  UNL1        0.0505
     42 H           6.2724   -2.3472    0.1359 H       1  UNL1        0.0505
     43 H           7.3474   -0.7447   -0.0334 H       1  UNL1        0.1564
     44 H           6.5600    2.9680    0.4730 H       1  UNL1        0.0636
     45 H           8.1915    4.7003    0.2050 H       1  UNL1        0.0618
     46 H          10.4770    4.1862   -0.4774 H       1  UNL1        0.0618
     47 H          11.0945    1.8679   -0.8876 H       1  UNL1        0.0618
     48 H           9.4158    0.0697   -0.6319 H       1  UNL1        0.0636
     49 H           3.3335    0.9930    1.6022 H       1  UNL1        0.0637
     50 H           0.8901    1.1372    1.7261 H       1  UNL1        0.0624
     51 H          -1.2747   -2.4813   -0.3780 H       1  UNL1        0.0624
     52 H          -3.6321   -2.4311   -0.2353 H       1  UNL1        0.0621
     53 H          -5.5276   -1.5923    1.3170 H       1  UNL1        0.0349
     54 H          -5.5095    1.1127    2.0677 H       1  UNL1        0.0271
     55 H          -6.9213    0.0926    1.8226 H       1  UNL1        0.0271
     56 H          -6.9887    2.2928    0.7304 H       1  UNL1        0.0268
     57 H          -5.7917    1.6934   -0.5258 H       1  UNL1        0.0268
     58 H          -7.6542    1.0156   -1.6439 H       1  UNL1        0.0306
     59 H          -8.9575    0.4856    1.0839 H       1  UNL1        0.0380
     60 H          -9.7764    0.1782   -0.4551 H       1  UNL1        0.0380
     61 H         -11.2282    3.3304    0.1139 H       1  UNL1        0.2951
     62 H          -7.6880   -1.3562    0.1470 H       1  UNL1        0.0268
     63 H          -7.5747   -1.2164   -1.6424 H       1  UNL1        0.0268
     64 H          -5.4531   -1.9052   -0.9932 H       1  UNL1        0.0271
     65 H          -5.3436   -0.1038   -1.3498 H       1  UNL1        0.0271
     66 H          -3.5326    1.3345    1.7028 H       1  UNL1        0.0621
     67 H          -1.0720    1.3369    1.5505 H       1  UNL1        0.0624
     68 H           0.6246   -2.3645   -0.7307 H       1  UNL1        0.0661
@<TRIPOS>BOND
     1     1     2    1
     2     2     3    1
     3     3     4    1
     4     4     5   am
     5     5     6    2
     6     5     7   am
     7     7     8    1
     8     8     9   ar
     9     9    10   ar
    10    10    11   ar
    11    11    12   ar
    12    12    13   ar
    13     4    14    1
    14    14    15   ar
    15    15    16   ar
    16    16    17   ar
    17    17    18    1
    18    18    19   ar
    19    19    20   ar
    20    20    21   ar
    21    21    22    1
    22    22    23    1
    23    23    24    1
    24    24    25    1
    25    25    26    1
    26    26    27    1
    27    27    28    2
    28    27    29    1
    29    25    30    1
    30    30    31    1
    31    21    32   ar
    32    32    33   ar
    33    17    34   ar
    34    34    35   ar
    35    35    36    1
    36    36     2    1
    37    13     8   ar
    38    35    14   ar
    39    33    18   ar
    40    31    22    1
    41     1    37    1
    42     1    38    1
    43     1    39    1
    44     2    40    1
    45     3    41    1
    46     3    42    1
    47     7    43    1
    48     9    44    1
    49    10    45    1
    50    11    46    1
    51    12    47    1
    52    13    48    1
    53    15    49    1
    54    16    50    1
    55    19    51    1
    56    20    52    1
    57    22    53    1
    58    23    54    1
    59    23    55    1
    60    24    56    1
    61    24    57    1
    62    25    58    1
    63    26    59    1
    64    26    60    1
    65    29    61    1
    66    30    62    1
    67    30    63    1
    68    31    64    1
    69    31    65    1
    70    32    66    1
    71    33    67    1
    72    34    68    1
