@<TRIPOS>MOLECULE
*****
 43 47 0 0 0
SMALL
GASTEIGER

@<TRIPOS>ATOM
      1 N          -1.2237    2.0445   -4.7013 N.1     1  UNL1       -0.1892
      2 C          -1.9816    1.4159   -3.8725 C.1     1  UNL1        0.1208
      3 C          -2.8216    0.7482   -2.9826 C.ar    1  UNL1        0.1618
      4 C          -4.1085    0.4108   -3.0213 C.ar    1  UNL1        0.0659
      5 N          -4.4120   -0.2842   -1.8934 N.ar    1  UNL1       -0.2333
      6 C          -3.2580   -0.3834   -1.1058 C.ar    1  UNL1        0.1555
      7 C          -3.0406   -0.9723    0.0951 C.ar    1  UNL1       -0.0153
      8 C          -1.7769   -0.9186    0.6389 C.ar    1  UNL1       -0.0290
      9 C          -0.7966   -0.2648   -0.0535 C.ar    1  UNL1        0.1103
     10 C           0.5320   -0.0762    0.4923 C.ar    1  UNL1        0.0969
     11 C           1.5841   -0.9407    0.6044 C.ar    1  UNL1        0.0983
     12 C           1.6345   -2.3559    0.2759 C.ar    1  UNL1        0.0040
     13 C           2.4089   -3.1971    1.1130 C.ar    1  UNL1       -0.0497
     14 C           2.4650   -4.5438    0.8843 C.ar    1  UNL1       -0.0244
     15 C           1.7693   -5.1218   -0.1671 C.ar    1  UNL1        0.1417
     16 F           1.8383   -6.4839   -0.3687 F       1  UNL1       -0.2040
     17 C           1.0206   -4.3273   -0.9824 C.ar    1  UNL1        0.0767
     18 CL          0.1324   -5.0486   -2.3079 Cl      1  UNL1       -0.0806
     19 C           0.9506   -2.9362   -0.7627 C.ar    1  UNL1       -0.0313
     20 N           2.6156   -0.2341    1.1836 N.ar    1  UNL1       -0.2351
     21 C           2.2422    1.0161    1.4322 C.ar    1  UNL1        0.0974
     22 N           0.9788    1.1100    1.0151 N.ar    1  UNL1       -0.3230
     23 C           0.1985    2.3063    1.1447 C.3     1  UNL1        0.0614
     24 C           0.6235    3.4092    0.1963 C.3     1  UNL1       -0.0064
     25 C           1.3359    4.4024    1.0514 C.3     1  UNL1        0.0497
     26 O           1.5337    3.8110    2.2901 O.3     1  UNL1       -0.3777
     27 C           0.4217    2.9827    2.4921 C.3     1  UNL1        0.0685
     28 N          -1.0985    0.2884   -1.2354 N.ar    1  UNL1       -0.1623
     29 N          -2.3278    0.2502   -1.7981 N.ar    1  UNL1       -0.2023
     30 H          -4.7981    0.6396   -3.8309 H       1  UNL1        0.0859
     31 H          -3.8094   -1.4797    0.6497 H       1  UNL1        0.0655
     32 H          -1.5172   -1.4111    1.6015 H       1  UNL1        0.0641
     33 H           2.9779   -2.7971    1.9365 H       1  UNL1        0.0625
     34 H           3.0591   -5.1937    1.5100 H       1  UNL1        0.0647
     35 H           0.3280   -2.3619   -1.4373 H       1  UNL1        0.0640
     36 H           2.8762    1.7656    1.8911 H       1  UNL1        0.1029
     37 H          -0.8493    2.0598    0.9733 H       1  UNL1        0.0552
     38 H          -0.2105    3.8359   -0.3826 H       1  UNL1        0.0308
     39 H           1.3957    2.9317   -0.5022 H       1  UNL1        0.0308
     40 H           0.6858    5.3085    1.2841 H       1  UNL1        0.0560
     41 H           2.3019    4.7662    0.6709 H       1  UNL1        0.0560
     42 H          -0.4339    3.6286    2.7406 H       1  UNL1        0.0580
     43 H           0.5537    2.2005    3.2389 H       1  UNL1        0.0580
@<TRIPOS>BOND
     1     1     2    3
     2     2     3    1
     3     3     4   ar
     4     4     5   ar
     5     5     6   ar
     6     6     7   ar
     7     7     8   ar
     8     8     9   ar
     9     9    10    1
    10    10    11   ar
    11    11    12    1
    12    12    13   ar
    13    13    14   ar
    14    14    15   ar
    15    15    16    1
    16    15    17   ar
    17    17    18    1
    18    17    19   ar
    19    11    20   ar
    20    20    21   ar
    21    21    22   ar
    22    22    23    1
    23    23    24    1
    24    24    25    1
    25    25    26    1
    26    26    27    1
    27     9    28   ar
    28    28    29   ar
    29    29     3   ar
    30    29     6   ar
    31    22    10   ar
    32    27    23    1
    33    19    12   ar
    34     4    30    1
    35     7    31    1
    36     8    32    1
    37    13    33    1
    38    14    34    1
    39    19    35    1
    40    21    36    1
    41    23    37    1
    42    24    38    1
    43    24    39    1
    44    25    40    1
    45    25    41    1
    46    27    42    1
    47    27    43    1
