
     RDKit          3D

117125  0  0  0  0  0  0  0  0999 V2000
    3.9867   -1.1894   -0.4304 C   0  0  2  0  0  0  0  0  0  0  0  0
    3.0961   -1.7796   -1.4006 N   0  0  0  0  0  0  0  0  0  0  0  0
    3.5917   -2.5779   -2.4949 C   0  0  0  0  0  0  0  0  0  0  0  0
    1.7570   -1.4481   -1.0920 C   0  0  0  0  0  0  0  0  0  0  0  0
    0.5877   -1.6093   -1.8035 C   0  0  0  0  0  0  0  0  0  0  0  0
   -0.5965   -1.1822   -1.2443 C   0  0  0  0  0  0  0  0  0  0  0  0
   -1.7083   -1.3856   -2.0447 O   0  0  0  0  0  0  0  0  0  0  0  0
   -1.7215   -1.9650   -3.3085 C   0  0  0  0  0  0  0  0  0  0  0  0
   -0.7211   -0.5895    0.0055 C   0  0  0  0  0  0  0  0  0  0  0  0
    0.5159   -0.4740    0.6373 C   0  0  0  0  0  0  0  0  0  0  0  0
    1.7414   -0.8695    0.1579 C   0  0  0  0  0  0  0  0  0  0  0  0
    3.1143   -0.8054    0.7222 C   0  0  1  0  0  0  0  0  0  0  0  0
    3.1761   -1.8021    1.8469 C   0  0  0  0  0  0  0  0  0  0  0  0
    2.6856   -0.9878    3.0046 C   0  0  0  0  0  0  0  0  0  0  0  0
    2.7976    0.3910    2.6466 N   0  0  0  0  0  0  0  0  0  0  0  0
    3.4621    1.0669    3.7044 C   0  0  0  0  0  0  0  0  0  0  0  0
    4.9428    0.8705    3.6869 C   0  0  0  0  0  0  0  0  0  0  0  0
    5.4766    0.9061    2.4813 C   0  0  0  0  0  0  0  0  0  0  0  0
    4.6818    1.1243    1.2186 C   0  0  2  0  0  0  0  0  0  0  0  0
    4.5371    2.6387    1.0772 C   0  0  0  0  0  0  0  0  0  0  0  0
    5.9118    3.3046    0.9775 C   0  0  0  0  0  0  0  0  0  0  0  0
    3.3398    0.5204    1.3316 C   0  0  1  0  0  0  0  0  0  0  0  0
    5.5228    0.6685    0.0731 C   0  0  1  0  0  0  0  0  0  0  0  0
    6.6235   -0.1312    0.5397 O   0  0  0  0  0  0  0  0  0  0  0  0
    7.9503    0.2391    0.2854 C   0  0  0  0  0  0  0  0  0  0  0  0
    9.0001   -0.6815    0.8276 C   0  0  0  0  0  0  0  0  0  0  0  0
    8.3117    1.2669   -0.3516 O   0  0  0  0  0  0  0  0  0  0  0  0
    4.8192   -0.0995   -0.9924 C   0  0  1  0  0  0  0  0  0  0  0  0
    5.8366   -0.7285   -1.7536 O   0  0  0  0  0  0  0  0  0  0  0  0
    4.1033    0.7689   -1.9580 C   0  0  0  0  0  0  0  0  0  0  0  0
    3.1701    1.5891   -2.1387 O   0  0  0  0  0  0  0  0  0  0  0  0
    4.4314    0.8879   -3.3013 O   0  0  0  0  0  0  0  0  0  0  0  0
    3.7681    1.6995   -4.2216 C   0  0  0  0  0  0  0  0  0  0  0  0
   -2.0228   -0.1716    0.6021 C   0  0  1  0  0  0  0  0  0  0  0  0
   -2.4664    0.8661   -0.4129 C   0  0  0  0  0  0  0  0  0  0  0  0
   -3.8859    1.1731   -0.4463 C   0  0  1  0  0  0  0  0  0  0  0  0
   -4.4695    2.1006    0.5627 C   0  0  0  0  0  0  0  0  0  0  0  0
   -5.8130    1.6178    0.7271 N   0  0  0  0  0  0  0  0  0  0  0  0
   -6.3718    1.2260   -0.5010 C   0  0  0  0  0  0  0  0  0  0  0  0
   -5.8084    1.7840   -1.7670 C   0  0  2  0  0  0  0  0  0  0  0  0
   -6.2895    3.0614   -2.0392 O   0  0  0  0  0  0  0  0  0  0  0  0
   -6.2416    0.8854   -2.9070 C   0  0  0  0  0  0  0  0  0  0  0  0
   -7.7168    0.7755   -3.0734 C   0  0  0  0  0  0  0  0  0  0  0  0
   -4.2908    1.8150   -1.7873 C   0  0  0  0  0  0  0  0  0  0  0  0
   -6.0009    0.6723    1.7438 C   0  0  0  0  0  0  0  0  0  0  0  0
   -4.8591   -0.0699    2.3140 C   0  0  0  0  0  0  0  0  0  0  0  0
   -4.1734   -1.0959    1.5481 C   0  0  0  0  0  0  0  0  0  0  0  0
   -2.9776   -1.2206    0.8410 C   0  0  0  0  0  0  0  0  0  0  0  0
   -2.8724   -2.4893    0.4059 N   0  0  0  0  0  0  0  0  0  0  0  0
   -3.9110   -3.2654    0.7516 C   0  0  0  0  0  0  0  0  0  0  0  0
   -4.2534   -4.5839    0.5454 C   0  0  0  0  0  0  0  0  0  0  0  0
   -5.4213   -5.1187    1.0327 C   0  0  0  0  0  0  0  0  0  0  0  0
   -6.2778   -4.3244    1.7467 C   0  0  0  0  0  0  0  0  0  0  0  0
   -5.8999   -3.0143    1.9307 C   0  0  0  0  0  0  0  0  0  0  0  0
   -4.7334   -2.3990    1.4686 C   0  0  0  0  0  0  0  0  0  0  0  0
   -1.5600    0.5436    1.8587 C   0  0  0  0  0  0  0  0  0  0  0  0
   -1.6001    0.2661    3.0755 O   0  0  0  0  0  0  0  0  0  0  0  0
   -0.9473    1.7952    1.6417 O   0  0  0  0  0  0  0  0  0  0  0  0
   -0.4840    2.5379    2.7282 C   0  0  0  0  0  0  0  0  0  0  0  0
    4.6549   -2.0087   -0.0793 H   0  0  0  0  0  0  0  0  0  0  0  0
    4.4927   -3.1571   -2.2044 H   0  0  0  0  0  0  0  0  0  0  0  0
    3.9155   -1.9299   -3.3453 H   0  0  0  0  0  0  0  0  0  0  0  0
    2.8510   -3.2928   -2.8897 H   0  0  0  0  0  0  0  0  0  0  0  0
    0.6550   -2.0637   -2.7678 H   0  0  0  0  0  0  0  0  0  0  0  0
   -1.2586   -2.9683   -3.2828 H   0  0  0  0  0  0  0  0  0  0  0  0
   -1.2538   -1.2780   -4.0479 H   0  0  0  0  0  0  0  0  0  0  0  0
   -2.8016   -2.0383   -3.6121 H   0  0  0  0  0  0  0  0  0  0  0  0
    0.5219   -0.0179    1.6230 H   0  0  0  0  0  0  0  0  0  0  0  0
    2.5232   -2.6928    1.6485 H   0  0  0  0  0  0  0  0  0  0  0  0
    4.2185   -2.0849    2.0045 H   0  0  0  0  0  0  0  0  0  0  0  0
    3.3146   -1.2434    3.8902 H   0  0  0  0  0  0  0  0  0  0  0  0
    1.6502   -1.2987    3.2898 H   0  0  0  0  0  0  0  0  0  0  0  0
    3.1436    0.5571    4.6663 H   0  0  0  0  0  0  0  0  0  0  0  0
    3.1615    2.1206    3.8760 H   0  0  0  0  0  0  0  0  0  0  0  0
    5.5583    0.7111    4.5601 H   0  0  0  0  0  0  0  0  0  0  0  0
    6.5532    0.7671    2.4301 H   0  0  0  0  0  0  0  0  0  0  0  0
    3.9149    3.0979    1.8418 H   0  0  0  0  0  0  0  0  0  0  0  0
    4.0453    2.9006    0.1035 H   0  0  0  0  0  0  0  0  0  0  0  0
    6.6653    2.6059    1.3943 H   0  0  0  0  0  0  0  0  0  0  0  0
    5.9104    4.2912    1.4813 H   0  0  0  0  0  0  0  0  0  0  0  0
    6.2072    3.5076   -0.0717 H   0  0  0  0  0  0  0  0  0  0  0  0
    2.6345    1.2336    0.7970 H   0  0  0  0  0  0  0  0  0  0  0  0
    6.0250    1.5154   -0.4543 H   0  0  0  0  0  0  0  0  0  0  0  0
    9.4236   -1.2609    0.0059 H   0  0  0  0  0  0  0  0  0  0  0  0
    9.8004   -0.0272    1.2328 H   0  0  0  0  0  0  0  0  0  0  0  0
    8.6308   -1.2702    1.6873 H   0  0  0  0  0  0  0  0  0  0  0  0
    6.4261   -0.0411   -2.1624 H   0  0  0  0  0  0  0  0  0  0  0  0
    4.3734    1.6514   -5.1745 H   0  0  0  0  0  0  0  0  0  0  0  0
    2.7550    1.2496   -4.4069 H   0  0  0  0  0  0  0  0  0  0  0  0
    3.7466    2.7281   -3.8676 H   0  0  0  0  0  0  0  0  0  0  0  0
   -2.0849    0.7098   -1.4325 H   0  0  0  0  0  0  0  0  0  0  0  0
   -1.9263    1.8187   -0.0873 H   0  0  0  0  0  0  0  0  0  0  0  0
   -4.4597    0.2036   -0.5251 H   0  0  0  0  0  0  0  0  0  0  0  0
   -4.5804    3.1629    0.2037 H   0  0  0  0  0  0  0  0  0  0  0  0
   -3.8994    2.2033    1.4943 H   0  0  0  0  0  0  0  0  0  0  0  0
   -7.4532    1.5694   -0.4882 H   0  0  0  0  0  0  0  0  0  0  0  0
   -6.4785    0.1144   -0.6344 H   0  0  0  0  0  0  0  0  0  0  0  0
   -5.6713    3.5572   -2.6423 H   0  0  0  0  0  0  0  0  0  0  0  0
   -5.8224   -0.1460   -2.7958 H   0  0  0  0  0  0  0  0  0  0  0  0
   -5.8259    1.2353   -3.8816 H   0  0  0  0  0  0  0  0  0  0  0  0
   -8.0292   -0.2767   -2.9325 H   0  0  0  0  0  0  0  0  0  0  0  0
   -8.2662    1.4244   -2.3520 H   0  0  0  0  0  0  0  0  0  0  0  0
   -8.0488    1.0182   -4.1257 H   0  0  0  0  0  0  0  0  0  0  0  0
   -3.8443    1.2129   -2.5753 H   0  0  0  0  0  0  0  0  0  0  0  0
   -3.9112    2.8482   -1.7817 H   0  0  0  0  0  0  0  0  0  0  0  0
   -6.6159    1.1866    2.5460 H   0  0  0  0  0  0  0  0  0  0  0  0
   -6.7423   -0.1074    1.3735 H   0  0  0  0  0  0  0  0  0  0  0  0
   -5.2777   -0.5477    3.2604 H   0  0  0  0  0  0  0  0  0  0  0  0
   -4.1260    0.6426    2.8195 H   0  0  0  0  0  0  0  0  0  0  0  0
   -2.1027   -2.9787   -0.1343 H   0  0  0  0  0  0  0  0  0  0  0  0
   -3.6042   -5.2445   -0.0132 H   0  0  0  0  0  0  0  0  0  0  0  0
   -5.6497   -6.1519    0.8488 H   0  0  0  0  0  0  0  0  0  0  0  0
   -7.1877   -4.7100    2.1356 H   0  0  0  0  0  0  0  0  0  0  0  0
   -6.6071   -2.4273    2.5000 H   0  0  0  0  0  0  0  0  0  0  0  0
   -0.8281    3.5968    2.5800 H   0  0  0  0  0  0  0  0  0  0  0  0
    0.6289    2.6178    2.7264 H   0  0  0  0  0  0  0  0  0  0  0  0
   -0.8881    2.2016    3.6838 H   0  0  0  0  0  0  0  0  0  0  0  0
  1  2  1  0
  2  3  1  0
  2  4  1  0
  4  5  2  0
  5  6  1  0
  6  7  1  0
  7  8  1  0
  6  9  2  0
  9 10  1  0
 10 11  2  0
 11 12  1  0
 12 13  1  1
 13 14  1  0
 14 15  1  0
 15 16  1  0
 16 17  1  0
 17 18  2  0
 18 19  1  0
 19 20  1  6
 20 21  1  0
 19 22  1  0
 19 23  1  0
 23 24  1  0
 24 25  1  0
 25 26  1  0
 25 27  2  0
 23 28  1  0
 28 29  1  6
 28 30  1  0
 30 31  2  0
 30 32  1  0
 32 33  1  0
  9 34  1  0
 34 35  1  0
 35 36  1  0
 36 37  1  0
 37 38  1  0
 38 39  1  0
 39 40  1  0
 40 41  1  6
 40 42  1  0
 42 43  1  0
 40 44  1  0
 38 45  1  0
 45 46  1  0
 46 47  1  0
 47 48  2  0
 48 49  1  0
 49 50  1  0
 50 51  2  0
 51 52  1  0
 52 53  2  0
 53 54  1  0
 54 55  2  0
 34 56  1  1
 56 57  2  0
 56 58  1  0
 58 59  1  0
 12  1  1  0
 22 12  1  0
 48 34  1  0
 55 50  1  0
 28  1  1  0
 44 36  1  0
 55 47  1  0
 11  4  1  0
 22 15  1  0
  1 60  1  1
  3 61  1  0
  3 62  1  0
  3 63  1  0
  5 64  1  0
  8 65  1  0
  8 66  1  0
  8 67  1  0
 10 68  1  0
 13 69  1  0
 13 70  1  0
 14 71  1  0
 14 72  1  0
 16 73  1  0
 16 74  1  0
 17 75  1  0
 18 76  1  0
 20 77  1  0
 20 78  1  0
 21 79  1  0
 21 80  1  0
 21 81  1  0
 22 82  1  6
 23 83  1  6
 26 84  1  0
 26 85  1  0
 26 86  1  0
 29 87  1  0
 33 88  1  0
 33 89  1  0
 33 90  1  0
 35 91  1  0
 35 92  1  0
 36 93  1  1
 37 94  1  0
 37 95  1  0
 39 96  1  0
 39 97  1  0
 41 98  1  0
 42 99  1  0
 42100  1  0
 43101  1  0
 43102  1  0
 43103  1  0
 44104  1  0
 44105  1  0
 45106  1  0
 45107  1  0
 46108  1  0
 46109  1  0
 49110  1  0
 51111  1  0
 52112  1  0
 53113  1  0
 54114  1  0
 59115  1  0
 59116  1  0
 59117  1  0
M  END
$$$$
