@<TRIPOS>MOLECULE
*****
 117 125 0 0 0
SMALL
GASTEIGER

@<TRIPOS>ATOM
      1 C           3.9867   -1.1894   -0.4304 C.3     1  UNL1        0.0772
      2 N           3.0961   -1.7796   -1.4006 N.pl3   1  UNL1       -0.3252
      3 C           3.5917   -2.5779   -2.4949 C.3     1  UNL1        0.0011
      4 C           1.7570   -1.4481   -1.0920 C.ar    1  UNL1        0.0372
      5 C           0.5877   -1.6093   -1.8035 C.ar    1  UNL1        0.0017
      6 C          -0.5965   -1.1822   -1.2443 C.ar    1  UNL1        0.1265
      7 O          -1.7083   -1.3856   -2.0447 O.3     1  UNL1       -0.4947
      8 C          -1.7215   -1.9650   -3.3085 C.3     1  UNL1        0.0788
      9 C          -0.7211   -0.5895    0.0055 C.ar    1  UNL1        0.0172
     10 C           0.5159   -0.4740    0.6373 C.ar    1  UNL1       -0.0481
     11 C           1.7414   -0.8695    0.1579 C.ar    1  UNL1       -0.0162
     12 C           3.1143   -0.8054    0.7222 C.3     1  UNL1        0.0369
     13 C           3.1761   -1.8021    1.8469 C.3     1  UNL1       -0.0272
     14 C           2.6856   -0.9878    3.0046 C.3     1  UNL1        0.0005
     15 N           2.7976    0.3910    2.6466 N.3     1  UNL1       -0.2939
     16 C           3.4621    1.0669    3.7044 C.3     1  UNL1        0.0175
     17 C           4.9428    0.8705    3.6869 C.2     1  UNL1       -0.0733
     18 C           5.4766    0.9061    2.4813 C.2     1  UNL1       -0.0755
     19 C           4.6818    1.1243    1.2186 C.3     1  UNL1        0.0453
     20 C           4.5371    2.6387    1.0772 C.3     1  UNL1       -0.0418
     21 C           5.9118    3.3046    0.9775 C.3     1  UNL1       -0.0643
     22 C           3.3398    0.5204    1.3316 C.3     1  UNL1        0.0348
     23 C           5.5228    0.6685    0.0731 C.3     1  UNL1        0.1542
     24 O           6.6235   -0.1312    0.5397 O.3     1  UNL1       -0.4570
     25 C           7.9503    0.2391    0.2854 C.2     1  UNL1        0.3043
     26 C           9.0001   -0.6815    0.8276 C.3     1  UNL1        0.0332
     27 O           8.3117    1.2669   -0.3516 O.2     1  UNL1       -0.2512
     28 C           4.8192   -0.0995   -0.9924 C.3     1  UNL1        0.2195
     29 O           5.8366   -0.7285   -1.7536 O.3     1  UNL1       -0.3733
     30 C           4.1033    0.7689   -1.9580 C.2     1  UNL1        0.3446
     31 O           3.1701    1.5891   -2.1387 O.2     1  UNL1       -0.2474
     32 O           4.4314    0.8879   -3.3013 O.3     1  UNL1       -0.4658
     33 C           3.7681    1.6995   -4.2216 C.3     1  UNL1        0.0818
     34 C          -2.0228   -0.1716    0.6021 C.3     1  UNL1        0.1360
     35 C          -2.4664    0.8661   -0.4129 C.3     1  UNL1       -0.0234
     36 C          -3.8859    1.1731   -0.4463 C.3     1  UNL1       -0.0239
     37 C          -4.4695    2.1006    0.5627 C.3     1  UNL1        0.0020
     38 N          -5.8130    1.6178    0.7271 N.3     1  UNL1       -0.2990
     39 C          -6.3718    1.2260   -0.5010 C.3     1  UNL1        0.0278
     40 C          -5.8084    1.7840   -1.7670 C.3     1  UNL1        0.0788
     41 O          -6.2895    3.0614   -2.0392 O.3     1  UNL1       -0.3873
     42 C          -6.2416    0.8854   -2.9070 C.3     1  UNL1       -0.0256
     43 C          -7.7168    0.7755   -3.0734 C.3     1  UNL1       -0.0626
     44 C          -4.2908    1.8150   -1.7873 C.3     1  UNL1       -0.0188
     45 C          -6.0009    0.6723    1.7438 C.3     1  UNL1        0.0031
     46 C          -4.8591   -0.0699    2.3140 C.3     1  UNL1       -0.0126
     47 C          -4.1734   -1.0959    1.5481 C.ar    1  UNL1       -0.0165
     48 C          -2.9776   -1.2206    0.8410 C.ar    1  UNL1        0.0418
     49 N          -2.8724   -2.4893    0.4059 N.ar    1  UNL1       -0.3565
     50 C          -3.9110   -3.2654    0.7516 C.ar    1  UNL1        0.0470
     51 C          -4.2534   -4.5839    0.5454 C.ar    1  UNL1       -0.0378
     52 C          -5.4213   -5.1187    1.0327 C.ar    1  UNL1       -0.0598
     53 C          -6.2778   -4.3244    1.7467 C.ar    1  UNL1       -0.0611
     54 C          -5.8999   -3.0143    1.9307 C.ar    1  UNL1       -0.0523
     55 C          -4.7334   -2.3990    1.4686 C.ar    1  UNL1        0.0032
     56 C          -1.5600    0.5436    1.8587 C.2     1  UNL1        0.3235
     57 O          -1.6001    0.2661    3.0755 O.2     1  UNL1       -0.2494
     58 O          -0.9473    1.7952    1.6417 O.3     1  UNL1       -0.4670
     59 C          -0.4840    2.5379    2.7282 C.3     1  UNL1        0.0817
     60 H           4.6549   -2.0087   -0.0793 H       1  UNL1        0.0544
     61 H           4.4927   -3.1571   -2.2044 H       1  UNL1        0.0428
     62 H           3.9155   -1.9299   -3.3453 H       1  UNL1        0.0428
     63 H           2.8510   -3.2928   -2.8897 H       1  UNL1        0.0428
     64 H           0.6550   -2.0637   -2.7678 H       1  UNL1        0.0673
     65 H          -1.2586   -2.9683   -3.2828 H       1  UNL1        0.0660
     66 H          -1.2538   -1.2780   -4.0479 H       1  UNL1        0.0660
     67 H          -2.8016   -2.0383   -3.6121 H       1  UNL1        0.0660
     68 H           0.5219   -0.0179    1.6230 H       1  UNL1        0.0625
     69 H           2.5232   -2.6928    1.6485 H       1  UNL1        0.0287
     70 H           4.2185   -2.0849    2.0045 H       1  UNL1        0.0287
     71 H           3.3146   -1.2434    3.8902 H       1  UNL1        0.0427
     72 H           1.6502   -1.2987    3.2898 H       1  UNL1        0.0427
     73 H           3.1436    0.5571    4.6663 H       1  UNL1        0.0470
     74 H           3.1615    2.1206    3.8760 H       1  UNL1        0.0470
     75 H           5.5583    0.7111    4.5601 H       1  UNL1        0.0582
     76 H           6.5532    0.7671    2.4301 H       1  UNL1        0.0577
     77 H           3.9149    3.0979    1.8418 H       1  UNL1        0.0273
     78 H           4.0453    2.9006    0.1035 H       1  UNL1        0.0273
     79 H           6.6653    2.6059    1.3943 H       1  UNL1        0.0230
     80 H           5.9104    4.2912    1.4813 H       1  UNL1        0.0230
     81 H           6.2072    3.5076   -0.0717 H       1  UNL1        0.0230
     82 H           2.6345    1.2336    0.7970 H       1  UNL1        0.0482
     83 H           6.0250    1.5154   -0.4543 H       1  UNL1        0.0779
     84 H           9.4236   -1.2609    0.0059 H       1  UNL1        0.0342
     85 H           9.8004   -0.0272    1.2328 H       1  UNL1        0.0342
     86 H           8.6308   -1.2702    1.6873 H       1  UNL1        0.0342
     87 H           6.4261   -0.0411   -2.1624 H       1  UNL1        0.2111
     88 H           4.3734    1.6514   -5.1745 H       1  UNL1        0.0661
     89 H           2.7550    1.2496   -4.4069 H       1  UNL1        0.0661
     90 H           3.7466    2.7281   -3.8676 H       1  UNL1        0.0661
     91 H          -2.0849    0.7098   -1.4325 H       1  UNL1        0.0286
     92 H          -1.9263    1.8187   -0.0873 H       1  UNL1        0.0286
     93 H          -4.4597    0.2036   -0.5251 H       1  UNL1        0.0314
     94 H          -4.5804    3.1629    0.2037 H       1  UNL1        0.0429
     95 H          -3.8994    2.2033    1.4943 H       1  UNL1        0.0429
     96 H          -7.4532    1.5694   -0.4882 H       1  UNL1        0.0455
     97 H          -6.4785    0.1144   -0.6344 H       1  UNL1        0.0455
     98 H          -5.6713    3.5572   -2.6423 H       1  UNL1        0.2102
     99 H          -5.8224   -0.1460   -2.7958 H       1  UNL1        0.0291
    100 H          -5.8259    1.2353   -3.8816 H       1  UNL1        0.0291
    101 H          -8.0292   -0.2767   -2.9325 H       1  UNL1        0.0231
    102 H          -8.2662    1.4244   -2.3520 H       1  UNL1        0.0231
    103 H          -8.0488    1.0182   -4.1257 H       1  UNL1        0.0231
    104 H          -3.8443    1.2129   -2.5753 H       1  UNL1        0.0296
    105 H          -3.9112    2.8482   -1.7817 H       1  UNL1        0.0296
    106 H          -6.6159    1.1866    2.5460 H       1  UNL1        0.0430
    107 H          -6.7423   -0.1074    1.3735 H       1  UNL1        0.0430
    108 H          -5.2777   -0.5477    3.2604 H       1  UNL1        0.0326
    109 H          -4.1260    0.6426    2.8195 H       1  UNL1        0.0326
    110 H          -2.1027   -2.9787   -0.1343 H       1  UNL1        0.1656
    111 H          -3.6042   -5.2445   -0.0132 H       1  UNL1        0.0638
    112 H          -5.6497   -6.1519    0.8488 H       1  UNL1        0.0618
    113 H          -7.1877   -4.7100    2.1356 H       1  UNL1        0.0618
    114 H          -6.6071   -2.4273    2.5000 H       1  UNL1        0.0624
    115 H          -0.8281    3.5968    2.5800 H       1  UNL1        0.0661
    116 H           0.6289    2.6178    2.7264 H       1  UNL1        0.0661
    117 H          -0.8881    2.2016    3.6838 H       1  UNL1        0.0661
@<TRIPOS>BOND
     1     1     2    1
     2     2     3    1
     3     2     4    1
     4     4     5   ar
     5     5     6   ar
     6     6     7    1
     7     7     8    1
     8     6     9   ar
     9     9    10   ar
    10    10    11   ar
    11    11    12    1
    12    12    13    1
    13    13    14    1
    14    14    15    1
    15    15    16    1
    16    16    17    1
    17    17    18    2
    18    18    19    1
    19    19    20    1
    20    20    21    1
    21    19    22    1
    22    19    23    1
    23    23    24    1
    24    24    25    1
    25    25    26    1
    26    25    27    2
    27    23    28    1
    28    28    29    1
    29    28    30    1
    30    30    31    2
    31    30    32    1
    32    32    33    1
    33     9    34    1
    34    34    35    1
    35    35    36    1
    36    36    37    1
    37    37    38    1
    38    38    39    1
    39    39    40    1
    40    40    41    1
    41    40    42    1
    42    42    43    1
    43    40    44    1
    44    38    45    1
    45    45    46    1
    46    46    47    1
    47    47    48   ar
    48    48    49   ar
    49    49    50   ar
    50    50    51   ar
    51    51    52   ar
    52    52    53   ar
    53    53    54   ar
    54    54    55   ar
    55    34    56    1
    56    56    57    2
    57    56    58    1
    58    58    59    1
    59    12     1    1
    60    22    12    1
    61    48    34    1
    62    55    50   ar
    63    28     1    1
    64    44    36    1
    65    55    47   ar
    66    11     4   ar
    67    22    15    1
    68     1    60    1
    69     3    61    1
    70     3    62    1
    71     3    63    1
    72     5    64    1
    73     8    65    1
    74     8    66    1
    75     8    67    1
    76    10    68    1
    77    13    69    1
    78    13    70    1
    79    14    71    1
    80    14    72    1
    81    16    73    1
    82    16    74    1
    83    17    75    1
    84    18    76    1
    85    20    77    1
    86    20    78    1
    87    21    79    1
    88    21    80    1
    89    21    81    1
    90    22    82    1
    91    23    83    1
    92    26    84    1
    93    26    85    1
    94    26    86    1
    95    29    87    1
    96    33    88    1
    97    33    89    1
    98    33    90    1
    99    35    91    1
   100    35    92    1
   101    36    93    1
   102    37    94    1
   103    37    95    1
   104    39    96    1
   105    39    97    1
   106    41    98    1
   107    42    99    1
   108    42   100    1
   109    43   101    1
   110    43   102    1
   111    43   103    1
   112    44   104    1
   113    44   105    1
   114    45   106    1
   115    45   107    1
   116    46   108    1
   117    46   109    1
   118    49   110    1
   119    51   111    1
   120    52   112    1
   121    53   113    1
   122    54   114    1
   123    59   115    1
   124    59   116    1
   125    59   117    1
