
     RDKit          3D

  9  8  0  0  0  0  0  0  0  0999 V2000
   -0.9535    0.0478    0.0425 C   0  0  0  0  0  0  0  0  0  0  0  0
    0.4879   -0.3215   -0.1890 C   0  0  0  0  0  0  0  0  0  0  0  0
    1.2770    0.3248    0.7377 O   0  0  0  0  0  0  0  0  0  0  0  0
   -1.3570    0.7340   -0.7332 H   0  0  0  0  0  0  0  0  0  0  0  0
   -1.5933   -0.8626    0.0218 H   0  0  0  0  0  0  0  0  0  0  0  0
   -1.0710    0.5964    1.0112 H   0  0  0  0  0  0  0  0  0  0  0  0
    0.7874   -0.1406   -1.2358 H   0  0  0  0  0  0  0  0  0  0  0  0
    0.5900   -1.4261   -0.0440 H   0  0  0  0  0  0  0  0  0  0  0  0
    1.8325    1.0478    0.3890 H   0  0  0  0  0  0  0  0  0  0  0  0
  1  2  1  0
  2  3  1  0
  1  4  1  0
  1  5  1  0
  1  6  1  0
  2  7  1  0
  2  8  1  0
  3  9  1  0
M  END
$$$$
