@<TRIPOS>MOLECULE
*****
 52 56 0 0 0
SMALL
GASTEIGER

@<TRIPOS>ATOM
      1 C          -4.4158   -4.9378   -1.3111 C.3     1  UNL1        0.0125
      2 C          -4.0416   -3.6570   -0.7091 C.2     1  UNL1        0.2141
      3 O          -4.0923   -3.5528    0.5582 O.2     1  UNL1       -0.2758
      4 N          -3.6218   -2.5079   -1.4286 N.am    1  UNL1       -0.2839
      5 C          -3.2681   -1.2835   -0.7916 C.ar    1  UNL1        0.0637
      6 C          -4.1116   -0.2258   -0.4883 C.ar    1  UNL1        0.0266
      7 N          -3.4079    0.7544    0.1114 N.ar    1  UNL1       -0.3492
      8 C          -3.9837    1.9961    0.5807 C.3     1  UNL1        0.0117
      9 C          -2.1144    0.3944    0.2222 C.ar    1  UNL1        0.0581
     10 C          -2.0299   -0.8822   -0.3415 C.ar    1  UNL1        0.0813
     11 C          -0.6593   -1.3203   -0.2026 C.2     1  UNL1        0.2564
     12 O          -0.2224   -2.4432   -0.6123 O.2     1  UNL1       -0.2694
     13 N           0.0883   -0.2894    0.4595 N.am    1  UNL1       -0.2374
     14 C           1.4538   -0.4638    0.7869 C.ar    1  UNL1        0.1499
     15 C           1.9107   -0.9656    1.9774 C.ar    1  UNL1       -0.0131
     16 C           3.2591   -1.1071    2.2052 C.ar    1  UNL1       -0.0012
     17 C           3.8027   -1.6468    3.4810 C.3     1  UNL1       -0.0360
     18 C           4.1786   -0.7471    1.2411 C.ar    1  UNL1        0.1811
     19 N           5.5051   -0.7708    1.1821 N.ar    1  UNL1       -0.1275
     20 N           5.8838   -0.3023   -0.0003 N.ar    1  UNL1       -0.1263
     21 C           4.7665    0.0158   -0.6818 C.ar    1  UNL1        0.2205
     22 C           4.7931    0.5795   -2.0667 C.3     1  UNL1        0.2993
     23 F           5.4021    1.8197   -2.0377 F       1  UNL1       -0.2005
     24 F           5.4857   -0.2399   -2.9190 F       1  UNL1       -0.2005
     25 N           3.6831   -0.2581    0.0857 N.ar    1  UNL1       -0.1896
     26 N           2.4007   -0.1246   -0.1286 N.ar    1  UNL1       -0.1476
     27 C          -0.7934    0.8268    0.6822 C.3     1  UNL1        0.0986
     28 C          -0.3477    2.0443    0.0057 C.ar    1  UNL1       -0.0207
     29 C           0.8736    2.5938    0.3939 C.ar    1  UNL1       -0.0550
     30 C           1.3749    3.7286   -0.2142 C.ar    1  UNL1       -0.0431
     31 C           0.6887    4.3598   -1.2255 C.ar    1  UNL1        0.0410
     32 CL          1.3638    5.8001   -1.9697 Cl      1  UNL1       -0.0835
     33 C          -0.5031    3.8405   -1.6188 C.ar    1  UNL1       -0.0431
     34 C          -1.0087    2.6883   -0.9996 C.ar    1  UNL1       -0.0550
     35 H          -3.6680   -5.7301   -1.2317 H       1  UNL1        0.0323
     36 H          -4.6519   -4.7931   -2.3829 H       1  UNL1        0.0323
     37 H          -5.3394   -5.2959   -0.7844 H       1  UNL1        0.0323
     38 H          -3.5749   -2.5773   -2.4680 H       1  UNL1        0.1549
     39 H          -5.1772   -0.2340   -0.7206 H       1  UNL1        0.0828
     40 H          -4.0592    2.7635   -0.2141 H       1  UNL1        0.0456
     41 H          -5.0368    1.8389    0.9440 H       1  UNL1        0.0456
     42 H          -3.4387    2.4221    1.4449 H       1  UNL1        0.0456
     43 H           1.1954   -1.2438    2.7227 H       1  UNL1        0.0656
     44 H           4.5366   -2.4671    3.3128 H       1  UNL1        0.0279
     45 H           2.9725   -2.0209    4.0897 H       1  UNL1        0.0279
     46 H           4.3352   -0.8601    4.0558 H       1  UNL1        0.0279
     47 H           3.7376    0.7411   -2.3700 H       1  UNL1        0.1105
     48 H          -0.8283    0.9521    1.7972 H       1  UNL1        0.0620
     49 H           1.4157    2.1095    1.1882 H       1  UNL1        0.0621
     50 H           2.3351    4.0911    0.1494 H       1  UNL1        0.0632
     51 H          -1.0914    4.2987   -2.4157 H       1  UNL1        0.0632
     52 H          -1.9547    2.2889   -1.3435 H       1  UNL1        0.0621
@<TRIPOS>BOND
     1     1     2    1
     2     2     3    2
     3     2     4   am
     4     4     5    1
     5     5     6   ar
     6     6     7   ar
     7     7     8    1
     8     7     9   ar
     9     9    10   ar
    10    10    11    1
    11    11    12    2
    12    11    13   am
    13    13    14    1
    14    14    15   ar
    15    15    16   ar
    16    16    17    1
    17    16    18   ar
    18    18    19   ar
    19    19    20   ar
    20    20    21   ar
    21    21    22    1
    22    22    23    1
    23    22    24    1
    24    21    25   ar
    25    25    26   ar
    26    13    27    1
    27    27    28    1
    28    28    29   ar
    29    29    30   ar
    30    30    31   ar
    31    31    32    1
    32    31    33   ar
    33    33    34   ar
    34    10     5   ar
    35    26    14   ar
    36    34    28   ar
    37    27     9    1
    38    25    18   ar
    39     1    35    1
    40     1    36    1
    41     1    37    1
    42     4    38    1
    43     6    39    1
    44     8    40    1
    45     8    41    1
    46     8    42    1
    47    15    43    1
    48    17    44    1
    49    17    45    1
    50    17    46    1
    51    22    47    1
    52    27    48    1
    53    29    49    1
    54    30    50    1
    55    33    51    1
    56    34    52    1
