
     RDKit          3D

 52 56  0  0  0  0  0  0  0  0999 V2000
   -4.4158   -4.9378   -1.3111 C   0  0  0  0  0  0  0  0  0  0  0  0
   -4.0416   -3.6570   -0.7091 C   0  0  0  0  0  0  0  0  0  0  0  0
   -4.0923   -3.5528    0.5582 O   0  0  0  0  0  0  0  0  0  0  0  0
   -3.6218   -2.5079   -1.4286 N   0  0  0  0  0  0  0  0  0  0  0  0
   -3.2681   -1.2835   -0.7916 C   0  0  0  0  0  0  0  0  0  0  0  0
   -4.1116   -0.2258   -0.4883 C   0  0  0  0  0  0  0  0  0  0  0  0
   -3.4079    0.7544    0.1114 N   0  0  0  0  0  0  0  0  0  0  0  0
   -3.9837    1.9961    0.5807 C   0  0  0  0  0  0  0  0  0  0  0  0
   -2.1144    0.3944    0.2222 C   0  0  0  0  0  0  0  0  0  0  0  0
   -2.0299   -0.8822   -0.3415 C   0  0  0  0  0  0  0  0  0  0  0  0
   -0.6593   -1.3203   -0.2026 C   0  0  0  0  0  0  0  0  0  0  0  0
   -0.2224   -2.4432   -0.6123 O   0  0  0  0  0  0  0  0  0  0  0  0
    0.0883   -0.2894    0.4595 N   0  0  0  0  0  0  0  0  0  0  0  0
    1.4538   -0.4638    0.7869 C   0  0  0  0  0  0  0  0  0  0  0  0
    1.9107   -0.9656    1.9774 C   0  0  0  0  0  0  0  0  0  0  0  0
    3.2591   -1.1071    2.2052 C   0  0  0  0  0  0  0  0  0  0  0  0
    3.8027   -1.6468    3.4810 C   0  0  0  0  0  0  0  0  0  0  0  0
    4.1786   -0.7471    1.2411 C   0  0  0  0  0  0  0  0  0  0  0  0
    5.5051   -0.7708    1.1821 N   0  0  0  0  0  0  0  0  0  0  0  0
    5.8838   -0.3023   -0.0003 N   0  0  0  0  0  0  0  0  0  0  0  0
    4.7665    0.0158   -0.6818 C   0  0  0  0  0  0  0  0  0  0  0  0
    4.7931    0.5795   -2.0667 C   0  0  0  0  0  0  0  0  0  0  0  0
    5.4021    1.8197   -2.0377 F   0  0  0  0  0  0  0  0  0  0  0  0
    5.4857   -0.2399   -2.9190 F   0  0  0  0  0  0  0  0  0  0  0  0
    3.6831   -0.2581    0.0857 N   0  0  0  0  0  0  0  0  0  0  0  0
    2.4007   -0.1246   -0.1286 N   0  0  0  0  0  0  0  0  0  0  0  0
   -0.7934    0.8268    0.6822 C   0  0  0  0  0  0  0  0  0  0  0  0
   -0.3477    2.0443    0.0057 C   0  0  0  0  0  0  0  0  0  0  0  0
    0.8736    2.5938    0.3939 C   0  0  0  0  0  0  0  0  0  0  0  0
    1.3749    3.7286   -0.2142 C   0  0  0  0  0  0  0  0  0  0  0  0
    0.6887    4.3598   -1.2255 C   0  0  0  0  0  0  0  0  0  0  0  0
    1.3638    5.8001   -1.9697 Cl  0  0  0  0  0  0  0  0  0  0  0  0
   -0.5031    3.8405   -1.6188 C   0  0  0  0  0  0  0  0  0  0  0  0
   -1.0087    2.6883   -0.9996 C   0  0  0  0  0  0  0  0  0  0  0  0
   -3.6680   -5.7301   -1.2317 H   0  0  0  0  0  0  0  0  0  0  0  0
   -4.6519   -4.7931   -2.3829 H   0  0  0  0  0  0  0  0  0  0  0  0
   -5.3394   -5.2959   -0.7844 H   0  0  0  0  0  0  0  0  0  0  0  0
   -3.5749   -2.5773   -2.4680 H   0  0  0  0  0  0  0  0  0  0  0  0
   -5.1772   -0.2340   -0.7206 H   0  0  0  0  0  0  0  0  0  0  0  0
   -4.0592    2.7635   -0.2141 H   0  0  0  0  0  0  0  0  0  0  0  0
   -5.0368    1.8389    0.9440 H   0  0  0  0  0  0  0  0  0  0  0  0
   -3.4387    2.4221    1.4449 H   0  0  0  0  0  0  0  0  0  0  0  0
    1.1954   -1.2438    2.7227 H   0  0  0  0  0  0  0  0  0  0  0  0
    4.5366   -2.4671    3.3128 H   0  0  0  0  0  0  0  0  0  0  0  0
    2.9725   -2.0209    4.0897 H   0  0  0  0  0  0  0  0  0  0  0  0
    4.3352   -0.8601    4.0558 H   0  0  0  0  0  0  0  0  0  0  0  0
    3.7376    0.7411   -2.3700 H   0  0  0  0  0  0  0  0  0  0  0  0
   -0.8283    0.9521    1.7972 H   0  0  0  0  0  0  0  0  0  0  0  0
    1.4157    2.1095    1.1882 H   0  0  0  0  0  0  0  0  0  0  0  0
    2.3351    4.0911    0.1494 H   0  0  0  0  0  0  0  0  0  0  0  0
   -1.0914    4.2987   -2.4157 H   0  0  0  0  0  0  0  0  0  0  0  0
   -1.9547    2.2889   -1.3435 H   0  0  0  0  0  0  0  0  0  0  0  0
  1  2  1  0
  2  3  2  0
  2  4  1  0
  4  5  1  0
  5  6  2  0
  6  7  1  0
  7  8  1  0
  7  9  1  0
  9 10  2  0
 10 11  1  0
 11 12  2  0
 11 13  1  0
 13 14  1  0
 14 15  1  0
 15 16  2  0
 16 17  1  0
 16 18  1  0
 18 19  2  0
 19 20  1  0
 20 21  2  0
 21 22  1  0
 22 23  1  0
 22 24  1  0
 21 25  1  0
 25 26  1  0
 13 27  1  0
 27 28  1  0
 28 29  2  0
 29 30  1  0
 30 31  2  0
 31 32  1  0
 31 33  1  0
 33 34  2  0
 10  5  1  0
 26 14  2  0
 34 28  1  0
 27  9  1  0
 25 18  1  0
  1 35  1  0
  1 36  1  0
  1 37  1  0
  4 38  1  0
  6 39  1  0
  8 40  1  0
  8 41  1  0
  8 42  1  0
 15 43  1  0
 17 44  1  0
 17 45  1  0
 17 46  1  0
 22 47  1  0
 27 48  1  0
 29 49  1  0
 30 50  1  0
 33 51  1  0
 34 52  1  0
M  END
$$$$
