
     RDKit          3D

 47 51  0  0  0  0  0  0  0  0999 V2000
   -2.2930    2.0163   -0.2235 C   0  0  0  0  0  0  0  0  0  0  0  0
   -2.1648    0.9968   -1.2853 C   0  0  2  0  0  0  0  0  0  0  0  0
   -3.3382    1.1348   -2.2602 C   0  0  0  0  0  0  0  0  0  0  0  0
   -4.5689    0.8157   -1.4729 C   0  0  0  0  0  0  0  0  0  0  0  0
   -4.4371   -0.2691   -0.4789 C   0  0  0  0  0  0  0  0  0  0  0  0
   -3.2939   -0.9657   -0.4352 O   0  0  0  0  0  0  0  0  0  0  0  0
   -2.1414   -0.4298   -0.8685 C   0  0  2  0  0  0  0  0  0  0  0  0
   -1.0290   -0.7307    0.1502 C   0  0  1  0  0  0  0  0  0  0  0  0
   -1.5306   -0.2722    1.5076 C   0  0  0  0  0  0  0  0  0  0  0  0
   -0.6753   -1.5425    2.5318 S   0  0  0  0  0  0  0  0  0  0  0  0
   -0.5760   -2.7475    1.1950 C   0  0  0  0  0  0  0  0  0  0  0  0
   -0.3066   -4.1484    1.3997 N   0  0  0  0  0  0  0  0  0  0  0  0
   -0.7822   -2.1095    0.1473 N   0  0  0  0  0  0  0  0  0  0  0  0
    0.1979   -0.0199   -0.2498 C   0  0  0  0  0  0  0  0  0  0  0  0
    1.3999   -0.2725    0.3974 C   0  0  0  0  0  0  0  0  0  0  0  0
    2.5705    0.3664    0.0593 C   0  0  0  0  0  0  0  0  0  0  0  0
    3.8401    0.1178    0.7249 C   0  0  0  0  0  0  0  0  0  0  0  0
    3.8664   -0.2209    2.0554 C   0  0  0  0  0  0  0  0  0  0  0  0
    5.0355   -0.4568    2.6974 N   0  0  0  0  0  0  0  0  0  0  0  0
    6.2031   -0.3682    2.0588 C   0  0  0  0  0  0  0  0  0  0  0  0
    6.2438   -0.0345    0.7316 C   0  0  0  0  0  0  0  0  0  0  0  0
    7.7786    0.0795   -0.0982 Cl  0  0  0  0  0  0  0  0  0  0  0  0
    5.0525    0.2095    0.0631 C   0  0  0  0  0  0  0  0  0  0  0  0
    2.5800    1.3008   -0.9603 C   0  0  0  0  0  0  0  0  0  0  0  0
    1.4117    1.5614   -1.6059 C   0  0  0  0  0  0  0  0  0  0  0  0
    0.2195    0.9050   -1.2552 C   0  0  0  0  0  0  0  0  0  0  0  0
   -0.9306    1.2274   -1.9627 O   0  0  0  0  0  0  0  0  0  0  0  0
   -1.3089    2.4126    0.1444 H   0  0  0  0  0  0  0  0  0  0  0  0
   -2.7794    2.9258   -0.6881 H   0  0  0  0  0  0  0  0  0  0  0  0
   -2.8908    1.7676    0.6455 H   0  0  0  0  0  0  0  0  0  0  0  0
   -3.2608    0.3610   -3.0718 H   0  0  0  0  0  0  0  0  0  0  0  0
   -3.4039    2.1600   -2.6621 H   0  0  0  0  0  0  0  0  0  0  0  0
   -4.8702    1.7690   -0.9496 H   0  0  0  0  0  0  0  0  0  0  0  0
   -5.3978    0.6396   -2.2204 H   0  0  0  0  0  0  0  0  0  0  0  0
   -4.6807    0.1092    0.5594 H   0  0  0  0  0  0  0  0  0  0  0  0
   -5.2808   -1.0007   -0.6765 H   0  0  0  0  0  0  0  0  0  0  0  0
   -1.8174   -1.0129   -1.7854 H   0  0  0  0  0  0  0  0  0  0  0  0
   -1.0775    0.6769    1.7769 H   0  0  0  0  0  0  0  0  0  0  0  0
   -2.5995   -0.3859    1.6504 H   0  0  0  0  0  0  0  0  0  0  0  0
    0.5595   -4.4279    1.8866 H   0  0  0  0  0  0  0  0  0  0  0  0
   -0.9667   -4.8590    1.0661 H   0  0  0  0  0  0  0  0  0  0  0  0
    1.4237   -1.0004    1.2004 H   0  0  0  0  0  0  0  0  0  0  0  0
    2.9466   -0.3019    2.6033 H   0  0  0  0  0  0  0  0  0  0  0  0
    7.1135   -0.5609    2.5944 H   0  0  0  0  0  0  0  0  0  0  0  0
    5.0608    0.4740   -0.9838 H   0  0  0  0  0  0  0  0  0  0  0  0
    3.4982    1.8143   -1.2392 H   0  0  0  0  0  0  0  0  0  0  0  0
    1.4001    2.2961   -2.4134 H   0  0  0  0  0  0  0  0  0  0  0  0
  2  1  1  1
  2  3  1  0
  3  4  1  0
  4  5  1  0
  5  6  1  0
  6  7  1  0
  7  8  1  0
  8  9  1  1
  9 10  1  0
 10 11  1  0
 11 12  1  0
 11 13  2  0
  8 14  1  0
 14 15  2  0
 15 16  1  0
 16 17  1  0
 17 18  2  0
 18 19  1  0
 19 20  2  0
 20 21  1  0
 21 22  1  0
 21 23  2  0
 16 24  2  0
 24 25  1  0
 25 26  2  0
 26 27  1  0
  7  2  1  0
 13  8  1  0
 26 14  1  0
 27  2  1  0
 23 17  1  0
  1 28  1  0
  1 29  1  0
  1 30  1  0
  3 31  1  0
  3 32  1  0
  4 33  1  0
  4 34  1  0
  5 35  1  0
  5 36  1  0
  7 37  1  6
  9 38  1  0
  9 39  1  0
 12 40  1  0
 12 41  1  0
 15 42  1  0
 18 43  1  0
 20 44  1  0
 23 45  1  0
 24 46  1  0
 25 47  1  0
M  END
$$$$
