@<TRIPOS>MOLECULE
*****
 47 51 0 0 0
SMALL
GASTEIGER

@<TRIPOS>ATOM
      1 C          -2.2930    2.0163   -0.2235 C.3     1  UNL1       -0.0224
      2 C          -2.1648    0.9968   -1.2853 C.3     1  UNL1        0.1364
      3 C          -3.3382    1.1348   -2.2602 C.3     1  UNL1       -0.0085
      4 C          -4.5689    0.8157   -1.4729 C.3     1  UNL1       -0.0258
      5 C          -4.4371   -0.2691   -0.4789 C.3     1  UNL1        0.0484
      6 O          -3.2939   -0.9657   -0.4352 O.3     1  UNL1       -0.3698
      7 C          -2.1414   -0.4298   -0.8685 C.3     1  UNL1        0.1279
      8 C          -1.0290   -0.7307    0.1502 C.3     1  UNL1        0.1314
      9 C          -1.5306   -0.2722    1.5076 C.3     1  UNL1        0.0330
     10 S          -0.6753   -1.5425    2.5318 S.3     1  UNL1       -0.0883
     11 C          -0.5760   -2.7475    1.1950 C.2     1  UNL1        0.1477
     12 N          -0.3066   -4.1484    1.3997 N.pl3   1  UNL1       -0.3380
     13 N          -0.7822   -2.1095    0.1473 N.2     1  UNL1       -0.2485
     14 C           0.1979   -0.0199   -0.2498 C.ar    1  UNL1        0.0256
     15 C           1.3999   -0.2725    0.3974 C.ar    1  UNL1       -0.0449
     16 C           2.5705    0.3664    0.0593 C.ar    1  UNL1       -0.0158
     17 C           3.8401    0.1178    0.7249 C.ar    1  UNL1        0.0016
     18 C           3.8664   -0.2209    2.0554 C.ar    1  UNL1        0.0353
     19 N           5.0355   -0.4568    2.6974 N.ar    1  UNL1       -0.2612
     20 C           6.2031   -0.3682    2.0588 C.ar    1  UNL1        0.0459
     21 C           6.2438   -0.0345    0.7316 C.ar    1  UNL1        0.0596
     22 CL          7.7786    0.0795   -0.0982 Cl      1  UNL1       -0.0820
     23 C           5.0525    0.2095    0.0631 C.ar    1  UNL1       -0.0327
     24 C           2.5800    1.3008   -0.9603 C.ar    1  UNL1       -0.0505
     25 C           1.4117    1.5614   -1.6059 C.ar    1  UNL1       -0.0190
     26 C           0.2195    0.9050   -1.2552 C.ar    1  UNL1        0.1270
     27 O          -0.9306    1.2274   -1.9627 O.3     1  UNL1       -0.4829
     28 H          -1.3089    2.4126    0.1444 H       1  UNL1        0.0269
     29 H          -2.7794    2.9258   -0.6881 H       1  UNL1        0.0269
     30 H          -2.8908    1.7676    0.6455 H       1  UNL1        0.0269
     31 H          -3.2608    0.3610   -3.0718 H       1  UNL1        0.0305
     32 H          -3.4039    2.1600   -2.6621 H       1  UNL1        0.0305
     33 H          -4.8702    1.7690   -0.9496 H       1  UNL1        0.0289
     34 H          -5.3978    0.6396   -2.2204 H       1  UNL1        0.0289
     35 H          -4.6807    0.1092    0.5594 H       1  UNL1        0.0560
     36 H          -5.2808   -1.0007   -0.6765 H       1  UNL1        0.0560
     37 H          -1.8174   -1.0129   -1.7854 H       1  UNL1        0.0664
     38 H          -1.0775    0.6769    1.7769 H       1  UNL1        0.0408
     39 H          -2.5995   -0.3859    1.6504 H       1  UNL1        0.0408
     40 H           0.5595   -4.4279    1.8866 H       1  UNL1        0.1442
     41 H          -0.9667   -4.8590    1.0661 H       1  UNL1        0.1442
     42 H           1.4237   -1.0004    1.2004 H       1  UNL1        0.0628
     43 H           2.9466   -0.3019    2.6033 H       1  UNL1        0.0836
     44 H           7.1135   -0.5609    2.5944 H       1  UNL1        0.0844
     45 H           5.0608    0.4740   -0.9838 H       1  UNL1        0.0639
     46 H           3.4982    1.8143   -1.2392 H       1  UNL1        0.0625
     47 H           1.4001    2.2961   -2.4134 H       1  UNL1        0.0654
@<TRIPOS>BOND
     1     2     1    1
     2     2     3    1
     3     3     4    1
     4     4     5    1
     5     5     6    1
     6     6     7    1
     7     7     8    1
     8     8     9    1
     9     9    10    1
    10    10    11    1
    11    11    12    1
    12    11    13    2
    13     8    14    1
    14    14    15   ar
    15    15    16   ar
    16    16    17    1
    17    17    18   ar
    18    18    19   ar
    19    19    20   ar
    20    20    21   ar
    21    21    22    1
    22    21    23   ar
    23    16    24   ar
    24    24    25   ar
    25    25    26   ar
    26    26    27    1
    27     7     2    1
    28    13     8    1
    29    26    14   ar
    30    27     2    1
    31    23    17   ar
    32     1    28    1
    33     1    29    1
    34     1    30    1
    35     3    31    1
    36     3    32    1
    37     4    33    1
    38     4    34    1
    39     5    35    1
    40     5    36    1
    41     7    37    1
    42     9    38    1
    43     9    39    1
    44    12    40    1
    45    12    41    1
    46    15    42    1
    47    18    43    1
    48    20    44    1
    49    23    45    1
    50    24    46    1
    51    25    47    1
