@<TRIPOS>MOLECULE
*****
 49 52 0 0 0
SMALL
GASTEIGER

@<TRIPOS>ATOM
      1 C           1.9705    0.7717    0.4647 C.3     1  UNL1       -0.0255
      2 C           2.9517    1.6591   -0.2039 C.3     1  UNL1       -0.0424
      3 C           4.2910    1.0910    0.2564 C.3     1  UNL1        0.0067
      4 C           3.9738   -0.2717    0.8093 C.2     1  UNL1        0.1395
      5 O           4.7369   -0.8828    1.5268 O.2     1  UNL1       -0.2968
      6 C           2.6365   -0.5757    0.2757 C.3     1  UNL1        0.0293
      7 C           2.7720   -0.9439   -1.1795 C.3     1  UNL1       -0.0526
      8 C           1.8442   -1.5493    1.0646 C.3     1  UNL1       -0.0404
      9 C           0.4827   -1.6597    0.4102 C.3     1  UNL1       -0.0486
     10 C          -0.2304   -0.3374    0.4332 C.3     1  UNL1       -0.0322
     11 C           0.5789    0.8177   -0.0868 C.3     1  UNL1       -0.0340
     12 C          -0.0666    2.0655    0.5009 C.3     1  UNL1       -0.0494
     13 C          -1.5138    1.8221    0.8275 C.3     1  UNL1       -0.0491
     14 C          -2.1618    0.9409   -0.2494 C.3     1  UNL1       -0.0287
     15 C          -3.6256    1.0232   -0.0719 C.3     1  UNL1        0.0092
     16 C          -4.3766   -0.2174   -0.3461 C.2     1  UNL1        0.1337
     17 O          -5.5090   -0.2040   -0.8003 O.2     1  UNL1       -0.2974
     18 C          -3.8075   -1.5432   -0.0894 C.3     1  UNL1        0.0063
     19 C          -2.3969   -1.4706    0.4695 C.3     1  UNL1       -0.0404
     20 C          -1.5609   -0.4374   -0.2382 C.3     1  UNL1       -0.0254
     21 C          -1.4628   -0.8846   -1.6859 C.3     1  UNL1       -0.0590
     22 H           1.9491    0.9920    1.5395 H       1  UNL1        0.0313
     23 H           2.8684    2.7396    0.0603 H       1  UNL1        0.0272
     24 H           2.8402    1.6030   -1.3151 H       1  UNL1        0.0272
     25 H           4.7463    1.7591    1.0023 H       1  UNL1        0.0342
     26 H           4.9716    0.8871   -0.6016 H       1  UNL1        0.0342
     27 H           3.1237   -1.9881   -1.2283 H       1  UNL1        0.0239
     28 H           1.8289   -0.8370   -1.7584 H       1  UNL1        0.0239
     29 H           3.6057   -0.3141   -1.5976 H       1  UNL1        0.0239
     30 H           1.7239   -1.1295    2.0860 H       1  UNL1        0.0275
     31 H           2.2936   -2.5653    1.1122 H       1  UNL1        0.0275
     32 H          -0.0874   -2.3476    1.0716 H       1  UNL1        0.0268
     33 H           0.6575   -2.0524   -0.5993 H       1  UNL1        0.0268
     34 H          -0.4340   -0.1285    1.5072 H       1  UNL1        0.0309
     35 H           0.5224    0.8438   -1.1785 H       1  UNL1        0.0307
     36 H           0.0866    2.9628   -0.1524 H       1  UNL1        0.0268
     37 H           0.4182    2.3322    1.4824 H       1  UNL1        0.0268
     38 H          -2.0276    2.8157    0.7699 H       1  UNL1        0.0268
     39 H          -1.7032    1.4538    1.8405 H       1  UNL1        0.0268
     40 H          -1.8852    1.4503   -1.2091 H       1  UNL1        0.0310
     41 H          -3.8887    1.3787    0.9662 H       1  UNL1        0.0344
     42 H          -4.0579    1.8187   -0.7315 H       1  UNL1        0.0344
     43 H          -3.8269   -2.1835   -1.0055 H       1  UNL1        0.0342
     44 H          -4.4026   -2.0575    0.7187 H       1  UNL1        0.0342
     45 H          -1.9363   -2.4587    0.2168 H       1  UNL1        0.0275
     46 H          -2.4064   -1.2555    1.5564 H       1  UNL1        0.0275
     47 H          -2.5144   -1.0084   -2.0425 H       1  UNL1        0.0235
     48 H          -0.9684   -1.8512   -1.8148 H       1  UNL1        0.0235
     49 H          -1.0233   -0.0731   -2.3032 H       1  UNL1        0.0235
@<TRIPOS>BOND
     1     1     2    1
     2     2     3    1
     3     3     4    1
     4     4     5    2
     5     4     6    1
     6     6     7    1
     7     6     8    1
     8     8     9    1
     9     9    10    1
    10    10    11    1
    11    11    12    1
    12    12    13    1
    13    13    14    1
    14    14    15    1
    15    15    16    1
    16    16    17    2
    17    16    18    1
    18    18    19    1
    19    19    20    1
    20    20    21    1
    21     6     1    1
    22    20    10    1
    23    11     1    1
    24    20    14    1
    25     1    22    1
    26     2    23    1
    27     2    24    1
    28     3    25    1
    29     3    26    1
    30     7    27    1
    31     7    28    1
    32     7    29    1
    33     8    30    1
    34     8    31    1
    35     9    32    1
    36     9    33    1
    37    10    34    1
    38    11    35    1
    39    12    36    1
    40    12    37    1
    41    13    38    1
    42    13    39    1
    43    14    40    1
    44    15    41    1
    45    15    42    1
    46    18    43    1
    47    18    44    1
    48    19    45    1
    49    19    46    1
    50    21    47    1
    51    21    48    1
    52    21    49    1
