@<TRIPOS>MOLECULE
*****
 43 46 0 0 0
SMALL
GASTEIGER

@<TRIPOS>ATOM
      1 C          -0.7828   -3.2885    1.6815 C.3     1  UNL1       -0.0372
      2 C          -1.8975   -3.0180    0.7163 C.3     1  UNL1        0.0716
      3 C          -1.2473   -2.6958   -0.6408 C.3     1  UNL1        0.0402
      4 N          -0.9120   -1.3035   -0.5714 N.pl3   1  UNL1       -0.3034
      5 C           0.4286   -0.8529   -0.5757 C.ar    1  UNL1        0.1242
      6 C           1.4997   -1.7137   -0.5011 C.ar    1  UNL1       -0.0181
      7 C           2.8216   -1.2809   -0.5110 C.ar    1  UNL1       -0.0132
      8 C           3.0118    0.0912   -0.6017 C.ar    1  UNL1        0.1612
      9 C           1.9495    0.9637   -0.6768 C.ar    1  UNL1        0.1692
     10 N           0.7049    0.4861   -0.6627 N.ar    1  UNL1       -0.2134
     11 N           2.1800    2.3632   -0.7687 N.am    1  UNL1       -0.2646
     12 C           3.5134    2.8347   -0.7810 C.2     1  UNL1        0.2560
     13 O           3.8081    4.0251   -0.4468 O.2     1  UNL1       -0.2717
     14 C           4.5721    1.8691   -1.2065 C.3     1  UNL1        0.1657
     15 O           4.2934    0.6236   -0.6190 O.3     1  UNL1       -0.4793
     16 C          -2.0306   -0.3822   -0.4920 C.3     1  UNL1        0.0734
     17 C          -1.7447    0.8570    0.2377 C.ar    1  UNL1       -0.0249
     18 C          -2.1448    2.0633   -0.3031 C.ar    1  UNL1       -0.0567
     19 C          -1.9174    3.2761    0.3199 C.ar    1  UNL1       -0.0614
     20 C          -1.2615    3.2692    1.5344 C.ar    1  UNL1       -0.0617
     21 C          -0.8635    2.0655    2.0717 C.ar    1  UNL1       -0.0614
     22 C          -1.0933    0.8576    1.4451 C.ar    1  UNL1       -0.0567
     23 C          -3.1675   -1.1725    0.1283 C.3     1  UNL1        0.0707
     24 O          -2.6474   -1.9396    1.1667 O.3     1  UNL1       -0.3731
     25 H          -1.1529   -3.9610    2.5094 H       1  UNL1        0.0255
     26 H          -0.0318   -3.9266    1.1377 H       1  UNL1        0.0255
     27 H          -0.3340   -2.4039    2.1351 H       1  UNL1        0.0255
     28 H          -2.5272   -3.9216    0.6532 H       1  UNL1        0.0609
     29 H          -0.4363   -3.3975   -0.7813 H       1  UNL1        0.0490
     30 H          -2.0497   -2.8740   -1.4293 H       1  UNL1        0.0490
     31 H           1.3872   -2.7835   -0.4264 H       1  UNL1        0.0653
     32 H           3.6548   -1.9641   -0.4522 H       1  UNL1        0.0656
     33 H           1.3797    3.0600   -0.8279 H       1  UNL1        0.1564
     34 H           4.4446    1.7607   -2.3226 H       1  UNL1        0.0795
     35 H           5.5790    2.1949   -0.9387 H       1  UNL1        0.0795
     36 H          -2.3455   -0.1587   -1.5384 H       1  UNL1        0.0573
     37 H          -2.6673    2.1161   -1.2627 H       1  UNL1        0.0621
     38 H          -2.2508    4.2163   -0.1415 H       1  UNL1        0.0618
     39 H          -1.0905    4.2175    2.0090 H       1  UNL1        0.0618
     40 H          -0.3495    2.0981    3.0297 H       1  UNL1        0.0618
     41 H          -0.7540   -0.0539    1.9223 H       1  UNL1        0.0621
     42 H          -3.6668   -1.7723   -0.6419 H       1  UNL1        0.0582
     43 H          -3.8614   -0.4443    0.5899 H       1  UNL1        0.0582
@<TRIPOS>BOND
     1     1     2    1
     2     2     3    1
     3     3     4    1
     4     4     5    1
     5     5     6   ar
     6     6     7   ar
     7     7     8   ar
     8     8     9   ar
     9     9    10   ar
    10     9    11    1
    11    11    12   am
    12    12    13    2
    13    12    14    1
    14    14    15    1
    15     4    16    1
    16    16    17    1
    17    17    18   ar
    18    18    19   ar
    19    19    20   ar
    20    20    21   ar
    21    21    22   ar
    22    16    23    1
    23    23    24    1
    24    24     2    1
    25    10     5   ar
    26    22    17   ar
    27    15     8    1
    28     1    25    1
    29     1    26    1
    30     1    27    1
    31     2    28    1
    32     3    29    1
    33     3    30    1
    34     6    31    1
    35     7    32    1
    36    11    33    1
    37    14    34    1
    38    14    35    1
    39    16    36    1
    40    18    37    1
    41    19    38    1
    42    20    39    1
    43    21    40    1
    44    22    41    1
    45    23    42    1
    46    23    43    1
