
     RDKit          3D

 43 46  0  0  0  0  0  0  0  0999 V2000
   -0.7828   -3.2885    1.6815 C   0  0  0  0  0  0  0  0  0  0  0  0
   -1.8975   -3.0180    0.7163 C   0  0  2  0  0  0  0  0  0  0  0  0
   -1.2473   -2.6958   -0.6408 C   0  0  0  0  0  0  0  0  0  0  0  0
   -0.9120   -1.3035   -0.5714 N   0  0  0  0  0  0  0  0  0  0  0  0
    0.4286   -0.8529   -0.5757 C   0  0  0  0  0  0  0  0  0  0  0  0
    1.4997   -1.7137   -0.5011 C   0  0  0  0  0  0  0  0  0  0  0  0
    2.8216   -1.2809   -0.5110 C   0  0  0  0  0  0  0  0  0  0  0  0
    3.0118    0.0912   -0.6017 C   0  0  0  0  0  0  0  0  0  0  0  0
    1.9495    0.9637   -0.6768 C   0  0  0  0  0  0  0  0  0  0  0  0
    0.7049    0.4861   -0.6627 N   0  0  0  0  0  0  0  0  0  0  0  0
    2.1800    2.3632   -0.7687 N   0  0  0  0  0  0  0  0  0  0  0  0
    3.5134    2.8347   -0.7810 C   0  0  0  0  0  0  0  0  0  0  0  0
    3.8081    4.0251   -0.4468 O   0  0  0  0  0  0  0  0  0  0  0  0
    4.5721    1.8691   -1.2065 C   0  0  0  0  0  0  0  0  0  0  0  0
    4.2934    0.6236   -0.6190 O   0  0  0  0  0  0  0  0  0  0  0  0
   -2.0306   -0.3822   -0.4920 C   0  0  2  0  0  0  0  0  0  0  0  0
   -1.7447    0.8570    0.2377 C   0  0  0  0  0  0  0  0  0  0  0  0
   -2.1448    2.0633   -0.3031 C   0  0  0  0  0  0  0  0  0  0  0  0
   -1.9174    3.2761    0.3199 C   0  0  0  0  0  0  0  0  0  0  0  0
   -1.2615    3.2692    1.5344 C   0  0  0  0  0  0  0  0  0  0  0  0
   -0.8635    2.0655    2.0717 C   0  0  0  0  0  0  0  0  0  0  0  0
   -1.0933    0.8576    1.4451 C   0  0  0  0  0  0  0  0  0  0  0  0
   -3.1675   -1.1725    0.1283 C   0  0  0  0  0  0  0  0  0  0  0  0
   -2.6474   -1.9396    1.1667 O   0  0  0  0  0  0  0  0  0  0  0  0
   -1.1529   -3.9610    2.5094 H   0  0  0  0  0  0  0  0  0  0  0  0
   -0.0318   -3.9266    1.1377 H   0  0  0  0  0  0  0  0  0  0  0  0
   -0.3340   -2.4039    2.1351 H   0  0  0  0  0  0  0  0  0  0  0  0
   -2.5272   -3.9216    0.6532 H   0  0  0  0  0  0  0  0  0  0  0  0
   -0.4363   -3.3975   -0.7813 H   0  0  0  0  0  0  0  0  0  0  0  0
   -2.0497   -2.8740   -1.4293 H   0  0  0  0  0  0  0  0  0  0  0  0
    1.3872   -2.7835   -0.4264 H   0  0  0  0  0  0  0  0  0  0  0  0
    3.6548   -1.9641   -0.4522 H   0  0  0  0  0  0  0  0  0  0  0  0
    1.3797    3.0600   -0.8279 H   0  0  0  0  0  0  0  0  0  0  0  0
    4.4446    1.7607   -2.3226 H   0  0  0  0  0  0  0  0  0  0  0  0
    5.5790    2.1949   -0.9387 H   0  0  0  0  0  0  0  0  0  0  0  0
   -2.3455   -0.1587   -1.5384 H   0  0  0  0  0  0  0  0  0  0  0  0
   -2.6673    2.1161   -1.2627 H   0  0  0  0  0  0  0  0  0  0  0  0
   -2.2508    4.2163   -0.1415 H   0  0  0  0  0  0  0  0  0  0  0  0
   -1.0905    4.2175    2.0090 H   0  0  0  0  0  0  0  0  0  0  0  0
   -0.3495    2.0981    3.0297 H   0  0  0  0  0  0  0  0  0  0  0  0
   -0.7540   -0.0539    1.9223 H   0  0  0  0  0  0  0  0  0  0  0  0
   -3.6668   -1.7723   -0.6419 H   0  0  0  0  0  0  0  0  0  0  0  0
   -3.8614   -0.4443    0.5899 H   0  0  0  0  0  0  0  0  0  0  0  0
  1  2  1  0
  2  3  1  0
  3  4  1  0
  4  5  1  0
  5  6  2  0
  6  7  1  0
  7  8  2  0
  8  9  1  0
  9 10  2  0
  9 11  1  0
 11 12  1  0
 12 13  2  0
 12 14  1  0
 14 15  1  0
  4 16  1  0
 16 17  1  0
 17 18  2  0
 18 19  1  0
 19 20  2  0
 20 21  1  0
 21 22  2  0
 16 23  1  0
 23 24  1  0
 24  2  1  0
 10  5  1  0
 22 17  1  0
 15  8  1  0
  1 25  1  0
  1 26  1  0
  1 27  1  0
  2 28  1  6
  3 29  1  0
  3 30  1  0
  6 31  1  0
  7 32  1  0
 11 33  1  0
 14 34  1  0
 14 35  1  0
 16 36  1  6
 18 37  1  0
 19 38  1  0
 20 39  1  0
 21 40  1  0
 22 41  1  0
 23 42  1  0
 23 43  1  0
M  END
$$$$
