@<TRIPOS>MOLECULE
*****
 63 66 0 0 0
SMALL
GASTEIGER

@<TRIPOS>ATOM
      1 C          -4.4152    3.7026   -1.7178 C.3     1  UNL1       -0.0584
      2 C          -3.4343    2.6525   -2.1936 C.3     1  UNL1        0.0028
      3 C          -3.7185    1.3660   -1.4725 C.ar    1  UNL1        0.1119
      4 N          -4.5797    0.4012   -1.9171 N.ar    1  UNL1       -0.2304
      5 C          -4.6216   -0.6052   -1.0395 C.ar    1  UNL1        0.1111
      6 C          -5.3103   -1.8123   -0.9749 C.ar    1  UNL1       -0.0198
      7 C          -6.2153   -2.1313   -2.0942 C.3     1  UNL1       -0.0375
      8 C          -5.1120   -2.6178    0.1022 C.ar    1  UNL1       -0.0356
      9 C          -4.2579   -2.2900    1.1331 C.ar    1  UNL1        0.0409
     10 C          -4.0794   -3.2229    2.3007 C.3     1  UNL1       -0.0223
     11 N          -3.6028   -1.1237    1.0540 N.ar    1  UNL1       -0.2326
     12 C          -3.7739   -0.2888   -0.0088 C.ar    1  UNL1        0.1612
     13 N          -3.2409    0.9331   -0.3206 N.ar    1  UNL1       -0.3081
     14 C          -2.2884    1.5938    0.5698 C.3     1  UNL1        0.0513
     15 C          -0.8871    1.2145    0.2581 C.ar    1  UNL1       -0.0273
     16 C          -0.0434    2.0234   -0.4919 C.ar    1  UNL1       -0.0551
     17 C           1.2605    1.6531   -0.7819 C.ar    1  UNL1       -0.0401
     18 C           1.7679    0.4731   -0.3384 C.ar    1  UNL1        0.0333
     19 N           3.1071    0.1242   -0.6636 N.pl3   1  UNL1       -0.3162
     20 C           3.3270   -1.0273   -1.4934 C.3     1  UNL1        0.0018
     21 C           4.1873    0.9192   -0.1649 C.3     1  UNL1        0.1462
     22 C           5.0304    1.4737   -1.2845 C.2     1  UNL1        0.3300
     23 O           6.0649    2.1388   -1.0489 O.2     1  UNL1       -0.2485
     24 O           4.6810    1.2621   -2.6046 O.3     1  UNL1       -0.4791
     25 C           5.0690    0.2728    0.8147 C.ar    1  UNL1       -0.0164
     26 C           5.6396   -0.9535    0.6640 C.ar    1  UNL1       -0.0563
     27 C           6.4636   -1.5315    1.6225 C.ar    1  UNL1       -0.0614
     28 C           6.7378   -0.8629    2.7893 C.ar    1  UNL1       -0.0617
     29 C           6.1751    0.3802    2.9704 C.ar    1  UNL1       -0.0614
     30 C           5.3608    0.9398    2.0122 C.ar    1  UNL1       -0.0563
     31 C           0.9674   -0.3431    0.4007 C.ar    1  UNL1       -0.0291
     32 C           1.4469   -1.6491    0.9331 C.3     1  UNL1       -0.0379
     33 C          -0.3383    0.0196    0.6951 C.ar    1  UNL1       -0.0522
     34 H          -4.9055    3.3707   -0.7752 H       1  UNL1        0.0234
     35 H          -3.8905    4.6613   -1.4484 H       1  UNL1        0.0234
     36 H          -5.2032    3.9100   -2.4742 H       1  UNL1        0.0234
     37 H          -3.4973    2.4978   -3.2924 H       1  UNL1        0.0340
     38 H          -2.4302    2.9931   -1.9797 H       1  UNL1        0.0340
     39 H          -7.1960   -1.6744   -1.8959 H       1  UNL1        0.0278
     40 H          -6.3186   -3.2414   -2.2083 H       1  UNL1        0.0278
     41 H          -5.8323   -1.7218   -3.0484 H       1  UNL1        0.0278
     42 H          -5.6397   -3.5632    0.1711 H       1  UNL1        0.0639
     43 H          -3.1822   -2.9439    2.8662 H       1  UNL1        0.0292
     44 H          -4.0109   -4.2428    1.8806 H       1  UNL1        0.0292
     45 H          -5.0077   -3.2066    2.9261 H       1  UNL1        0.0292
     46 H          -2.5376    1.3387    1.6195 H       1  UNL1        0.0542
     47 H          -2.4219    2.6888    0.4485 H       1  UNL1        0.0542
     48 H          -0.4457    2.9684   -0.8302 H       1  UNL1        0.0621
     49 H           1.8662    2.3411   -1.3786 H       1  UNL1        0.0636
     50 H           4.2287   -0.9398   -2.1445 H       1  UNL1        0.0428
     51 H           3.2736   -1.9858   -0.9589 H       1  UNL1        0.0428
     52 H           2.4642   -1.0183   -2.2397 H       1  UNL1        0.0428
     53 H           3.7675    1.8581    0.3107 H       1  UNL1        0.0667
     54 H           4.8760    1.9855   -3.2973 H       1  UNL1        0.2951
     55 H           5.4611   -1.5159   -0.2367 H       1  UNL1        0.0621
     56 H           6.8865   -2.5193    1.4337 H       1  UNL1        0.0618
     57 H           7.3840   -1.2913    3.5654 H       1  UNL1        0.0618
     58 H           6.3958    0.8976    3.8888 H       1  UNL1        0.0618
     59 H           4.9398    1.9108    2.1881 H       1  UNL1        0.0621
     60 H           0.8243   -1.9276    1.8301 H       1  UNL1        0.0278
     61 H           1.2230   -2.4232    0.1700 H       1  UNL1        0.0278
     62 H           2.4911   -1.6335    1.2580 H       1  UNL1        0.0278
     63 H          -0.9297   -0.6575    1.2895 H       1  UNL1        0.0624
@<TRIPOS>BOND
     1     1     2    1
     2     2     3    1
     3     3     4   ar
     4     4     5   ar
     5     5     6   ar
     6     6     7    1
     7     6     8   ar
     8     8     9   ar
     9     9    10    1
    10     9    11   ar
    11    11    12   ar
    12    12    13   ar
    13    13    14    1
    14    14    15    1
    15    15    16   ar
    16    16    17   ar
    17    17    18   ar
    18    18    19    1
    19    19    20    1
    20    19    21    1
    21    21    22    1
    22    22    23    2
    23    22    24    1
    24    21    25    1
    25    25    26   ar
    26    26    27   ar
    27    27    28   ar
    28    28    29   ar
    29    29    30   ar
    30    18    31   ar
    31    31    32    1
    32    31    33   ar
    33    13     3   ar
    34    33    15   ar
    35    12     5   ar
    36    30    25   ar
    37     1    34    1
    38     1    35    1
    39     1    36    1
    40     2    37    1
    41     2    38    1
    42     7    39    1
    43     7    40    1
    44     7    41    1
    45     8    42    1
    46    10    43    1
    47    10    44    1
    48    10    45    1
    49    14    46    1
    50    14    47    1
    51    16    48    1
    52    17    49    1
    53    20    50    1
    54    20    51    1
    55    20    52    1
    56    21    53    1
    57    24    54    1
    58    26    55    1
    59    27    56    1
    60    28    57    1
    61    29    58    1
    62    30    59    1
    63    32    60    1
    64    32    61    1
    65    32    62    1
    66    33    63    1
