
     RDKit          3D

 63 66  0  0  0  0  0  0  0  0999 V2000
   -4.4152    3.7026   -1.7178 C   0  0  0  0  0  0  0  0  0  0  0  0
   -3.4343    2.6525   -2.1936 C   0  0  0  0  0  0  0  0  0  0  0  0
   -3.7185    1.3660   -1.4725 C   0  0  0  0  0  0  0  0  0  0  0  0
   -4.5797    0.4012   -1.9171 N   0  0  0  0  0  0  0  0  0  0  0  0
   -4.6216   -0.6052   -1.0395 C   0  0  0  0  0  0  0  0  0  0  0  0
   -5.3103   -1.8123   -0.9749 C   0  0  0  0  0  0  0  0  0  0  0  0
   -6.2153   -2.1313   -2.0942 C   0  0  0  0  0  0  0  0  0  0  0  0
   -5.1120   -2.6178    0.1022 C   0  0  0  0  0  0  0  0  0  0  0  0
   -4.2579   -2.2900    1.1331 C   0  0  0  0  0  0  0  0  0  0  0  0
   -4.0794   -3.2229    2.3007 C   0  0  0  0  0  0  0  0  0  0  0  0
   -3.6028   -1.1237    1.0540 N   0  0  0  0  0  0  0  0  0  0  0  0
   -3.7739   -0.2888   -0.0088 C   0  0  0  0  0  0  0  0  0  0  0  0
   -3.2409    0.9331   -0.3206 N   0  0  0  0  0  0  0  0  0  0  0  0
   -2.2884    1.5938    0.5698 C   0  0  0  0  0  0  0  0  0  0  0  0
   -0.8871    1.2145    0.2581 C   0  0  0  0  0  0  0  0  0  0  0  0
   -0.0434    2.0234   -0.4919 C   0  0  0  0  0  0  0  0  0  0  0  0
    1.2605    1.6531   -0.7819 C   0  0  0  0  0  0  0  0  0  0  0  0
    1.7679    0.4731   -0.3384 C   0  0  0  0  0  0  0  0  0  0  0  0
    3.1071    0.1242   -0.6636 N   0  0  0  0  0  0  0  0  0  0  0  0
    3.3270   -1.0273   -1.4934 C   0  0  0  0  0  0  0  0  0  0  0  0
    4.1873    0.9192   -0.1649 C   0  0  0  0  0  0  0  0  0  0  0  0
    5.0304    1.4737   -1.2845 C   0  0  0  0  0  0  0  0  0  0  0  0
    6.0649    2.1388   -1.0489 O   0  0  0  0  0  0  0  0  0  0  0  0
    4.6810    1.2621   -2.6046 O   0  0  0  0  0  0  0  0  0  0  0  0
    5.0690    0.2728    0.8147 C   0  0  0  0  0  0  0  0  0  0  0  0
    5.6396   -0.9535    0.6640 C   0  0  0  0  0  0  0  0  0  0  0  0
    6.4636   -1.5315    1.6225 C   0  0  0  0  0  0  0  0  0  0  0  0
    6.7378   -0.8629    2.7893 C   0  0  0  0  0  0  0  0  0  0  0  0
    6.1751    0.3802    2.9704 C   0  0  0  0  0  0  0  0  0  0  0  0
    5.3608    0.9398    2.0122 C   0  0  0  0  0  0  0  0  0  0  0  0
    0.9674   -0.3431    0.4007 C   0  0  0  0  0  0  0  0  0  0  0  0
    1.4469   -1.6491    0.9331 C   0  0  0  0  0  0  0  0  0  0  0  0
   -0.3383    0.0196    0.6951 C   0  0  0  0  0  0  0  0  0  0  0  0
   -4.9055    3.3707   -0.7752 H   0  0  0  0  0  0  0  0  0  0  0  0
   -3.8905    4.6613   -1.4484 H   0  0  0  0  0  0  0  0  0  0  0  0
   -5.2032    3.9100   -2.4742 H   0  0  0  0  0  0  0  0  0  0  0  0
   -3.4973    2.4978   -3.2924 H   0  0  0  0  0  0  0  0  0  0  0  0
   -2.4302    2.9931   -1.9797 H   0  0  0  0  0  0  0  0  0  0  0  0
   -7.1960   -1.6744   -1.8959 H   0  0  0  0  0  0  0  0  0  0  0  0
   -6.3186   -3.2414   -2.2083 H   0  0  0  0  0  0  0  0  0  0  0  0
   -5.8323   -1.7218   -3.0484 H   0  0  0  0  0  0  0  0  0  0  0  0
   -5.6397   -3.5632    0.1711 H   0  0  0  0  0  0  0  0  0  0  0  0
   -3.1822   -2.9439    2.8662 H   0  0  0  0  0  0  0  0  0  0  0  0
   -4.0109   -4.2428    1.8806 H   0  0  0  0  0  0  0  0  0  0  0  0
   -5.0077   -3.2066    2.9261 H   0  0  0  0  0  0  0  0  0  0  0  0
   -2.5376    1.3387    1.6195 H   0  0  0  0  0  0  0  0  0  0  0  0
   -2.4219    2.6888    0.4485 H   0  0  0  0  0  0  0  0  0  0  0  0
   -0.4457    2.9684   -0.8302 H   0  0  0  0  0  0  0  0  0  0  0  0
    1.8662    2.3411   -1.3786 H   0  0  0  0  0  0  0  0  0  0  0  0
    4.2287   -0.9398   -2.1445 H   0  0  0  0  0  0  0  0  0  0  0  0
    3.2736   -1.9858   -0.9589 H   0  0  0  0  0  0  0  0  0  0  0  0
    2.4642   -1.0183   -2.2397 H   0  0  0  0  0  0  0  0  0  0  0  0
    3.7675    1.8581    0.3107 H   0  0  0  0  0  0  0  0  0  0  0  0
    4.8760    1.9855   -3.2973 H   0  0  0  0  0  0  0  0  0  0  0  0
    5.4611   -1.5159   -0.2367 H   0  0  0  0  0  0  0  0  0  0  0  0
    6.8865   -2.5193    1.4337 H   0  0  0  0  0  0  0  0  0  0  0  0
    7.3840   -1.2913    3.5654 H   0  0  0  0  0  0  0  0  0  0  0  0
    6.3958    0.8976    3.8888 H   0  0  0  0  0  0  0  0  0  0  0  0
    4.9398    1.9108    2.1881 H   0  0  0  0  0  0  0  0  0  0  0  0
    0.8243   -1.9276    1.8301 H   0  0  0  0  0  0  0  0  0  0  0  0
    1.2230   -2.4232    0.1700 H   0  0  0  0  0  0  0  0  0  0  0  0
    2.4911   -1.6335    1.2580 H   0  0  0  0  0  0  0  0  0  0  0  0
   -0.9297   -0.6575    1.2895 H   0  0  0  0  0  0  0  0  0  0  0  0
  1  2  1  0
  2  3  1  0
  3  4  2  0
  4  5  1  0
  5  6  2  0
  6  7  1  0
  6  8  1  0
  8  9  2  0
  9 10  1  0
  9 11  1  0
 11 12  2  0
 12 13  1  0
 13 14  1  0
 14 15  1  0
 15 16  2  0
 16 17  1  0
 17 18  2  0
 18 19  1  0
 19 20  1  0
 19 21  1  0
 21 22  1  0
 22 23  2  0
 22 24  1  0
 21 25  1  0
 25 26  2  0
 26 27  1  0
 27 28  2  0
 28 29  1  0
 29 30  2  0
 18 31  1  0
 31 32  1  0
 31 33  2  0
 13  3  1  0
 33 15  1  0
 12  5  1  0
 30 25  1  0
  1 34  1  0
  1 35  1  0
  1 36  1  0
  2 37  1  0
  2 38  1  0
  7 39  1  0
  7 40  1  0
  7 41  1  0
  8 42  1  0
 10 43  1  0
 10 44  1  0
 10 45  1  0
 14 46  1  0
 14 47  1  0
 16 48  1  0
 17 49  1  0
 20 50  1  0
 20 51  1  0
 20 52  1  0
 21 53  1  0
 24 54  1  0
 26 55  1  0
 27 56  1  0
 28 57  1  0
 29 58  1  0
 30 59  1  0
 32 60  1  0
 32 61  1  0
 32 62  1  0
 33 63  1  0
M  END
$$$$
