@<TRIPOS>MOLECULE
*****
 30 32 0 0 0
SMALL
GASTEIGER

@<TRIPOS>ATOM
      1 N          -0.9171    3.4785   -0.2756 N.pl3   1  UNL1       -0.3275
      2 C          -1.4608    2.1750   -0.1226 C.ar    1  UNL1        0.2145
      3 N          -2.6196    1.8750    0.4591 N.ar    1  UNL1       -0.2133
      4 C          -2.8009    0.5431    0.4176 C.ar    1  UNL1        0.0927
      5 C          -3.8168   -0.2544    0.8716 C.ar    1  UNL1       -0.0341
      6 C          -3.7145   -1.6053    0.6771 C.ar    1  UNL1       -0.0596
      7 C          -2.6210   -2.1548    0.0421 C.ar    1  UNL1       -0.0596
      8 C          -1.6034   -1.3291   -0.4098 C.ar    1  UNL1       -0.0343
      9 C          -1.6685    0.0366   -0.2333 C.ar    1  UNL1        0.0939
     10 N          -0.8588    1.0525   -0.5565 N.ar    1  UNL1       -0.1790
     11 S           0.6576    0.9788   -1.3608 S.O2    1  UNL1        0.0869
     12 O           1.2087    2.3833   -1.5778 O.2     1  UNL1       -0.1475
     13 O           0.4951    0.4150   -2.7682 O.2     1  UNL1       -0.1475
     14 C           1.8562    0.0625   -0.4762 C.ar    1  UNL1        0.1112
     15 C           2.6151    0.6844    0.5108 C.ar    1  UNL1       -0.0335
     16 C           3.5754    0.0019    1.2277 C.ar    1  UNL1       -0.0415
     17 C           3.8299   -1.3345    0.9991 C.ar    1  UNL1        0.0411
     18 CL          5.0585   -2.1969    1.9203 Cl      1  UNL1       -0.0835
     19 C           3.0855   -1.9624    0.0242 C.ar    1  UNL1       -0.0415
     20 C           2.1213   -1.2723   -0.6939 C.ar    1  UNL1       -0.0335
     21 H          -0.8654    4.1328    0.5599 H       1  UNL1        0.1451
     22 H          -0.5523    3.8635   -1.1632 H       1  UNL1        0.1451
     23 H          -4.6732    0.1962    1.3709 H       1  UNL1        0.0639
     24 H          -4.4960   -2.2579    1.0222 H       1  UNL1        0.0618
     25 H          -2.5028   -3.2176   -0.1309 H       1  UNL1        0.0618
     26 H          -0.7379   -1.7322   -0.9108 H       1  UNL1        0.0639
     27 H           2.4034    1.7355    0.6790 H       1  UNL1        0.0638
     28 H           4.1429    0.5087    1.9809 H       1  UNL1        0.0633
     29 H           3.2862   -3.0141   -0.1552 H       1  UNL1        0.0633
     30 H           1.5734   -1.7920   -1.4391 H       1  UNL1        0.0638
@<TRIPOS>BOND
     1     1     2    1
     2     2     3   ar
     3     3     4   ar
     4     4     5   ar
     5     5     6   ar
     6     6     7   ar
     7     7     8   ar
     8     8     9   ar
     9     9    10   ar
    10    10    11    1
    11    11    12    2
    12    11    13    2
    13    11    14    1
    14    14    15   ar
    15    15    16   ar
    16    16    17   ar
    17    17    18    1
    18    17    19   ar
    19    19    20   ar
    20    10     2   ar
    21    20    14   ar
    22     9     4   ar
    23     1    21    1
    24     1    22    1
    25     5    23    1
    26     6    24    1
    27     7    25    1
    28     8    26    1
    29    15    27    1
    30    16    28    1
    31    19    29    1
    32    20    30    1
