@<TRIPOS>MOLECULE
*****
 33 35 0 0 0
SMALL
GASTEIGER

@<TRIPOS>ATOM
      1 C          -7.2353    2.3950    0.7437 C.1     1  UNL1       -0.1158
      2 C          -6.4036    1.7046    0.1870 C.1     1  UNL1       -0.0648
      3 C          -5.3467    0.8530   -0.5326 C.3     1  UNL1        0.1496
      4 O          -4.2654    0.6235    0.2282 O.3     1  UNL1       -0.4795
      5 C          -3.0772    0.0874    0.1788 C.ar    1  UNL1        0.1219
      6 C          -2.4877   -0.4972   -0.8603 C.ar    1  UNL1       -0.0192
      7 C          -1.1768   -0.9657   -0.8396 C.ar    1  UNL1       -0.0477
      8 C          -0.4668   -0.8095    0.3085 C.ar    1  UNL1        0.0176
      9 C           0.9982   -0.9596    0.3286 C.ar    1  UNL1        0.1414
     10 N           1.6551   -0.6618   -0.8748 N.ar    1  UNL1       -0.2290
     11 C           2.9756   -0.4625   -0.9200 C.ar    1  UNL1        0.0785
     12 C           3.6846   -0.1070   -2.0714 C.ar    1  UNL1       -0.0355
     13 C           4.9863    0.1221   -2.0054 C.ar    1  UNL1       -0.0597
     14 C           5.7868    0.0411   -0.8561 C.ar    1  UNL1       -0.0609
     15 C           5.0668   -0.3128    0.2928 C.ar    1  UNL1       -0.0474
     16 C           3.7403   -0.5537    0.2813 C.ar    1  UNL1        0.0647
     17 C           3.0482   -0.8509    1.4231 C.ar    1  UNL1        0.2595
     18 O           3.7411   -0.9493    2.4821 O.2     1  UNL1       -0.2671
     19 N           1.7222   -1.0494    1.4451 N.ar    1  UNL1       -0.3064
     20 C          -1.0454   -0.2344    1.3974 C.ar    1  UNL1       -0.0477
     21 C          -2.3391    0.2443    1.4630 C.ar    1  UNL1       -0.0192
     22 H          -7.9914    3.0243    1.2604 H       1  UNL1        0.1229
     23 H          -5.7782    0.1064   -1.1429 H       1  UNL1        0.0837
     24 H          -4.9588    1.7730   -1.2788 H       1  UNL1        0.0837
     25 H          -3.0856   -0.6763   -1.8118 H       1  UNL1        0.0654
     26 H          -0.7595   -1.3950   -1.7181 H       1  UNL1        0.0626
     27 H           3.0897   -0.0537   -3.0096 H       1  UNL1        0.0639
     28 H           5.5700    0.4082   -2.9172 H       1  UNL1        0.0618
     29 H           6.8096    0.2602   -0.8029 H       1  UNL1        0.0618
     30 H           5.6332   -0.3754    1.2074 H       1  UNL1        0.0626
     31 H           1.1815   -1.3439    2.3314 H       1  UNL1        0.1704
     32 H          -0.4260   -0.0704    2.3370 H       1  UNL1        0.0626
     33 H          -2.8456    0.6854    2.2572 H       1  UNL1        0.0654
@<TRIPOS>BOND
     1     1     2    3
     2     2     3    1
     3     3     4    1
     4     4     5    1
     5     5     6   ar
     6     6     7   ar
     7     7     8   ar
     8     8     9    1
     9     9    10   ar
    10    10    11   ar
    11    11    12   ar
    12    12    13   ar
    13    13    14   ar
    14    14    15   ar
    15    15    16   ar
    16    16    17   ar
    17    17    18    2
    18    17    19   ar
    19     8    20   ar
    20    20    21   ar
    21    21     5   ar
    22    19     9   ar
    23    16    11   ar
    24     1    22    1
    25     3    23    1
    26     3    24    1
    27     6    25    1
    28     7    26    1
    29    12    27    1
    30    13    28    1
    31    14    29    1
    32    15    30    1
    33    19    31    1
    34    20    32    1
    35    21    33    1
