
     RDKit          3D

 33 35  0  0  0  0  0  0  0  0999 V2000
   -7.2353    2.3950    0.7437 C   0  0  0  0  0  0  0  0  0  0  0  0
   -6.4036    1.7046    0.1870 C   0  0  0  0  0  0  0  0  0  0  0  0
   -5.3467    0.8530   -0.5326 C   0  0  0  0  0  0  0  0  0  0  0  0
   -4.2654    0.6235    0.2282 O   0  0  0  0  0  0  0  0  0  0  0  0
   -3.0772    0.0874    0.1788 C   0  0  0  0  0  0  0  0  0  0  0  0
   -2.4877   -0.4972   -0.8603 C   0  0  0  0  0  0  0  0  0  0  0  0
   -1.1768   -0.9657   -0.8396 C   0  0  0  0  0  0  0  0  0  0  0  0
   -0.4668   -0.8095    0.3085 C   0  0  0  0  0  0  0  0  0  0  0  0
    0.9982   -0.9596    0.3286 C   0  0  0  0  0  0  0  0  0  0  0  0
    1.6551   -0.6618   -0.8748 N   0  0  0  0  0  0  0  0  0  0  0  0
    2.9756   -0.4625   -0.9200 C   0  0  0  0  0  0  0  0  0  0  0  0
    3.6846   -0.1070   -2.0714 C   0  0  0  0  0  0  0  0  0  0  0  0
    4.9863    0.1221   -2.0054 C   0  0  0  0  0  0  0  0  0  0  0  0
    5.7868    0.0411   -0.8561 C   0  0  0  0  0  0  0  0  0  0  0  0
    5.0668   -0.3128    0.2928 C   0  0  0  0  0  0  0  0  0  0  0  0
    3.7403   -0.5537    0.2813 C   0  0  0  0  0  0  0  0  0  0  0  0
    3.0482   -0.8509    1.4231 C   0  0  0  0  0  0  0  0  0  0  0  0
    3.7411   -0.9493    2.4821 O   0  0  0  0  0  0  0  0  0  0  0  0
    1.7222   -1.0494    1.4451 N   0  0  0  0  0  0  0  0  0  0  0  0
   -1.0454   -0.2344    1.3974 C   0  0  0  0  0  0  0  0  0  0  0  0
   -2.3391    0.2443    1.4630 C   0  0  0  0  0  0  0  0  0  0  0  0
   -7.9914    3.0243    1.2604 H   0  0  0  0  0  0  0  0  0  0  0  0
   -5.7782    0.1064   -1.1429 H   0  0  0  0  0  0  0  0  0  0  0  0
   -4.9588    1.7730   -1.2788 H   0  0  0  0  0  0  0  0  0  0  0  0
   -3.0856   -0.6763   -1.8118 H   0  0  0  0  0  0  0  0  0  0  0  0
   -0.7595   -1.3950   -1.7181 H   0  0  0  0  0  0  0  0  0  0  0  0
    3.0897   -0.0537   -3.0096 H   0  0  0  0  0  0  0  0  0  0  0  0
    5.5700    0.4082   -2.9172 H   0  0  0  0  0  0  0  0  0  0  0  0
    6.8096    0.2602   -0.8029 H   0  0  0  0  0  0  0  0  0  0  0  0
    5.6332   -0.3754    1.2074 H   0  0  0  0  0  0  0  0  0  0  0  0
    1.1815   -1.3439    2.3314 H   0  0  0  0  0  0  0  0  0  0  0  0
   -0.4260   -0.0704    2.3370 H   0  0  0  0  0  0  0  0  0  0  0  0
   -2.8456    0.6854    2.2572 H   0  0  0  0  0  0  0  0  0  0  0  0
  1  2  3  0
  2  3  1  0
  3  4  1  0
  4  5  1  0
  5  6  2  0
  6  7  1  0
  7  8  2  0
  8  9  1  0
  9 10  2  0
 10 11  1  0
 11 12  2  0
 12 13  1  0
 13 14  2  0
 14 15  1  0
 15 16  2  0
 16 17  1  0
 17 18  2  0
 17 19  1  0
  8 20  1  0
 20 21  2  0
 21  5  1  0
 19  9  1  0
 16 11  1  0
  1 22  1  0
  3 23  1  0
  3 24  1  0
  6 25  1  0
  7 26  1  0
 12 27  1  0
 13 28  1  0
 14 29  1  0
 15 30  1  0
 19 31  1  0
 20 32  1  0
 21 33  1  0
M  END
$$$$
