@<TRIPOS>MOLECULE
*****
 47 50 0 0 0
SMALL
GASTEIGER

@<TRIPOS>ATOM
      1 C           1.0499    1.1205   -4.1808 C.3     1  UNL1       -0.0584
      2 C           1.2122    0.1448   -3.0280 C.3     1  UNL1       -0.0197
      3 C           1.9855   -1.0381   -3.5636 C.3     1  UNL1       -0.0584
      4 C           1.9329    0.7922   -1.8975 C.3     1  UNL1       -0.0584
      5 C          -0.1753   -0.2459   -2.5791 C.3     1  UNL1        0.0296
      6 N          -0.1991   -1.1683   -1.4866 N.ar    1  UNL1       -0.3279
      7 C          -0.1472   -2.5051   -1.6100 C.ar    1  UNL1        0.0971
      8 N          -0.1678   -3.0693   -0.3936 N.ar    1  UNL1       -0.2351
      9 C          -0.2347   -2.1159    0.5576 C.ar    1  UNL1        0.0982
     10 C          -0.2794   -2.2566    2.0090 C.ar    1  UNL1        0.0027
     11 C          -1.3932   -1.8850    2.7258 C.ar    1  UNL1       -0.0498
     12 C          -1.3889   -2.0267    4.0951 C.ar    1  UNL1       -0.0258
     13 C          -0.2816   -2.5381    4.7779 C.ar    1  UNL1        0.1234
     14 F          -0.2593   -2.6855    6.1254 F       1  UNL1       -0.2055
     15 C           0.8357   -2.9123    4.0689 C.ar    1  UNL1       -0.0258
     16 C           0.8032   -2.7595    2.7012 C.ar    1  UNL1       -0.0498
     17 C          -0.2538   -0.9249   -0.1445 C.ar    1  UNL1        0.0966
     18 C          -0.3253    0.3850    0.4785 C.ar    1  UNL1        0.1103
     19 C           0.6819    0.9111    1.2529 C.ar    1  UNL1       -0.0290
     20 C           0.6220    2.1488    1.8508 C.ar    1  UNL1       -0.0153
     21 C          -0.5497    2.8660    1.6245 C.ar    1  UNL1        0.1555
     22 N          -0.9438    4.0790    2.0475 N.ar    1  UNL1       -0.2333
     23 C          -2.1693    4.3241    1.5595 C.ar    1  UNL1        0.0659
     24 C          -2.5626    3.2325    0.8042 C.ar    1  UNL1        0.1618
     25 C          -3.7860    3.0527    0.1127 C.1     1  UNL1        0.1208
     26 N          -4.8244    2.8930   -0.4787 N.1     1  UNL1       -0.1892
     27 N          -1.5225    2.3463    0.8710 N.ar    1  UNL1       -0.2023
     28 N          -1.4368    1.1392    0.3017 N.ar    1  UNL1       -0.1623
     29 H           0.7350    2.1134   -3.7691 H       1  UNL1        0.0235
     30 H           2.0189    1.2521   -4.7014 H       1  UNL1        0.0235
     31 H           0.3214    0.7525   -4.9351 H       1  UNL1        0.0235
     32 H           1.4069   -1.4787   -4.3900 H       1  UNL1        0.0235
     33 H           2.9170   -0.6120   -4.0334 H       1  UNL1        0.0235
     34 H           2.2952   -1.7408   -2.7870 H       1  UNL1        0.0235
     35 H           2.9126    1.1629   -2.2795 H       1  UNL1        0.0235
     36 H           2.1704    0.0792   -1.0891 H       1  UNL1        0.0235
     37 H           1.3337    1.6310   -1.5111 H       1  UNL1        0.0235
     38 H          -0.7209   -0.6187   -3.4725 H       1  UNL1        0.0497
     39 H          -0.6739    0.7093   -2.2437 H       1  UNL1        0.0497
     40 H          -0.0954   -3.0200   -2.5548 H       1  UNL1        0.1029
     41 H          -2.2766   -1.4811    2.2138 H       1  UNL1        0.0625
     42 H          -2.2327   -1.7528    4.6997 H       1  UNL1        0.0646
     43 H           1.7292   -3.3190    4.5545 H       1  UNL1        0.0646
     44 H           1.6920   -3.0552    2.1167 H       1  UNL1        0.0625
     45 H           1.5886    0.3260    1.4128 H       1  UNL1        0.0641
     46 H           1.4249    2.5358    2.4536 H       1  UNL1        0.0655
     47 H          -2.7689    5.2123    1.7138 H       1  UNL1        0.0859
@<TRIPOS>BOND
     1     1     2    1
     2     2     3    1
     3     2     4    1
     4     2     5    1
     5     5     6    1
     6     6     7   ar
     7     7     8   ar
     8     8     9   ar
     9     9    10    1
    10    10    11   ar
    11    11    12   ar
    12    12    13   ar
    13    13    14    1
    14    13    15   ar
    15    15    16   ar
    16     9    17   ar
    17    17    18    1
    18    18    19   ar
    19    19    20   ar
    20    20    21   ar
    21    21    22   ar
    22    22    23   ar
    23    23    24   ar
    24    24    25    1
    25    25    26    3
    26    24    27   ar
    27    27    28   ar
    28    17     6   ar
    29    28    18   ar
    30    16    10   ar
    31    27    21   ar
    32     1    29    1
    33     1    30    1
    34     1    31    1
    35     3    32    1
    36     3    33    1
    37     3    34    1
    38     4    35    1
    39     4    36    1
    40     4    37    1
    41     5    38    1
    42     5    39    1
    43     7    40    1
    44    11    41    1
    45    12    42    1
    46    15    43    1
    47    16    44    1
    48    19    45    1
    49    20    46    1
    50    23    47    1
