
     RDKit          3D

 47 50  0  0  0  0  0  0  0  0999 V2000
    1.0499    1.1205   -4.1808 C   0  0  0  0  0  0  0  0  0  0  0  0
    1.2122    0.1448   -3.0280 C   0  0  0  0  0  0  0  0  0  0  0  0
    1.9855   -1.0381   -3.5636 C   0  0  0  0  0  0  0  0  0  0  0  0
    1.9329    0.7922   -1.8975 C   0  0  0  0  0  0  0  0  0  0  0  0
   -0.1753   -0.2459   -2.5791 C   0  0  0  0  0  0  0  0  0  0  0  0
   -0.1991   -1.1683   -1.4866 N   0  0  0  0  0  0  0  0  0  0  0  0
   -0.1472   -2.5051   -1.6100 C   0  0  0  0  0  0  0  0  0  0  0  0
   -0.1678   -3.0693   -0.3936 N   0  0  0  0  0  0  0  0  0  0  0  0
   -0.2347   -2.1159    0.5576 C   0  0  0  0  0  0  0  0  0  0  0  0
   -0.2794   -2.2566    2.0090 C   0  0  0  0  0  0  0  0  0  0  0  0
   -1.3932   -1.8850    2.7258 C   0  0  0  0  0  0  0  0  0  0  0  0
   -1.3889   -2.0267    4.0951 C   0  0  0  0  0  0  0  0  0  0  0  0
   -0.2816   -2.5381    4.7779 C   0  0  0  0  0  0  0  0  0  0  0  0
   -0.2593   -2.6855    6.1254 F   0  0  0  0  0  0  0  0  0  0  0  0
    0.8357   -2.9123    4.0689 C   0  0  0  0  0  0  0  0  0  0  0  0
    0.8032   -2.7595    2.7012 C   0  0  0  0  0  0  0  0  0  0  0  0
   -0.2538   -0.9249   -0.1445 C   0  0  0  0  0  0  0  0  0  0  0  0
   -0.3253    0.3850    0.4785 C   0  0  0  0  0  0  0  0  0  0  0  0
    0.6819    0.9111    1.2529 C   0  0  0  0  0  0  0  0  0  0  0  0
    0.6220    2.1488    1.8508 C   0  0  0  0  0  0  0  0  0  0  0  0
   -0.5497    2.8660    1.6245 C   0  0  0  0  0  0  0  0  0  0  0  0
   -0.9438    4.0790    2.0475 N   0  0  0  0  0  0  0  0  0  0  0  0
   -2.1693    4.3241    1.5595 C   0  0  0  0  0  0  0  0  0  0  0  0
   -2.5626    3.2325    0.8042 C   0  0  0  0  0  0  0  0  0  0  0  0
   -3.7860    3.0527    0.1127 C   0  0  0  0  0  0  0  0  0  0  0  0
   -4.8244    2.8930   -0.4787 N   0  0  0  0  0  0  0  0  0  0  0  0
   -1.5225    2.3463    0.8710 N   0  0  0  0  0  0  0  0  0  0  0  0
   -1.4368    1.1392    0.3017 N   0  0  0  0  0  0  0  0  0  0  0  0
    0.7350    2.1134   -3.7691 H   0  0  0  0  0  0  0  0  0  0  0  0
    2.0189    1.2521   -4.7014 H   0  0  0  0  0  0  0  0  0  0  0  0
    0.3214    0.7525   -4.9351 H   0  0  0  0  0  0  0  0  0  0  0  0
    1.4069   -1.4787   -4.3900 H   0  0  0  0  0  0  0  0  0  0  0  0
    2.9170   -0.6120   -4.0334 H   0  0  0  0  0  0  0  0  0  0  0  0
    2.2952   -1.7408   -2.7870 H   0  0  0  0  0  0  0  0  0  0  0  0
    2.9126    1.1629   -2.2795 H   0  0  0  0  0  0  0  0  0  0  0  0
    2.1704    0.0792   -1.0891 H   0  0  0  0  0  0  0  0  0  0  0  0
    1.3337    1.6310   -1.5111 H   0  0  0  0  0  0  0  0  0  0  0  0
   -0.7209   -0.6187   -3.4725 H   0  0  0  0  0  0  0  0  0  0  0  0
   -0.6739    0.7093   -2.2437 H   0  0  0  0  0  0  0  0  0  0  0  0
   -0.0954   -3.0200   -2.5548 H   0  0  0  0  0  0  0  0  0  0  0  0
   -2.2766   -1.4811    2.2138 H   0  0  0  0  0  0  0  0  0  0  0  0
   -2.2327   -1.7528    4.6997 H   0  0  0  0  0  0  0  0  0  0  0  0
    1.7292   -3.3190    4.5545 H   0  0  0  0  0  0  0  0  0  0  0  0
    1.6920   -3.0552    2.1167 H   0  0  0  0  0  0  0  0  0  0  0  0
    1.5886    0.3260    1.4128 H   0  0  0  0  0  0  0  0  0  0  0  0
    1.4249    2.5358    2.4536 H   0  0  0  0  0  0  0  0  0  0  0  0
   -2.7689    5.2123    1.7138 H   0  0  0  0  0  0  0  0  0  0  0  0
  1  2  1  0
  2  3  1  0
  2  4  1  0
  2  5  1  0
  5  6  1  0
  6  7  1  0
  7  8  2  0
  8  9  1  0
  9 10  1  0
 10 11  2  0
 11 12  1  0
 12 13  2  0
 13 14  1  0
 13 15  1  0
 15 16  2  0
  9 17  2  0
 17 18  1  0
 18 19  1  0
 19 20  2  0
 20 21  1  0
 21 22  2  0
 22 23  1  0
 23 24  2  0
 24 25  1  0
 25 26  3  0
 24 27  1  0
 27 28  1  0
 17  6  1  0
 28 18  2  0
 16 10  1  0
 27 21  1  0
  1 29  1  0
  1 30  1  0
  1 31  1  0
  3 32  1  0
  3 33  1  0
  3 34  1  0
  4 35  1  0
  4 36  1  0
  4 37  1  0
  5 38  1  0
  5 39  1  0
  7 40  1  0
 11 41  1  0
 12 42  1  0
 15 43  1  0
 16 44  1  0
 19 45  1  0
 20 46  1  0
 23 47  1  0
M  END
$$$$
