@<TRIPOS>MOLECULE
*****
 50 54 0 0 0
SMALL
GASTEIGER

@<TRIPOS>ATOM
      1 C          -1.1969   -2.8538    0.6362 C.3     1  UNL1       -0.0275
      2 C          -0.9756   -1.4618    1.1943 C.3     1  UNL1        0.1021
      3 O          -1.5540   -0.5000    0.3827 O.3     1  UNL1       -0.4880
      4 C          -0.9563    0.5452   -0.2793 C.ar    1  UNL1        0.1322
      5 C           0.3858    0.8387   -0.2533 C.ar    1  UNL1       -0.0099
      6 C           0.9340    1.9164   -0.9488 C.ar    1  UNL1        0.0082
      7 C           2.3564    2.2178   -0.9241 C.ar    1  UNL1        0.1004
      8 N           2.9738    3.4056   -0.7362 N.ar    1  UNL1       -0.1727
      9 N           4.2870    3.2376   -0.7950 N.ar    1  UNL1       -0.2764
     10 C           4.5878    1.9404   -1.0224 C.ar    1  UNL1        0.0664
     11 C           5.7705    1.2480   -1.1668 C.ar    1  UNL1       -0.0351
     12 C           5.7278   -0.1074   -1.3963 C.ar    1  UNL1       -0.0423
     13 C           4.5385   -0.8103   -1.4893 C.ar    1  UNL1        0.0525
     14 C           4.4969   -2.2244   -1.7282 C.1     1  UNL1        0.0992
     15 N           4.4808   -3.3712   -1.9128 N.1     1  UNL1       -0.1909
     16 C           3.3620   -0.0687   -1.3367 C.ar    1  UNL1       -0.0331
     17 C           3.3520    1.2879   -1.1053 C.ar    1  UNL1        0.0286
     18 C           0.0383    2.6866   -1.6780 C.ar    1  UNL1       -0.0245
     19 C          -1.3107    2.4244   -1.7282 C.ar    1  UNL1        0.0968
     20 N          -2.3659    3.0109   -2.3511 N.ar    1  UNL1       -0.1713
     21 N          -3.4859    2.3682   -2.0794 N.ar    1  UNL1       -0.2732
     22 C          -4.8344    2.6861   -2.5574 C.3     1  UNL1        0.0302
     23 C          -3.1579    1.3441   -1.2655 C.ar    1  UNL1        0.0364
     24 C          -1.8089    1.3530   -1.0288 C.ar    1  UNL1        0.0614
     25 C          -1.5104   -1.3470    2.6081 C.3     1  UNL1        0.0195
     26 C          -2.9769   -1.6183    2.7022 C.3     1  UNL1        0.0182
     27 N          -3.1206   -2.9785    3.1641 N.am    1  UNL1       -0.3149
     28 C          -1.8396   -3.5462    3.4008 C.2     1  UNL1        0.2135
     29 O          -1.5369   -4.7661    3.5037 O.2     1  UNL1       -0.2758
     30 C          -0.8974   -2.4032    3.5073 C.3     1  UNL1        0.0315
     31 H          -2.1699   -3.2231    0.9827 H       1  UNL1        0.0265
     32 H          -1.1285   -2.8462   -0.4710 H       1  UNL1        0.0265
     33 H          -0.4192   -3.5070    1.0881 H       1  UNL1        0.0265
     34 H           0.1123   -1.2927    1.2565 H       1  UNL1        0.0733
     35 H           1.0419    0.2244    0.3249 H       1  UNL1        0.0661
     36 H           5.0355    3.9720   -0.6878 H       1  UNL1        0.1889
     37 H           6.6983    1.8039   -1.0929 H       1  UNL1        0.0639
     38 H           6.6685   -0.6276   -1.5061 H       1  UNL1        0.0631
     39 H           2.4232   -0.6003   -1.4115 H       1  UNL1        0.0638
     40 H           0.4340    3.5273   -2.2256 H       1  UNL1        0.0646
     41 H          -4.9709    3.7883   -2.6648 H       1  UNL1        0.0473
     42 H          -5.0538    2.2031   -3.5193 H       1  UNL1        0.0473
     43 H          -5.5501    2.3128   -1.7901 H       1  UNL1        0.0473
     44 H          -3.8444    0.6046   -0.8435 H       1  UNL1        0.0833
     45 H          -1.3089   -0.3225    2.9755 H       1  UNL1        0.0356
     46 H          -3.5223   -1.3993    1.7733 H       1  UNL1        0.0466
     47 H          -3.4428   -0.9657    3.4918 H       1  UNL1        0.0466
     48 H          -4.0370   -3.4410    3.2935 H       1  UNL1        0.1487
     49 H          -0.8551   -1.9787    4.5317 H       1  UNL1        0.0363
     50 H           0.1260   -2.6863    3.1779 H       1  UNL1        0.0363
@<TRIPOS>BOND
     1     1     2    1
     2     2     3    1
     3     3     4    1
     4     4     5   ar
     5     5     6   ar
     6     6     7    1
     7     7     8   ar
     8     8     9   ar
     9     9    10   ar
    10    10    11   ar
    11    11    12   ar
    12    12    13   ar
    13    13    14    1
    14    14    15    3
    15    13    16   ar
    16    16    17   ar
    17     6    18   ar
    18    18    19   ar
    19    19    20   ar
    20    20    21   ar
    21    21    22    1
    22    21    23   ar
    23    23    24   ar
    24     2    25    1
    25    25    26    1
    26    26    27    1
    27    27    28   am
    28    28    29    2
    29    28    30    1
    30    24     4   ar
    31    30    25    1
    32    17     7   ar
    33    24    19   ar
    34    17    10   ar
    35     1    31    1
    36     1    32    1
    37     1    33    1
    38     2    34    1
    39     5    35    1
    40     9    36    1
    41    11    37    1
    42    12    38    1
    43    16    39    1
    44    18    40    1
    45    22    41    1
    46    22    42    1
    47    22    43    1
    48    23    44    1
    49    25    45    1
    50    26    46    1
    51    26    47    1
    52    27    48    1
    53    30    49    1
    54    30    50    1
