@<TRIPOS>MOLECULE
*****
 49 50 0 0 0
SMALL
GASTEIGER

@<TRIPOS>ATOM
      1 C          -3.7208   -0.9847   -3.0466 C.3     1  UNL1        0.0788
      2 O          -3.1637   -1.0632   -1.7763 O.3     1  UNL1       -0.4948
      3 C          -1.9064   -0.7191   -1.3785 C.ar    1  UNL1        0.1236
      4 C          -1.0229   -0.1999   -2.3379 C.ar    1  UNL1       -0.0194
      5 C           0.2617    0.1688   -1.9936 C.ar    1  UNL1       -0.0551
      6 C           0.7120    0.0354   -0.6901 C.ar    1  UNL1       -0.0469
      7 C           2.1051    0.3990   -0.3016 C.3     1  UNL1       -0.0277
      8 C           3.0277   -0.7941   -0.4675 C.3     1  UNL1       -0.0490
      9 C           4.4427   -0.4857   -0.0856 C.3     1  UNL1       -0.0523
     10 C           5.0885    0.6025   -0.8671 C.3     1  UNL1       -0.0430
     11 C           6.5156    0.8588   -0.4680 C.3     1  UNL1        0.0448
     12 C           6.6346    1.2439    0.9532 C.2     1  UNL1        0.3047
     13 O           6.5770    0.3777    1.8780 O.2     1  UNL1       -0.2510
     14 O           6.8109    2.5780    1.2936 O.3     1  UNL1       -0.4806
     15 C          -0.1417   -0.4671    0.2434 C.ar    1  UNL1       -0.0516
     16 C          -1.4725   -0.8535   -0.0948 C.ar    1  UNL1       -0.0010
     17 C          -2.2769   -1.4300    0.9808 C.3     1  UNL1        0.0057
     18 C          -3.3615   -0.5769    1.4802 C.ar    1  UNL1        0.0148
     19 C          -3.0126    0.4377    2.3800 C.ar    1  UNL1        0.0379
     20 N          -3.9491    1.3011    2.8172 N.ar    1  UNL1       -0.2227
     21 C          -5.2452    1.2314    2.4154 C.ar    1  UNL1        0.2142
     22 N          -6.2404    2.1381    2.8801 N.pl3   1  UNL1       -0.3274
     23 N          -5.5577    0.2651    1.5645 N.ar    1  UNL1       -0.1999
     24 C          -4.6745   -0.6271    1.0924 C.ar    1  UNL1        0.1247
     25 N          -5.1341   -1.6660    0.2531 N.pl3   1  UNL1       -0.3428
     26 H          -2.9662   -1.2571   -3.8096 H       1  UNL1        0.0660
     27 H          -4.5429   -1.7473   -3.1800 H       1  UNL1        0.0660
     28 H          -4.0716    0.0481   -3.2965 H       1  UNL1        0.0660
     29 H          -1.3932   -0.0989   -3.3550 H       1  UNL1        0.0654
     30 H           0.9460    0.5700   -2.7328 H       1  UNL1        0.0621
     31 H           2.4658    1.2859   -0.8539 H       1  UNL1        0.0313
     32 H           2.1026    0.6434    0.7860 H       1  UNL1        0.0313
     33 H           2.6831   -1.6081    0.2106 H       1  UNL1        0.0268
     34 H           3.0287   -1.1420   -1.5209 H       1  UNL1        0.0268
     35 H           4.4846   -0.2529    1.0192 H       1  UNL1        0.0265
     36 H           5.0571   -1.4160   -0.2655 H       1  UNL1        0.0265
     37 H           5.0221    0.4091   -1.9428 H       1  UNL1        0.0270
     38 H           4.5415    1.5705   -0.6582 H       1  UNL1        0.0270
     39 H           6.8759    1.7170   -1.1070 H       1  UNL1        0.0377
     40 H           7.1703   -0.0138   -0.6714 H       1  UNL1        0.0377
     41 H           7.3065    2.8435    2.1666 H       1  UNL1        0.2951
     42 H           0.1845   -0.5851    1.2880 H       1  UNL1        0.0624
     43 H          -1.6285   -1.6491    1.8767 H       1  UNL1        0.0364
     44 H          -2.6616   -2.4557    0.7054 H       1  UNL1        0.0364
     45 H          -2.0124    0.5744    2.7524 H       1  UNL1        0.0834
     46 H          -6.0276    3.0803    3.2322 H       1  UNL1        0.1452
     47 H          -7.2452    1.8343    2.8668 H       1  UNL1        0.1452
     48 H          -4.8618   -2.6704    0.4315 H       1  UNL1        0.1437
     49 H          -5.7535   -1.4503   -0.5604 H       1  UNL1        0.1437
@<TRIPOS>BOND
     1     1     2    1
     2     2     3    1
     3     3     4   ar
     4     4     5   ar
     5     5     6   ar
     6     6     7    1
     7     7     8    1
     8     8     9    1
     9     9    10    1
    10    10    11    1
    11    11    12    1
    12    12    13    2
    13    12    14    1
    14     6    15   ar
    15    15    16   ar
    16    16    17    1
    17    17    18    1
    18    18    19   ar
    19    19    20   ar
    20    20    21   ar
    21    21    22    1
    22    21    23   ar
    23    23    24   ar
    24    24    25    1
    25    16     3   ar
    26    24    18   ar
    27     1    26    1
    28     1    27    1
    29     1    28    1
    30     4    29    1
    31     5    30    1
    32     7    31    1
    33     7    32    1
    34     8    33    1
    35     8    34    1
    36     9    35    1
    37     9    36    1
    38    10    37    1
    39    10    38    1
    40    11    39    1
    41    11    40    1
    42    14    41    1
    43    15    42    1
    44    17    43    1
    45    17    44    1
    46    19    45    1
    47    22    46    1
    48    22    47    1
    49    25    48    1
    50    25    49    1
