@<TRIPOS>MOLECULE
*****
 60 64 0 0 0
SMALL
GASTEIGER

@<TRIPOS>ATOM
      1 C           8.4884    0.2401    0.2698 C.3     1  UNL1        0.0029
      2 N           7.9461    1.5969    0.1598 N.am    1  UNL1       -0.3061
      3 C           8.5836    2.4551   -0.8288 C.3     1  UNL1        0.0029
      4 C           6.8748    2.0373    0.9635 C.2     1  UNL1        0.2366
      5 O           6.4682    3.2234    0.8000 O.2     1  UNL1       -0.2736
      6 C           6.2170    1.2013    1.9656 C.3     1  UNL1        0.1178
      7 N           5.1083    0.4441    1.3997 N.ar    1  UNL1       -0.2618
      8 C           3.8050    0.8277    1.3045 C.ar    1  UNL1        0.0384
      9 C           3.1151   -0.2053    0.7086 C.ar    1  UNL1        0.0768
     10 C           1.6891   -0.2361    0.3982 C.ar    1  UNL1        0.2615
     11 N           0.9804   -1.2458   -0.1630 N.ar    1  UNL1       -0.1908
     12 C          -0.3120   -0.8907   -0.2868 C.ar    1  UNL1        0.1825
     13 C          -1.4429   -1.7124   -0.8500 C.3     1  UNL1        0.0586
     14 C          -1.3524   -3.0683   -0.1831 C.3     1  UNL1       -0.0482
     15 C          -2.7269   -1.0631   -0.4971 C.ar    1  UNL1       -0.0337
     16 C          -3.6652   -0.7115   -1.4392 C.ar    1  UNL1       -0.0570
     17 C          -4.8626   -0.0934   -1.0869 C.ar    1  UNL1       -0.0537
     18 C          -5.1283    0.1795    0.2384 C.ar    1  UNL1       -0.0150
     19 C          -6.3889    0.8296    0.5707 C.ar    1  UNL1        0.0185
     20 C          -7.5556    0.6411   -0.1421 C.ar    1  UNL1        0.0403
     21 N          -8.6803    1.2802    0.2259 N.ar    1  UNL1       -0.2225
     22 C          -8.7375    2.1208    1.2835 C.ar    1  UNL1        0.2125
     23 N          -9.9271    2.7854    1.6564 N.pl3   1  UNL1       -0.3275
     24 N          -7.5901    2.2981    1.9747 N.ar    1  UNL1       -0.2225
     25 C          -6.4372    1.6852    1.6519 C.ar    1  UNL1        0.0403
     26 C          -4.1988   -0.1667    1.1958 C.ar    1  UNL1       -0.0537
     27 C          -3.0269   -0.7752    0.8193 C.ar    1  UNL1       -0.0570
     28 C          -1.2238   -1.7896   -2.3266 C.3     1  UNL1       -0.0246
     29 C           0.0800   -2.4320   -2.7378 C.3     1  UNL1       -0.0487
     30 C          -1.2561   -3.0363   -3.0911 C.3     1  UNL1       -0.0487
     31 N          -0.3751    0.3609    0.2123 N.ar    1  UNL1       -0.0600
     32 O           0.8200    0.7214    0.6091 O.2     1  UNL1       -0.3327
     33 C           4.0511   -1.1863    0.4657 C.ar    1  UNL1        0.0617
     34 N           5.2645   -0.7721    0.8945 N.ar    1  UNL1       -0.1784
     35 H           9.5072    0.1742   -0.1629 H       1  UNL1        0.0428
     36 H           7.8397   -0.4087   -0.3793 H       1  UNL1        0.0428
     37 H           8.5535   -0.1016    1.3038 H       1  UNL1        0.0428
     38 H           8.0906    2.2787   -1.8056 H       1  UNL1        0.0428
     39 H           9.6467    2.2131   -0.8460 H       1  UNL1        0.0428
     40 H           8.4130    3.5091   -0.4673 H       1  UNL1        0.0428
     41 H           6.9622    0.4986    2.4404 H       1  UNL1        0.0605
     42 H           5.7953    1.7919    2.7971 H       1  UNL1        0.0605
     43 H           3.4054    1.7924    1.6493 H       1  UNL1        0.0834
     44 H          -0.3179   -3.4569   -0.1512 H       1  UNL1        0.0242
     45 H          -1.6505   -2.9117    0.8855 H       1  UNL1        0.0242
     46 H          -2.0732   -3.7986   -0.5917 H       1  UNL1        0.0242
     47 H          -3.4349   -0.9376   -2.4756 H       1  UNL1        0.0621
     48 H          -5.5680    0.1618   -1.8769 H       1  UNL1        0.0624
     49 H          -7.5318   -0.0256   -0.9894 H       1  UNL1        0.0837
     50 H         -10.0551    3.1005    2.6308 H       1  UNL1        0.1452
     51 H         -10.6733    2.9605    0.9626 H       1  UNL1        0.1452
     52 H          -5.5263    1.8516    2.2332 H       1  UNL1        0.0837
     53 H          -4.4276    0.0558    2.2264 H       1  UNL1        0.0624
     54 H          -2.3169   -1.0355    1.5922 H       1  UNL1        0.0621
     55 H          -1.4449   -0.8293   -2.8558 H       1  UNL1        0.0313
     56 H           0.6878   -1.9171   -3.4804 H       1  UNL1        0.0268
     57 H           0.6541   -3.0054   -1.9586 H       1  UNL1        0.0268
     58 H          -1.5367   -4.0062   -2.6404 H       1  UNL1        0.0268
     59 H          -1.4814   -2.9800   -4.1768 H       1  UNL1        0.0268
     60 H           3.8792   -2.1599    0.0016 H       1  UNL1        0.0855
@<TRIPOS>BOND
     1     1     2    1
     2     2     3    1
     3     2     4   am
     4     4     5    2
     5     4     6    1
     6     6     7    1
     7     7     8   ar
     8     8     9   ar
     9     9    10    1
    10    10    11   ar
    11    11    12   ar
    12    12    13    1
    13    13    14    1
    14    13    15    1
    15    15    16   ar
    16    16    17   ar
    17    17    18   ar
    18    18    19    1
    19    19    20   ar
    20    20    21   ar
    21    21    22   ar
    22    22    23    1
    23    22    24   ar
    24    24    25   ar
    25    18    26   ar
    26    26    27   ar
    27    13    28    1
    28    28    29    1
    29    29    30    1
    30    12    31   ar
    31    31    32   ar
    32     9    33   ar
    33    33    34   ar
    34    34     7   ar
    35    32    10   ar
    36    27    15   ar
    37    30    28    1
    38    25    19   ar
    39     1    35    1
    40     1    36    1
    41     1    37    1
    42     3    38    1
    43     3    39    1
    44     3    40    1
    45     6    41    1
    46     6    42    1
    47     8    43    1
    48    14    44    1
    49    14    45    1
    50    14    46    1
    51    16    47    1
    52    17    48    1
    53    20    49    1
    54    23    50    1
    55    23    51    1
    56    25    52    1
    57    26    53    1
    58    27    54    1
    59    28    55    1
    60    29    56    1
    61    29    57    1
    62    30    58    1
    63    30    59    1
    64    33    60    1
