@<TRIPOS>MOLECULE
*****
 39 41 0 0 0
SMALL
GASTEIGER

@<TRIPOS>ATOM
      1 N           5.0783    0.7140   -0.6784 N.3     1  UNL1       -0.3272
      2 C           3.6487    0.5436   -0.7337 C.3     1  UNL1        0.0049
      3 C           2.9249    1.8082   -0.2977 C.3     1  UNL1       -0.0363
      4 C           1.4422    1.5484   -0.5018 C.3     1  UNL1       -0.0361
      5 C           0.9213    0.4659    0.4081 C.3     1  UNL1        0.0080
      6 N          -0.0059   -0.3830   -0.3035 N.3     1  UNL1       -0.3099
      7 C          -0.5447   -1.4362    0.4927 C.3     1  UNL1        0.0153
      8 C          -1.3326   -1.1782    1.7307 C.3     1  UNL1       -0.0287
      9 C          -1.9806   -1.7636    0.5512 C.3     1  UNL1        0.0010
     10 C          -3.0086   -0.9340   -0.1096 C.ar    1  UNL1       -0.0428
     11 C          -4.1838   -1.4465   -0.6087 C.ar    1  UNL1       -0.0583
     12 C          -5.1346   -0.6562   -1.2228 C.ar    1  UNL1       -0.0615
     13 C          -4.9353    0.6992   -1.3595 C.ar    1  UNL1       -0.0617
     14 C          -3.7654    1.2323   -0.8666 C.ar    1  UNL1       -0.0615
     15 C          -2.8165    0.4201   -0.2497 C.ar    1  UNL1       -0.0583
     16 C           2.0637   -0.2868    1.0267 C.3     1  UNL1       -0.0361
     17 C           3.1476   -0.6352    0.0328 C.3     1  UNL1       -0.0363
     18 H           5.3761    1.7046   -0.7879 H       1  UNL1        0.1185
     19 H           5.5710    0.0758   -1.3594 H       1  UNL1        0.1185
     20 H           3.4003    0.3555   -1.8190 H       1  UNL1        0.0458
     21 H           3.2049    2.6298   -0.9816 H       1  UNL1        0.0281
     22 H           3.1918    1.9977    0.7432 H       1  UNL1        0.0281
     23 H           0.9131    2.5148   -0.3269 H       1  UNL1        0.0281
     24 H           1.3396    1.2445   -1.5809 H       1  UNL1        0.0281
     25 H           0.3511    0.9730    1.2216 H       1  UNL1        0.0460
     26 H           0.3476   -0.7475   -1.1941 H       1  UNL1        0.1225
     27 H           0.1537   -2.3193    0.5767 H       1  UNL1        0.0466
     28 H          -1.1757   -1.8352    2.6211 H       1  UNL1        0.0287
     29 H          -1.4220   -0.1138    2.0106 H       1  UNL1        0.0287
     30 H          -2.2619   -2.8561    0.6269 H       1  UNL1        0.0364
     31 H          -4.3568   -2.5143   -0.5090 H       1  UNL1        0.0620
     32 H          -6.0691   -1.0638   -1.6196 H       1  UNL1        0.0618
     33 H          -5.6900    1.3399   -1.8492 H       1  UNL1        0.0618
     34 H          -3.6016    2.3022   -0.9713 H       1  UNL1        0.0618
     35 H          -1.9328    0.9455    0.1019 H       1  UNL1        0.0620
     36 H           2.5210    0.3805    1.7902 H       1  UNL1        0.0281
     37 H           1.7708   -1.2043    1.5338 H       1  UNL1        0.0281
     38 H           2.8452   -1.4911   -0.6279 H       1  UNL1        0.0281
     39 H           4.0047   -1.0299    0.6342 H       1  UNL1        0.0281
@<TRIPOS>BOND
     1     1     2    1
     2     2     3    1
     3     3     4    1
     4     4     5    1
     5     5     6    1
     6     6     7    1
     7     7     8    1
     8     8     9    1
     9     9    10    1
    10    10    11   ar
    11    11    12   ar
    12    12    13   ar
    13    13    14   ar
    14    14    15   ar
    15     5    16    1
    16    16    17    1
    17    17     2    1
    18     9     7    1
    19    15    10   ar
    20     1    18    1
    21     1    19    1
    22     2    20    1
    23     3    21    1
    24     3    22    1
    25     4    23    1
    26     4    24    1
    27     5    25    1
    28     6    26    1
    29     7    27    1
    30     8    28    1
    31     8    29    1
    32     9    30    1
    33    11    31    1
    34    12    32    1
    35    13    33    1
    36    14    34    1
    37    15    35    1
    38    16    36    1
    39    16    37    1
    40    17    38    1
    41    17    39    1
