
     RDKit          3D

 39 41  0  0  0  0  0  0  0  0999 V2000
    5.0783    0.7140   -0.6784 N   0  0  0  0  0  0  0  0  0  0  0  0
    3.6487    0.5436   -0.7337 C   0  0  0  0  0  0  0  0  0  0  0  0
    2.9249    1.8082   -0.2977 C   0  0  0  0  0  0  0  0  0  0  0  0
    1.4422    1.5484   -0.5018 C   0  0  0  0  0  0  0  0  0  0  0  0
    0.9213    0.4659    0.4081 C   0  0  0  0  0  0  0  0  0  0  0  0
   -0.0059   -0.3830   -0.3035 N   0  0  0  0  0  0  0  0  0  0  0  0
   -0.5447   -1.4362    0.4927 C   0  0  0  0  0  0  0  0  0  0  0  0
   -1.3326   -1.1782    1.7307 C   0  0  0  0  0  0  0  0  0  0  0  0
   -1.9806   -1.7636    0.5512 C   0  0  0  0  0  0  0  0  0  0  0  0
   -3.0086   -0.9340   -0.1096 C   0  0  0  0  0  0  0  0  0  0  0  0
   -4.1838   -1.4465   -0.6087 C   0  0  0  0  0  0  0  0  0  0  0  0
   -5.1346   -0.6562   -1.2228 C   0  0  0  0  0  0  0  0  0  0  0  0
   -4.9353    0.6992   -1.3595 C   0  0  0  0  0  0  0  0  0  0  0  0
   -3.7654    1.2323   -0.8666 C   0  0  0  0  0  0  0  0  0  0  0  0
   -2.8165    0.4201   -0.2497 C   0  0  0  0  0  0  0  0  0  0  0  0
    2.0637   -0.2868    1.0267 C   0  0  0  0  0  0  0  0  0  0  0  0
    3.1476   -0.6352    0.0328 C   0  0  0  0  0  0  0  0  0  0  0  0
    5.3761    1.7046   -0.7879 H   0  0  0  0  0  0  0  0  0  0  0  0
    5.5710    0.0758   -1.3594 H   0  0  0  0  0  0  0  0  0  0  0  0
    3.4003    0.3555   -1.8190 H   0  0  0  0  0  0  0  0  0  0  0  0
    3.2049    2.6298   -0.9816 H   0  0  0  0  0  0  0  0  0  0  0  0
    3.1918    1.9977    0.7432 H   0  0  0  0  0  0  0  0  0  0  0  0
    0.9131    2.5148   -0.3269 H   0  0  0  0  0  0  0  0  0  0  0  0
    1.3396    1.2445   -1.5809 H   0  0  0  0  0  0  0  0  0  0  0  0
    0.3511    0.9730    1.2216 H   0  0  0  0  0  0  0  0  0  0  0  0
    0.3476   -0.7475   -1.1941 H   0  0  0  0  0  0  0  0  0  0  0  0
    0.1537   -2.3193    0.5767 H   0  0  0  0  0  0  0  0  0  0  0  0
   -1.1757   -1.8352    2.6211 H   0  0  0  0  0  0  0  0  0  0  0  0
   -1.4220   -0.1138    2.0106 H   0  0  0  0  0  0  0  0  0  0  0  0
   -2.2619   -2.8561    0.6269 H   0  0  0  0  0  0  0  0  0  0  0  0
   -4.3568   -2.5143   -0.5090 H   0  0  0  0  0  0  0  0  0  0  0  0
   -6.0691   -1.0638   -1.6196 H   0  0  0  0  0  0  0  0  0  0  0  0
   -5.6900    1.3399   -1.8492 H   0  0  0  0  0  0  0  0  0  0  0  0
   -3.6016    2.3022   -0.9713 H   0  0  0  0  0  0  0  0  0  0  0  0
   -1.9328    0.9455    0.1019 H   0  0  0  0  0  0  0  0  0  0  0  0
    2.5210    0.3805    1.7902 H   0  0  0  0  0  0  0  0  0  0  0  0
    1.7708   -1.2043    1.5338 H   0  0  0  0  0  0  0  0  0  0  0  0
    2.8452   -1.4911   -0.6279 H   0  0  0  0  0  0  0  0  0  0  0  0
    4.0047   -1.0299    0.6342 H   0  0  0  0  0  0  0  0  0  0  0  0
  1  2  1  0
  2  3  1  0
  3  4  1  0
  4  5  1  0
  5  6  1  0
  6  7  1  0
  7  8  1  0
  8  9  1  0
  9 10  1  0
 10 11  2  0
 11 12  1  0
 12 13  2  0
 13 14  1  0
 14 15  2  0
  5 16  1  0
 16 17  1  0
 17  2  1  0
  9  7  1  0
 15 10  1  0
  1 18  1  0
  1 19  1  0
  2 20  1  0
  3 21  1  0
  3 22  1  0
  4 23  1  0
  4 24  1  0
  5 25  1  0
  6 26  1  0
  7 27  1  0
  8 28  1  0
  8 29  1  0
  9 30  1  0
 11 31  1  0
 12 32  1  0
 13 33  1  0
 14 34  1  0
 15 35  1  0
 16 36  1  0
 16 37  1  0
 17 38  1  0
 17 39  1  0
M  END
$$$$
