@<TRIPOS>MOLECULE
*****
 32 35 0 0 0
SMALL
GASTEIGER

@<TRIPOS>ATOM
      1 F           3.9108   -3.4016   -0.8653 F       1  UNL1       -0.2025
      2 C           3.3269   -2.1979   -0.6491 C.ar    1  UNL1        0.1584
      3 C           3.6997   -1.4264    0.4284 C.ar    1  UNL1       -0.0230
      4 C           3.1092   -0.1897    0.6630 C.ar    1  UNL1       -0.0496
      5 C           2.1332    0.3158   -0.1639 C.ar    1  UNL1        0.0053
      6 C           1.5017    1.6130    0.0710 C.ar    1  UNL1        0.0966
      7 N           2.1433    2.7898    0.1127 N.ar    1  UNL1       -0.2353
      8 C           1.1947    3.7213    0.3537 C.ar    1  UNL1        0.0945
      9 N          -0.0194    3.1065    0.4573 N.ar    1  UNL1       -0.3439
     10 C           0.1547    1.7866    0.2829 C.ar    1  UNL1        0.0752
     11 C          -0.8452    0.7527    0.3057 C.ar    1  UNL1        0.0170
     12 C          -0.7764   -0.2425    1.2585 C.ar    1  UNL1       -0.0477
     13 C          -1.7577   -1.2087    1.2345 C.ar    1  UNL1       -0.0182
     14 C          -2.7963   -1.2254    0.3092 C.ar    1  UNL1        0.1375
     15 N          -3.8427   -2.0656    0.1120 N.ar    1  UNL1       -0.2361
     16 C          -4.5642   -1.6278   -0.9340 C.ar    1  UNL1        0.0464
     17 C          -3.9254   -0.4896   -1.3731 C.ar    1  UNL1        0.0293
     18 N          -2.8417   -0.2445   -0.6095 N.ar    1  UNL1       -0.3060
     19 C          -1.8931    0.7176   -0.6114 C.ar    1  UNL1        0.0203
     20 C           1.7545   -0.4613   -1.2530 C.ar    1  UNL1       -0.0143
     21 C           2.3491   -1.6974   -1.4820 C.ar    1  UNL1        0.1590
     22 F           1.9849   -2.4600   -2.5409 F       1  UNL1       -0.2025
     23 H           4.4626   -1.8267    1.0703 H       1  UNL1        0.0647
     24 H           3.4079    0.3994    1.5048 H       1  UNL1        0.0625
     25 H           1.4288    4.7648    0.4386 H       1  UNL1        0.1027
     26 H          -0.9277    3.5872    0.6416 H       1  UNL1        0.1668
     27 H           0.0303   -0.2479    1.9937 H       1  UNL1        0.0626
     28 H          -1.7239   -2.0054    1.9776 H       1  UNL1        0.0654
     29 H          -5.4699   -2.0870   -1.3450 H       1  UNL1        0.0845
     30 H          -4.2439    0.1320   -2.2183 H       1  UNL1        0.0829
     31 H          -1.9588    1.4882   -1.3596 H       1  UNL1        0.0820
     32 H           0.9937   -0.0693   -1.8973 H       1  UNL1        0.0654
@<TRIPOS>BOND
     1     1     2    1
     2     2     3   ar
     3     3     4   ar
     4     4     5   ar
     5     5     6    1
     6     6     7   ar
     7     7     8   ar
     8     8     9   ar
     9     9    10   ar
    10    10    11    1
    11    11    12   ar
    12    12    13   ar
    13    13    14   ar
    14    14    15   ar
    15    15    16   ar
    16    16    17   ar
    17    17    18   ar
    18    18    19   ar
    19     5    20   ar
    20    20    21   ar
    21    21    22    1
    22    21     2   ar
    23    10     6   ar
    24    19    11   ar
    25    18    14   ar
    26     3    23    1
    27     4    24    1
    28     8    25    1
    29     9    26    1
    30    12    27    1
    31    13    28    1
    32    16    29    1
    33    17    30    1
    34    19    31    1
    35    20    32    1
