@<TRIPOS>MOLECULE
*****
 89 92 0 0 0
SMALL
GASTEIGER

@<TRIPOS>ATOM
      1 C           1.9319   -0.1083    2.1472 C.3     1  UNL1       -0.0381
      2 C           1.8567   -0.3404    0.6601 C.3     1  UNL1        0.0966
      3 N           3.0817   -0.0649   -0.0226 N.am    1  UNL1       -0.3029
      4 C           3.8809   -0.9810   -0.7284 C.2     1  UNL1        0.2345
      5 O           3.4774   -2.1902   -0.7721 O.2     1  UNL1       -0.2739
      6 C           5.1477   -0.6981   -1.4305 C.3     1  UNL1        0.1272
      7 C           5.1783   -1.2202   -2.8403 C.3     1  UNL1        0.0696
      8 O           4.3644   -0.5172   -3.7031 O.3     1  UNL1       -0.3929
      9 N           5.5789    0.6616   -1.3853 N.3     1  UNL1       -0.1801
     10 S           7.0203    0.8864   -0.5089 S.O2    1  UNL1        0.0342
     11 O           7.3832    2.3141   -0.3264 O.2     1  UNL1       -0.1579
     12 O           6.8041    0.2994    0.8801 O.2     1  UNL1       -0.1579
     13 C           8.3921    0.0067   -1.2168 C.3     1  UNL1        0.1067
     14 C           9.6318    0.2119   -0.4423 C.ar    1  UNL1       -0.0250
     15 C           9.9465   -0.6460    0.5883 C.ar    1  UNL1       -0.0570
     16 C          11.1014   -0.4810    1.3369 C.ar    1  UNL1       -0.0615
     17 C          11.9792    0.5493    1.0776 C.ar    1  UNL1       -0.0617
     18 C          11.6720    1.4134    0.0476 C.ar    1  UNL1       -0.0615
     19 C          10.5215    1.2361   -0.6860 C.ar    1  UNL1       -0.0570
     20 C           0.6734    0.3520    0.1442 C.2     1  UNL1        0.2338
     21 O           0.6348    1.1087   -0.8351 O.2     1  UNL1       -0.2738
     22 N          -0.5553    0.1292    0.8446 N.am    1  UNL1       -0.2981
     23 C          -1.8018    0.7539    0.4382 C.3     1  UNL1        0.1520
     24 C          -2.3675    1.6535    1.4887 C.3     1  UNL1        0.0043
     25 C          -3.6256    2.2587    0.9938 C.ar    1  UNL1       -0.0447
     26 C          -3.6266    3.4218    0.2324 C.ar    1  UNL1       -0.0551
     27 C          -4.7986    3.9926   -0.2139 C.ar    1  UNL1       -0.0194
     28 C          -6.0264    3.4334    0.0760 C.ar    1  UNL1        0.1420
     29 N          -7.2488    3.9940   -0.3698 N.pl3   1  UNL1       -0.0734
     30 C          -7.4875    5.2452   -0.2200 C.cat   1  UNL1        0.3821
     31 N          -6.5159    6.0656    0.3974 N.pl3   1  UNL1       -0.2889
     32 N          -8.7090    5.8115   -0.6655 N.pl3   1  UNL1       -0.2889
     33 C          -6.0471    2.2865    0.8260 C.ar    1  UNL1       -0.0194
     34 C          -4.8622    1.7187    1.2714 C.ar    1  UNL1       -0.0551
     35 P          -2.9253   -0.6313    0.1359 P.3     1  UNL1        0.4539
     36 O          -3.2555   -1.2350    1.5068 O.2     1  UNL1       -0.2304
     37 O          -4.3756   -0.2055   -0.6069 O.3     1  UNL1       -0.4144
     38 C          -5.3767   -1.1403   -0.6968 C.ar    1  UNL1        0.1309
     39 C          -5.8523   -1.5100   -1.9294 C.ar    1  UNL1       -0.0194
     40 C          -6.8701   -2.4580   -2.0638 C.ar    1  UNL1       -0.0583
     41 C          -7.4209   -3.0461   -0.9400 C.ar    1  UNL1       -0.0615
     42 C          -6.9479   -2.6790    0.2902 C.ar    1  UNL1       -0.0583
     43 C          -5.9437   -1.7421    0.4015 C.ar    1  UNL1       -0.0194
     44 O          -2.1120   -1.8915   -0.7113 O.3     1  UNL1       -0.4144
     45 C          -2.5851   -3.2050   -0.5818 C.ar    1  UNL1        0.1309
     46 C          -3.3202   -3.7579   -1.6067 C.ar    1  UNL1       -0.0194
     47 C          -3.8130   -5.0645   -1.5205 C.ar    1  UNL1       -0.0583
     48 C          -3.5727   -5.8335   -0.4011 C.ar    1  UNL1       -0.0615
     49 C          -2.8371   -5.2851    0.6278 C.ar    1  UNL1       -0.0583
     50 C          -2.3516   -3.9828    0.5313 C.ar    1  UNL1       -0.0194
     51 H           1.1982   -0.7967    2.6205 H       1  UNL1        0.0252
     52 H           2.9267   -0.3677    2.5691 H       1  UNL1        0.0252
     53 H           1.6419    0.9184    2.4356 H       1  UNL1        0.0252
     54 H           1.6708   -1.4453    0.5171 H       1  UNL1        0.0592
     55 H           3.4117    0.9399    0.0154 H       1  UNL1        0.1495
     56 H           5.9337   -1.2869   -0.8622 H       1  UNL1        0.0596
     57 H           6.2175   -1.2503   -3.1681 H       1  UNL1        0.0578
     58 H           4.7960   -2.2697   -2.8051 H       1  UNL1        0.0578
     59 H           4.2067    0.3960   -3.3910 H       1  UNL1        0.2095
     60 H           4.8589    1.3654   -1.3039 H       1  UNL1        0.1486
     61 H           8.1741   -1.0656   -1.3493 H       1  UNL1        0.0565
     62 H           8.5679    0.4378   -2.2220 H       1  UNL1        0.0565
     63 H           9.2773   -1.4712    0.8199 H       1  UNL1        0.0621
     64 H          11.3066   -1.1840    2.1415 H       1  UNL1        0.0618
     65 H          12.8862    0.6646    1.6794 H       1  UNL1        0.0618
     66 H          12.3570    2.2208   -0.1567 H       1  UNL1        0.0618
     67 H          10.3231    1.9315   -1.4782 H       1  UNL1        0.0621
     68 H          -0.5894   -0.4979    1.6804 H       1  UNL1        0.1497
     69 H          -1.5916    1.2868   -0.5007 H       1  UNL1        0.0651
     70 H          -2.6556    1.0573    2.3993 H       1  UNL1        0.0338
     71 H          -1.6489    2.4081    1.8624 H       1  UNL1        0.0338
     72 H          -2.6909    3.8900   -0.0158 H       1  UNL1        0.0621
     73 H          -4.8035    4.9119   -0.8151 H       1  UNL1        0.0653
     74 H          -6.2121    5.8364    1.3640 H       1  UNL1        0.2547
     75 H          -6.1375    6.8730   -0.1394 H       1  UNL1        0.2547
     76 H          -8.8831    6.0415   -1.6609 H       1  UNL1        0.2547
     77 H          -9.4684    6.0088    0.0199 H       1  UNL1        0.2547
     78 H          -7.0154    1.8228    1.0695 H       1  UNL1        0.0653
     79 H          -4.9836    0.8215    1.8604 H       1  UNL1        0.0621
     80 H          -5.4308   -1.0598   -2.8016 H       1  UNL1        0.0654
     81 H          -7.2165   -2.7212   -3.0585 H       1  UNL1        0.0619
     82 H          -8.2082   -3.7755   -1.0942 H       1  UNL1        0.0618
     83 H          -7.3575   -3.1221    1.1703 H       1  UNL1        0.0619
     84 H          -5.5776   -1.4583    1.3694 H       1  UNL1        0.0654
     85 H          -3.5095   -3.1618   -2.4797 H       1  UNL1        0.0654
     86 H          -4.3922   -5.4850   -2.3378 H       1  UNL1        0.0619
     87 H          -3.9748   -6.8322   -0.3903 H       1  UNL1        0.0618
     88 H          -2.6601   -5.9028    1.4953 H       1  UNL1        0.0619
     89 H          -1.7732   -3.5678    1.3574 H       1  UNL1        0.0654
@<TRIPOS>BOND
     1     1     2    1
     2     2     3    1
     3     3     4   am
     4     4     5    2
     5     4     6    1
     6     6     7    1
     7     7     8    1
     8     6     9    1
     9     9    10    1
    10    10    11    2
    11    10    12    2
    12    10    13    1
    13    13    14    1
    14    14    15   ar
    15    15    16   ar
    16    16    17   ar
    17    17    18   ar
    18    18    19   ar
    19     2    20    1
    20    20    21    2
    21    20    22   am
    22    22    23    1
    23    23    24    1
    24    24    25    1
    25    25    26   ar
    26    26    27   ar
    27    27    28   ar
    28    28    29    1
    29    29    30    2
    30    30    31    1
    31    30    32    1
    32    28    33   ar
    33    33    34   ar
    34    23    35    1
    35    35    36    2
    36    35    37    1
    37    37    38    1
    38    38    39   ar
    39    39    40   ar
    40    40    41   ar
    41    41    42   ar
    42    42    43   ar
    43    35    44    1
    44    44    45    1
    45    45    46   ar
    46    46    47   ar
    47    47    48   ar
    48    48    49   ar
    49    49    50   ar
    50    19    14   ar
    51    34    25   ar
    52    43    38   ar
    53    50    45   ar
    54     1    51    1
    55     1    52    1
    56     1    53    1
    57     2    54    1
    58     3    55    1
    59     6    56    1
    60     7    57    1
    61     7    58    1
    62     8    59    1
    63     9    60    1
    64    13    61    1
    65    13    62    1
    66    15    63    1
    67    16    64    1
    68    17    65    1
    69    18    66    1
    70    19    67    1
    71    22    68    1
    72    23    69    1
    73    24    70    1
    74    24    71    1
    75    26    72    1
    76    27    73    1
    77    31    74    1
    78    31    75    1
    79    32    76    1
    80    32    77    1
    81    33    78    1
    82    34    79    1
    83    39    80    1
    84    40    81    1
    85    41    82    1
    86    42    83    1
    87    43    84    1
    88    46    85    1
    89    47    86    1
    90    48    87    1
    91    49    88    1
    92    50    89    1
