
     RDKit          3D

 48 49  0  0  0  0  0  0  0  0999 V2000
   -3.4216   -0.4425    1.8894 C   0  0  0  0  0  0  0  0  0  0  0  0
   -2.7972   -0.3524    0.6076 N   0  0  0  0  0  0  0  0  0  0  0  0
   -3.7910   -0.3376   -0.4131 C   0  0  0  0  0  0  0  0  0  0  0  0
   -4.6338    0.9143   -0.4287 C   0  0  0  0  0  0  0  0  0  0  0  0
   -5.6772    0.9185   -1.5066 C   0  0  0  0  0  0  0  0  0  0  0  0
   -6.6572   -0.2100   -1.3975 C   0  0  0  0  0  0  0  0  0  0  0  0
   -7.4233   -0.2085   -0.1139 C   0  0  0  0  0  0  0  0  0  0  0  0
   -7.3929    0.6475    0.9947 O   0  0  0  0  0  0  0  0  0  0  0  0
   -8.3105   -1.0152    0.2769 O   0  0  0  0  0  0  0  0  0  0  0  0
   -1.3907   -0.2854    0.4117 C   0  0  0  0  0  0  0  0  0  0  0  0
   -0.4993   -0.2996    1.4574 C   0  0  0  0  0  0  0  0  0  0  0  0
    0.8826   -0.2362    1.2744 C   0  0  0  0  0  0  0  0  0  0  0  0
    1.4188   -0.1556    0.0198 C   0  0  0  0  0  0  0  0  0  0  0  0
    2.8521   -0.0864   -0.2463 C   0  0  0  0  0  0  0  0  0  0  0  0
    3.8126   -0.0859    0.6447 C   0  0  0  0  0  0  0  0  0  0  0  0
    5.2558   -0.0199    0.4548 C   0  0  0  0  0  0  0  0  0  0  0  0
    6.1420   -0.0235    1.5118 C   0  0  0  0  0  0  0  0  0  0  0  0
    7.5038    0.0374    1.3190 C   0  0  0  0  0  0  0  0  0  0  0  0
    8.0504    0.1049    0.0599 C   0  0  0  0  0  0  0  0  0  0  0  0
    7.1492    0.1074   -0.9796 C   0  0  0  0  0  0  0  0  0  0  0  0
    5.7577    0.0474   -0.8382 C   0  0  0  0  0  0  0  0  0  0  0  0
    9.4464    0.1668   -0.1606 N   0  0  0  0  0  4  0  0  0  0  0  0
    9.8790    0.2308   -1.4620 O   0  0  0  0  0  1  0  0  0  0  0  0
   10.1973    0.1600    0.8533 O   0  0  0  0  0  0  0  0  0  0  0  0
    0.5471   -0.1394   -1.0467 C   0  0  0  0  0  0  0  0  0  0  0  0
   -0.8123   -0.2035   -0.8313 C   0  0  0  0  0  0  0  0  0  0  0  0
   -2.7375   -0.8998    2.6353 H   0  0  0  0  0  0  0  0  0  0  0  0
   -4.3299   -1.1142    1.9106 H   0  0  0  0  0  0  0  0  0  0  0  0
   -3.6968    0.5494    2.3154 H   0  0  0  0  0  0  0  0  0  0  0  0
   -3.3534   -0.4501   -1.4219 H   0  0  0  0  0  0  0  0  0  0  0  0
   -4.4311   -1.2588   -0.2968 H   0  0  0  0  0  0  0  0  0  0  0  0
   -3.9749    1.7804   -0.6330 H   0  0  0  0  0  0  0  0  0  0  0  0
   -5.1307    1.1263    0.5308 H   0  0  0  0  0  0  0  0  0  0  0  0
   -6.1905    1.8864   -1.4735 H   0  0  0  0  0  0  0  0  0  0  0  0
   -5.1967    0.8171   -2.4963 H   0  0  0  0  0  0  0  0  0  0  0  0
   -7.4283   -0.0184   -2.1983 H   0  0  0  0  0  0  0  0  0  0  0  0
   -6.2150   -1.1826   -1.6053 H   0  0  0  0  0  0  0  0  0  0  0  0
   -6.9958    0.3964    1.8869 H   0  0  0  0  0  0  0  0  0  0  0  0
   -0.8182   -0.3582    2.4701 H   0  0  0  0  0  0  0  0  0  0  0  0
    1.5318   -0.2517    2.1415 H   0  0  0  0  0  0  0  0  0  0  0  0
    3.2086   -0.0285   -1.2623 H   0  0  0  0  0  0  0  0  0  0  0  0
    3.4877   -0.1446    1.6963 H   0  0  0  0  0  0  0  0  0  0  0  0
    5.7505   -0.0756    2.5185 H   0  0  0  0  0  0  0  0  0  0  0  0
    8.1279    0.0303    2.1904 H   0  0  0  0  0  0  0  0  0  0  0  0
    7.5613    0.1613   -1.9955 H   0  0  0  0  0  0  0  0  0  0  0  0
    5.1660    0.0573   -1.7414 H   0  0  0  0  0  0  0  0  0  0  0  0
    0.9730   -0.0736   -2.0545 H   0  0  0  0  0  0  0  0  0  0  0  0
   -1.3961   -0.1819   -1.7358 H   0  0  0  0  0  0  0  0  0  0  0  0
  1  2  1  0
  2  3  1  0
  3  4  1  0
  4  5  1  0
  5  6  1  0
  6  7  1  0
  7  8  1  0
  7  9  2  0
  2 10  1  0
 10 11  2  0
 11 12  1  0
 12 13  2  0
 13 14  1  0
 14 15  2  0
 15 16  1  0
 16 17  2  0
 17 18  1  0
 18 19  2  0
 19 20  1  0
 20 21  2  0
 19 22  1  0
 22 23  1  0
 22 24  2  0
 13 25  1  0
 25 26  2  0
 26 10  1  0
 21 16  1  0
  1 27  1  0
  1 28  1  0
  1 29  1  0
  3 30  1  0
  3 31  1  0
  4 32  1  0
  4 33  1  0
  5 34  1  0
  5 35  1  0
  6 36  1  0
  6 37  1  0
  8 38  1  0
 11 39  1  0
 12 40  1  0
 14 41  1  0
 15 42  1  0
 17 43  1  0
 18 44  1  0
 20 45  1  0
 21 46  1  0
 25 47  1  0
 26 48  1  0
M  CHG  2  22   1  23  -1
M  END
$$$$
