
     RDKit          3D

 52 55  0  0  0  0  0  0  0  0999 V2000
    4.6228    0.8101   -2.3225 C   0  0  0  0  0  0  0  0  0  0  0  0
    4.3534    0.6351   -0.8108 C   0  0  1  0  0  0  0  0  0  0  0  0
    3.0104    0.5870   -0.6487 O   0  0  0  0  0  0  0  0  0  0  0  0
    2.1085    1.3683   -0.0190 C   0  0  0  0  0  0  0  0  0  0  0  0
    0.7550    0.9322   -0.1073 C   0  0  0  0  0  0  0  0  0  0  0  0
   -0.2348    1.6491    0.4935 C   0  0  0  0  0  0  0  0  0  0  0  0
   -1.6467    1.2214    0.4198 C   0  0  0  0  0  0  0  0  0  0  0  0
   -2.7338    2.0525    0.4203 C   0  0  0  0  0  0  0  0  0  0  0  0
   -3.8329    1.2688    0.3414 N   0  0  0  0  0  0  0  0  0  0  0  0
   -3.5065   -0.0039    0.2912 N   0  0  0  0  0  0  0  0  0  0  0  0
   -4.4026   -1.1463    0.2026 C   0  0  0  0  0  0  0  0  0  0  0  0
   -5.0808   -1.1758   -1.1342 C   0  0  0  0  0  0  0  0  0  0  0  0
   -6.5511   -1.4410   -0.9170 C   0  0  0  0  0  0  0  0  0  0  0  0
   -7.1374   -0.3605   -0.1488 N   0  0  0  0  0  0  0  0  0  0  0  0
   -6.5430   -0.2453    1.1662 C   0  0  0  0  0  0  0  0  0  0  0  0
   -5.3765   -1.1608    1.3617 C   0  0  0  0  0  0  0  0  0  0  0  0
   -2.1419   -0.0516    0.3393 C   0  0  0  0  0  0  0  0  0  0  0  0
    0.1054    2.7971    1.1828 C   0  0  0  0  0  0  0  0  0  0  0  0
    1.3536    3.2409    1.2909 N   0  0  0  0  0  0  0  0  0  0  0  0
    2.3536    2.5190    0.6855 C   0  0  0  0  0  0  0  0  0  0  0  0
    3.6872    2.9979    0.8050 N   0  0  0  0  0  0  0  0  0  0  0  0
    5.0571   -0.6082   -0.3536 C   0  0  0  0  0  0  0  0  0  0  0  0
    6.3451   -0.5266    0.1155 C   0  0  0  0  0  0  0  0  0  0  0  0
    7.2149    0.9939    0.2035 Cl  0  0  0  0  0  0  0  0  0  0  0  0
    6.9938   -1.6907    0.5400 C   0  0  0  0  0  0  0  0  0  0  0  0
    6.3162   -2.8957    0.4749 C   0  0  0  0  0  0  0  0  0  0  0  0
    5.0349   -2.9679    0.0068 C   0  0  0  0  0  0  0  0  0  0  0  0
    4.3833   -4.1479   -0.0525 F   0  0  0  0  0  0  0  0  0  0  0  0
    4.4092   -1.7960   -0.4104 C   0  0  0  0  0  0  0  0  0  0  0  0
    2.7784   -1.9185   -1.0027 Cl  0  0  0  0  0  0  0  0  0  0  0  0
    4.2558   -0.1136   -2.7993 H   0  0  0  0  0  0  0  0  0  0  0  0
    5.7021    0.9078   -2.4434 H   0  0  0  0  0  0  0  0  0  0  0  0
    4.0301    1.6601   -2.6910 H   0  0  0  0  0  0  0  0  0  0  0  0
    4.8588    1.4893   -0.3509 H   0  0  0  0  0  0  0  0  0  0  0  0
    0.5269    0.0273   -0.6566 H   0  0  0  0  0  0  0  0  0  0  0  0
   -2.6736    3.1249    0.4749 H   0  0  0  0  0  0  0  0  0  0  0  0
   -3.7815   -2.0567    0.3052 H   0  0  0  0  0  0  0  0  0  0  0  0
   -4.6828   -2.0167   -1.7598 H   0  0  0  0  0  0  0  0  0  0  0  0
   -4.9306   -0.2408   -1.7124 H   0  0  0  0  0  0  0  0  0  0  0  0
   -6.6209   -2.3753   -0.2947 H   0  0  0  0  0  0  0  0  0  0  0  0
   -7.1213   -1.5438   -1.8533 H   0  0  0  0  0  0  0  0  0  0  0  0
   -8.1652   -0.5441   -0.1034 H   0  0  0  0  0  0  0  0  0  0  0  0
   -7.3122   -0.5232    1.9238 H   0  0  0  0  0  0  0  0  0  0  0  0
   -6.2604    0.8066    1.3743 H   0  0  0  0  0  0  0  0  0  0  0  0
   -4.8015   -0.7672    2.2496 H   0  0  0  0  0  0  0  0  0  0  0  0
   -5.7493   -2.1809    1.5393 H   0  0  0  0  0  0  0  0  0  0  0  0
   -1.5335   -0.9433    0.3183 H   0  0  0  0  0  0  0  0  0  0  0  0
   -0.6854    3.3577    1.6550 H   0  0  0  0  0  0  0  0  0  0  0  0
    4.3294    2.7159    1.5938 H   0  0  0  0  0  0  0  0  0  0  0  0
    4.0624    3.6689    0.0864 H   0  0  0  0  0  0  0  0  0  0  0  0
    8.0065   -1.6075    0.9060 H   0  0  0  0  0  0  0  0  0  0  0  0
    6.8517   -3.7820    0.8137 H   0  0  0  0  0  0  0  0  0  0  0  0
  1  2  1  0
  2  3  1  0
  3  4  1  0
  4  5  2  0
  5  6  1  0
  6  7  1  0
  7  8  1  0
  8  9  2  0
  9 10  1  0
 10 11  1  0
 11 12  1  0
 12 13  1  0
 13 14  1  0
 14 15  1  0
 15 16  1  0
 10 17  1  0
  6 18  2  0
 18 19  1  0
 19 20  2  0
 20 21  1  0
  2 22  1  0
 22 23  2  0
 23 24  1  0
 23 25  1  0
 25 26  2  0
 26 27  1  0
 27 28  1  0
 27 29  2  0
 29 30  1  0
 20  4  1  0
 29 22  1  0
 17  7  2  0
 16 11  1  0
  1 31  1  0
  1 32  1  0
  1 33  1  0
  2 34  1  1
  5 35  1  0
  8 36  1  0
 11 37  1  0
 12 38  1  0
 12 39  1  0
 13 40  1  0
 13 41  1  0
 14 42  1  0
 15 43  1  0
 15 44  1  0
 16 45  1  0
 16 46  1  0
 17 47  1  0
 18 48  1  0
 21 49  1  0
 21 50  1  0
 25 51  1  0
 26 52  1  0
M  END
$$$$
