@<TRIPOS>MOLECULE
*****
 52 55 0 0 0
SMALL
GASTEIGER

@<TRIPOS>ATOM
      1 C           4.6228    0.8101   -2.3225 C.3     1  UNL1       -0.0234
      2 C           4.3534    0.6351   -0.8108 C.3     1  UNL1        0.1253
      3 O           3.0104    0.5870   -0.6487 O.3     1  UNL1       -0.4810
      4 C           2.1085    1.3683   -0.0190 C.ar    1  UNL1        0.1613
      5 C           0.7550    0.9322   -0.1073 C.ar    1  UNL1       -0.0072
      6 C          -0.2348    1.6491    0.4935 C.ar    1  UNL1        0.0068
      7 C          -1.6467    1.2214    0.4198 C.ar    1  UNL1        0.0211
      8 C          -2.7338    2.0525    0.4203 C.ar    1  UNL1        0.0571
      9 N          -3.8329    1.2688    0.3414 N.ar    1  UNL1       -0.1788
     10 N          -3.5065   -0.0039    0.2912 N.ar    1  UNL1       -0.2677
     11 C          -4.4026   -1.1463    0.2026 C.3     1  UNL1        0.0550
     12 C          -5.0808   -1.1758   -1.1342 C.3     1  UNL1       -0.0179
     13 C          -6.5511   -1.4410   -0.9170 C.3     1  UNL1       -0.0022
     14 N          -7.1374   -0.3605   -0.1488 N.3     1  UNL1       -0.3158
     15 C          -6.5430   -0.2453    1.1662 C.3     1  UNL1       -0.0022
     16 C          -5.3765   -1.1608    1.3617 C.3     1  UNL1       -0.0179
     17 C          -2.1419   -0.0516    0.3393 C.ar    1  UNL1        0.0336
     18 C           0.1054    2.7971    1.1828 C.ar    1  UNL1        0.0377
     19 N           1.3536    3.2409    1.2909 N.ar    1  UNL1       -0.2364
     20 C           2.3536    2.5190    0.6855 C.ar    1  UNL1        0.1583
     21 N           3.6872    2.9979    0.8050 N.pl3   1  UNL1       -0.3402
     22 C           5.0571   -0.6082   -0.3536 C.ar    1  UNL1        0.0318
     23 C           6.3451   -0.5266    0.1155 C.ar    1  UNL1        0.0492
     24 CL          7.2149    0.9939    0.2035 Cl      1  UNL1       -0.0831
     25 C           6.9938   -1.6907    0.5400 C.ar    1  UNL1       -0.0402
     26 C           6.3162   -2.8957    0.4749 C.ar    1  UNL1       -0.0236
     27 C           5.0349   -2.9679    0.0068 C.ar    1  UNL1        0.1421
     28 F           4.3833   -4.1479   -0.0525 F       1  UNL1       -0.2039
     29 C           4.4092   -1.7960   -0.4104 C.ar    1  UNL1        0.0841
     30 CL          2.7784   -1.9185   -1.0027 Cl      1  UNL1       -0.0801
     31 H           4.2558   -0.1136   -2.7993 H       1  UNL1        0.0269
     32 H           5.7021    0.9078   -2.4434 H       1  UNL1        0.0269
     33 H           4.0301    1.6601   -2.6910 H       1  UNL1        0.0269
     34 H           4.8588    1.4893   -0.3509 H       1  UNL1        0.0782
     35 H           0.5269    0.0273   -0.6566 H       1  UNL1        0.0662
     36 H          -2.6736    3.1249    0.4749 H       1  UNL1        0.0854
     37 H          -3.7815   -2.0567    0.3052 H       1  UNL1        0.0545
     38 H          -4.6828   -2.0167   -1.7598 H       1  UNL1        0.0298
     39 H          -4.9306   -0.2408   -1.7124 H       1  UNL1        0.0298
     40 H          -6.6209   -2.3753   -0.2947 H       1  UNL1        0.0425
     41 H          -7.1213   -1.5438   -1.8533 H       1  UNL1        0.0425
     42 H          -8.1652   -0.5441   -0.1034 H       1  UNL1        0.1219
     43 H          -7.3122   -0.5232    1.9238 H       1  UNL1        0.0425
     44 H          -6.2604    0.8066    1.3743 H       1  UNL1        0.0425
     45 H          -4.8015   -0.7672    2.2496 H       1  UNL1        0.0298
     46 H          -5.7493   -2.1809    1.5393 H       1  UNL1        0.0298
     47 H          -1.5335   -0.9433    0.3183 H       1  UNL1        0.0832
     48 H          -0.6854    3.3577    1.6550 H       1  UNL1        0.0836
     49 H           4.3294    2.7159    1.5938 H       1  UNL1        0.1438
     50 H           4.0624    3.6689    0.0864 H       1  UNL1        0.1438
     51 H           8.0065   -1.6075    0.9060 H       1  UNL1        0.0633
     52 H           6.8517   -3.7820    0.8137 H       1  UNL1        0.0647
@<TRIPOS>BOND
     1     1     2    1
     2     2     3    1
     3     3     4    1
     4     4     5   ar
     5     5     6   ar
     6     6     7    1
     7     7     8   ar
     8     8     9   ar
     9     9    10   ar
    10    10    11    1
    11    11    12    1
    12    12    13    1
    13    13    14    1
    14    14    15    1
    15    15    16    1
    16    10    17   ar
    17     6    18   ar
    18    18    19   ar
    19    19    20   ar
    20    20    21    1
    21     2    22    1
    22    22    23   ar
    23    23    24    1
    24    23    25   ar
    25    25    26   ar
    26    26    27   ar
    27    27    28    1
    28    27    29   ar
    29    29    30    1
    30    20     4   ar
    31    29    22   ar
    32    17     7   ar
    33    16    11    1
    34     1    31    1
    35     1    32    1
    36     1    33    1
    37     2    34    1
    38     5    35    1
    39     8    36    1
    40    11    37    1
    41    12    38    1
    42    12    39    1
    43    13    40    1
    44    13    41    1
    45    14    42    1
    46    15    43    1
    47    15    44    1
    48    16    45    1
    49    16    46    1
    50    17    47    1
    51    18    48    1
    52    21    49    1
    53    21    50    1
    54    25    51    1
    55    26    52    1
