@<TRIPOS>MOLECULE
*****
 56 60 0 0 0
SMALL
GASTEIGER

@<TRIPOS>ATOM
      1 C          -0.4358   -0.6801   -3.3555 C.3     1  UNL1       -0.0351
      2 C          -0.5633   -0.6162   -1.8144 C.3     1  UNL1        0.0935
      3 C           0.3723    0.4693   -1.4213 C.ar    1  UNL1        0.0158
      4 C           1.5419    0.1976   -0.7516 C.ar    1  UNL1       -0.0463
      5 C           2.4367    1.1737   -0.3783 C.ar    1  UNL1       -0.0217
      6 C           3.7069    0.8838    0.3193 C.2     1  UNL1       -0.0172
      7 C           4.4715   -0.1356    0.0085 C.2     1  UNL1        0.1492
      8 F           4.0798   -0.9663   -0.9998 F       1  UNL1       -0.2032
      9 C           5.7391   -0.4009    0.6945 C.ar    1  UNL1        0.0990
     10 C           6.2395    0.3873    1.7016 C.ar    1  UNL1       -0.0321
     11 C           7.4381    0.1175    2.3269 C.ar    1  UNL1       -0.0398
     12 C           8.1752   -0.9795    1.9405 C.ar    1  UNL1        0.0591
     13 CL          9.7010   -1.4148    2.6618 Cl      1  UNL1       -0.0820
     14 C           7.6463   -1.7648    0.9156 C.ar    1  UNL1        0.0466
     15 N           6.4830   -1.4825    0.3255 N.ar    1  UNL1       -0.2512
     16 C           2.1489    2.4964   -0.6892 C.ar    1  UNL1       -0.0518
     17 C           0.9931    2.8042   -1.3557 C.ar    1  UNL1       -0.0255
     18 C           0.1192    1.8105   -1.7166 C.ar    1  UNL1        0.1289
     19 F          -1.0173    2.0960   -2.3698 F       1  UNL1       -0.2051
     20 N          -0.1025   -1.8902   -1.3854 N.2     1  UNL1       -0.2521
     21 C          -0.4801   -2.5697   -0.3991 C.2     1  UNL1        0.1485
     22 N           0.0925   -3.8226   -0.1214 N.pl3   1  UNL1       -0.3380
     23 S          -1.7660   -1.9091    0.6478 S.3     1  UNL1       -0.0746
     24 C          -2.6356   -0.7001   -0.3345 C.3     1  UNL1        0.1054
     25 C          -4.1352   -0.8547   -0.3351 C.2     1  UNL1        0.2324
     26 O          -4.7005   -1.5066   -1.2756 O.2     1  UNL1       -0.2741
     27 N          -4.9443   -0.3047    0.6627 N.am    1  UNL1       -0.3003
     28 C          -6.3736   -0.3664    0.7701 C.3     1  UNL1        0.0148
     29 C          -6.7118    1.0925    1.0295 C.3     1  UNL1       -0.0357
     30 C          -5.6127    1.4946    2.0033 C.3     1  UNL1       -0.0357
     31 C          -4.5044    0.4539    1.8060 C.3     1  UNL1        0.0148
     32 C          -2.1718    0.6979   -0.3434 C.3     1  UNL1       -0.0220
     33 C          -1.9832   -0.2669   -1.5564 C.3     1  UNL1        0.0134
     34 H           0.6329   -0.5257   -3.6488 H       1  UNL1        0.0256
     35 H          -0.7128   -1.6642   -3.7393 H       1  UNL1        0.0256
     36 H          -1.0168    0.1216   -3.8366 H       1  UNL1        0.0256
     37 H           1.7973   -0.8262   -0.4914 H       1  UNL1        0.0628
     38 H           3.9867    1.5648    1.1262 H       1  UNL1        0.0653
     39 H           5.7068    1.2530    2.0436 H       1  UNL1        0.0640
     40 H           7.8355    0.7479    3.1283 H       1  UNL1        0.0633
     41 H           8.2079   -2.6457    0.5825 H       1  UNL1        0.0844
     42 H           2.8671    3.2526   -0.3847 H       1  UNL1        0.0624
     43 H           0.7825    3.8274   -1.5900 H       1  UNL1        0.0646
     44 H          -0.4627   -4.6989   -0.1316 H       1  UNL1        0.1442
     45 H           1.1030   -3.8901    0.1026 H       1  UNL1        0.1442
     46 H          -6.6427   -0.9149    1.6776 H       1  UNL1        0.0464
     47 H          -6.8713   -0.7472   -0.1420 H       1  UNL1        0.0464
     48 H          -6.5466    1.6336    0.0647 H       1  UNL1        0.0281
     49 H          -7.7138    1.2490    1.4316 H       1  UNL1        0.0281
     50 H          -5.2347    2.5104    1.7994 H       1  UNL1        0.0281
     51 H          -6.0408    1.4406    3.0213 H       1  UNL1        0.0281
     52 H          -3.5123    0.8937    1.7312 H       1  UNL1        0.0464
     53 H          -4.5546   -0.2438    2.6818 H       1  UNL1        0.0464
     54 H          -1.2984    0.9533    0.2506 H       1  UNL1        0.0287
     55 H          -2.8838    1.5228   -0.4841 H       1  UNL1        0.0287
     56 H          -2.6759   -0.0084   -2.4037 H       1  UNL1        0.0346
@<TRIPOS>BOND
     1     2     1    1
     2     2     3    1
     3     3     4   ar
     4     4     5   ar
     5     5     6    1
     6     6     7    2
     7     7     8    1
     8     7     9    1
     9     9    10   ar
    10    10    11   ar
    11    11    12   ar
    12    12    13    1
    13    12    14   ar
    14    14    15   ar
    15     5    16   ar
    16    16    17   ar
    17    17    18   ar
    18    18    19    1
    19     2    20    1
    20    20    21    2
    21    21    22    1
    22    21    23    1
    23    23    24    1
    24    24    25    1
    25    25    26    2
    26    25    27   am
    27    27    28    1
    28    28    29    1
    29    29    30    1
    30    30    31    1
    31    24    32    1
    32    32    33    1
    33    33     2    1
    34    18     3   ar
    35    33    24    1
    36    15     9   ar
    37    31    27    1
    38     1    34    1
    39     1    35    1
    40     1    36    1
    41     4    37    1
    42     6    38    1
    43    10    39    1
    44    11    40    1
    45    14    41    1
    46    16    42    1
    47    17    43    1
    48    22    44    1
    49    22    45    1
    50    28    46    1
    51    28    47    1
    52    29    48    1
    53    29    49    1
    54    30    50    1
    55    30    51    1
    56    31    52    1
    57    31    53    1
    58    32    54    1
    59    32    55    1
    60    33    56    1
