@<TRIPOS>MOLECULE
*****
 60 63 0 0 0
SMALL
GASTEIGER

@<TRIPOS>ATOM
      1 C           0.7451    1.0710   -0.2916 C.3     1  UNL1       -0.0249
      2 C           1.1702    2.2595   -1.1265 C.3     1  UNL1       -0.0450
      3 C           2.6179    1.9804   -1.3282 C.3     1  UNL1       -0.0049
      4 C           2.8582    0.4893   -0.9665 C.3     1  UNL1        0.1759
      5 O           3.2830    0.5333    0.3579 O.3     1  UNL1       -0.4500
      6 C           3.6860   -0.5258    1.1132 C.2     1  UNL1        0.3049
      7 C           4.0647   -0.1406    2.5076 C.3     1  UNL1        0.0333
      8 O           3.7495   -1.6991    0.7328 O.2     1  UNL1       -0.2511
      9 C           3.8631   -0.0018   -1.9150 C.2     1  UNL1        0.1741
     10 C           5.2173   -0.3898   -1.4858 C.3     1  UNL1       -0.0020
     11 O           3.7242   -0.1514   -3.1426 O.2     1  UNL1       -0.2934
     12 C           1.4803   -0.0354   -1.0728 C.3     1  UNL1        0.0182
     13 C           0.9954    0.0634   -2.5083 C.3     1  UNL1       -0.0552
     14 C           1.1115   -1.2961   -0.4122 C.3     1  UNL1       -0.0430
     15 C          -0.3855   -1.5056   -0.7456 C.3     1  UNL1       -0.0482
     16 C          -1.1137   -0.5094    0.0900 C.3     1  UNL1       -0.0251
     17 C          -0.7212    0.8980   -0.2140 C.3     1  UNL1       -0.0153
     18 C          -1.2021    1.7152    0.9464 C.2     1  UNL1       -0.0772
     19 C          -2.3330    1.3505    1.5665 C.2     1  UNL1       -0.0503
     20 C          -2.8867    2.1134    2.7384 C.3     1  UNL1       -0.0397
     21 C          -3.1347    0.1904    1.1746 C.2     1  UNL1       -0.0353
     22 C          -4.3013   -0.0838    1.7163 C.2     1  UNL1       -0.0153
     23 C          -5.0365   -1.2478    1.2782 C.2     1  UNL1        0.1564
     24 O          -6.2906   -1.2760    1.3065 O.2     1  UNL1       -0.2927
     25 C          -4.3135   -2.4363    0.7845 C.3     1  UNL1        0.0107
     26 C          -2.8778   -2.1584    0.4253 C.3     1  UNL1       -0.0363
     27 C          -2.6041   -0.7209    0.1133 C.3     1  UNL1       -0.0029
     28 C          -3.2621   -0.3501   -1.1855 C.3     1  UNL1       -0.0552
     29 H           1.2096    1.2027    0.7090 H       1  UNL1        0.0313
     30 H           0.5914    2.3400   -2.0653 H       1  UNL1        0.0270
     31 H           1.0322    3.1732   -0.4925 H       1  UNL1        0.0270
     32 H           3.2187    2.6483   -0.6790 H       1  UNL1        0.0308
     33 H           2.9715    2.1726   -2.3557 H       1  UNL1        0.0308
     34 H           4.6025    0.8445    2.5286 H       1  UNL1        0.0342
     35 H           4.7074   -0.9276    2.9477 H       1  UNL1        0.0342
     36 H           3.1890   -0.0107    3.1467 H       1  UNL1        0.0342
     37 H           5.4313   -1.4494   -1.4239 H       1  UNL1        0.0307
     38 H           5.4906    0.0382   -0.4742 H       1  UNL1        0.0307
     39 H           5.9526    0.1384   -2.1628 H       1  UNL1        0.0307
     40 H          -0.0425    0.4572   -2.5445 H       1  UNL1        0.0237
     41 H           1.6163    0.8200   -3.0389 H       1  UNL1        0.0237
     42 H           1.0782   -0.9025   -3.0363 H       1  UNL1        0.0237
     43 H           1.5681   -2.2243   -0.7483 H       1  UNL1        0.0272
     44 H           1.1211   -1.1876    0.6939 H       1  UNL1        0.0272
     45 H          -0.4968   -1.3855   -1.8345 H       1  UNL1        0.0269
     46 H          -0.6313   -2.5316   -0.4052 H       1  UNL1        0.0269
     47 H          -0.7774   -0.6956    1.1529 H       1  UNL1        0.0315
     48 H          -1.2434    1.3230   -1.0947 H       1  UNL1        0.0349
     49 H          -0.7463    2.6037    1.3804 H       1  UNL1        0.0578
     50 H          -2.0695    2.7849    3.0788 H       1  UNL1        0.0278
     51 H          -3.7466    2.7184    2.3969 H       1  UNL1        0.0278
     52 H          -3.1135    1.4426    3.5757 H       1  UNL1        0.0278
     53 H          -4.7143    0.5586    2.4895 H       1  UNL1        0.0655
     54 H          -4.2730   -3.1883    1.6208 H       1  UNL1        0.0345
     55 H          -4.8768   -2.9012   -0.0665 H       1  UNL1        0.0345
     56 H          -2.6656   -2.7564   -0.4853 H       1  UNL1        0.0278
     57 H          -2.1537   -2.4875    1.2016 H       1  UNL1        0.0278
     58 H          -4.2013   -0.9498   -1.2410 H       1  UNL1        0.0238
     59 H          -3.5074    0.7319   -1.1620 H       1  UNL1        0.0238
     60 H          -2.6248   -0.5358   -2.0687 H       1  UNL1        0.0238
@<TRIPOS>BOND
     1     1     2    1
     2     2     3    1
     3     3     4    1
     4     4     5    1
     5     5     6    1
     6     6     7    1
     7     6     8    2
     8     4     9    1
     9     9    10    1
    10     9    11    2
    11     4    12    1
    12    12    13    1
    13    12    14    1
    14    14    15    1
    15    15    16    1
    16    16    17    1
    17    17    18    1
    18    18    19    2
    19    19    20    1
    20    19    21    1
    21    21    22    2
    22    22    23    1
    23    23    24    2
    24    23    25    1
    25    25    26    1
    26    26    27    1
    27    27    28    1
    28    12     1    1
    29    27    16    1
    30    17     1    1
    31    27    21    1
    32     1    29    1
    33     2    30    1
    34     2    31    1
    35     3    32    1
    36     3    33    1
    37     7    34    1
    38     7    35    1
    39     7    36    1
    40    10    37    1
    41    10    38    1
    42    10    39    1
    43    13    40    1
    44    13    41    1
    45    13    42    1
    46    14    43    1
    47    14    44    1
    48    15    45    1
    49    15    46    1
    50    16    47    1
    51    17    48    1
    52    18    49    1
    53    20    50    1
    54    20    51    1
    55    20    52    1
    56    22    53    1
    57    25    54    1
    58    25    55    1
    59    26    56    1
    60    26    57    1
    61    28    58    1
    62    28    59    1
    63    28    60    1
