@<TRIPOS>MOLECULE
*****
 32 34 0 0 0
SMALL
GASTEIGER

@<TRIPOS>ATOM
      1 N6          5.2352    0.8724    0.1979 N.pl3   1    A1       -0.3413
      2 C6          4.0770    0.2794   -0.3270 C.ar    1    A1        0.1472
      3 C5          2.8288    0.7804    0.0348 C.ar    1    A1        0.1473
      4 N7          2.3822    1.7749    0.8276 N.ar    1    A1       -0.2306
      5 C8          1.0238    1.7635    0.7686 C.ar    1    A1        0.1004
      6 N9          0.6510    0.7708   -0.0528 N.ar    1    A1       -0.2855
      7 C1*        -0.6853    0.4009   -0.4027 C.3     1    A1        0.1667
      8 O4*        -1.6599    0.9306    0.4320 O.3     1    A1       -0.3457
      9 C4*        -2.7537    0.1270    0.0682 C.3     1    A1        0.1126
     10 C5*        -3.9801    0.4331    0.8753 C.3     1    A1        0.0730
     11 O5*        -4.3065    1.7739    0.6546 O.3     1    A1       -0.3924
     12 C3*        -2.1888   -1.2461    0.3640 C.3     1    A1        0.1135
     13 O3*        -2.9562   -2.2573   -0.1953 O.3     1    A1       -0.3864
     14 C2*        -0.8262   -1.1176   -0.2981 C.3     1    A1        0.1285
     15 O2*        -0.7856   -1.6925   -1.5599 O.3     1    A1       -0.3847
     16 C4          1.7384    0.1433   -0.5234 C.ar    1    A1        0.1674
     17 N3          1.9335   -0.8930   -1.3595 N.ar    1    A1       -0.2159
     18 C2          3.1323   -1.3516   -1.6886 C.ar    1    A1        0.1205
     19 N1          4.2127   -0.7528   -1.1619 N.ar    1    A1       -0.2188
     20 H61         5.3460    1.8189   -0.2460 H       1    A1        0.1438
     21 H62         6.0648    0.8368    0.8297 H       1    A1        0.1438
     22 H8          0.4252    2.4655    1.3178 H       1    A1        0.1030
     23 H1*        -0.9701    0.7099   -1.4453 H       1    A1        0.0866
     24 H4*        -2.9415    0.2837   -0.9880 H       1    A1        0.0647
     25 H5*1       -3.8599    0.2691    1.9475 H       1    A1        0.0584
     26 H5*2       -4.8036   -0.1643    0.4253 H       1    A1        0.0584
     27 H5*        -3.8527    2.1311   -0.1656 H       1    A1        0.2095
     28 H3*        -2.0466   -1.3553    1.4466 H       1    A1        0.0647
     29 H3*        -2.3861   -2.9245   -0.6501 H       1    A1        0.2100
     30 H2*        -0.0244   -1.5530    0.3261 H       1    A1        0.0665
     31 H2*        -1.2043   -1.0637   -2.2151 H       1    A1        0.2101
     32 H2          3.1807   -2.1935   -2.3718 H       1    A1        0.1048
@<TRIPOS>BOND
     1     1     2    1
     2     2     3   ar
     3     3     4   ar
     4     4     5   ar
     5     5     6   ar
     6     6     7    1
     7     7     8    1
     8     8     9    1
     9     9    10    1
    10    10    11    1
    11     9    12    1
    12    12    13    1
    13    12    14    1
    14    14    15    1
    15     6    16   ar
    16    16    17   ar
    17    17    18   ar
    18    18    19   ar
    19    19     2   ar
    20    16     3   ar
    21    14     7    1
    22     1    20    1
    23     1    21    1
    24     5    22    1
    25     7    23    1
    26     9    24    1
    27    10    25    1
    28    10    26    1
    29    11    27    1
    30    12    28    1
    31    13    29    1
    32    14    30    1
    33    15    31    1
    34    18    32    1
