@<TRIPOS>MOLECULE
*****
 49 53 0 0 0
SMALL
GASTEIGER

@<TRIPOS>ATOM
      1 C          -1.9980    1.9178   -0.9113 C.3     1  UNL1       -0.0199
      2 C          -3.4017    1.5791   -0.5685 C.ar    1  UNL1        0.0706
      3 N          -4.5379    2.2356   -0.8536 N.ar    1  UNL1       -0.1760
      4 N          -5.6031    1.6260   -0.3804 N.ar    1  UNL1       -0.2735
      5 C          -7.0042    2.0307   -0.4872 C.3     1  UNL1        0.0302
      6 C          -5.1648    0.5263    0.2412 C.ar    1  UNL1        0.0361
      7 C          -3.7978    0.4665    0.1429 C.ar    1  UNL1        0.0576
      8 C          -2.8888   -0.5561    0.6716 C.ar    1  UNL1        0.1437
      9 N          -1.5485   -0.5795    0.5539 N.ar    1  UNL1       -0.2241
     10 C          -1.0332   -1.6656    1.1597 C.ar    1  UNL1        0.1307
     11 C           0.2831   -2.1198    1.3047 C.ar    1  UNL1        0.0792
     12 N           1.2899   -1.3245    0.7251 N.pl3   1  UNL1       -0.3246
     13 C           1.6724   -1.5967   -0.6477 C.3     1  UNL1        0.0251
     14 C           3.1822   -1.6092   -0.7026 C.3     1  UNL1        0.0151
     15 N           3.7111   -0.3522   -0.2661 N.3     1  UNL1       -0.2921
     16 C           4.4246    0.2654   -1.3441 C.3     1  UNL1        0.0623
     17 C           4.9880    1.5606   -0.9468 C.ar    1  UNL1        0.1853
     18 N           4.4012    2.7526   -1.0438 N.ar    1  UNL1       -0.1975
     19 C           5.2621    3.6649   -0.5697 C.ar    1  UNL1        0.2144
     20 O           6.3323    3.0057   -0.2039 O.2     1  UNL1       -0.3414
     21 N           6.1970    1.7482   -0.4173 N.ar    1  UNL1       -0.0603
     22 C           2.7354    0.5242    0.3266 C.3     1  UNL1        0.0151
     23 C           1.9782   -0.2470    1.3996 C.3     1  UNL1        0.0251
     24 C           0.5037   -3.2828    1.9860 C.ar    1  UNL1        0.0822
     25 CL          2.1479   -3.8400    2.1611 Cl      1  UNL1       -0.0800
     26 C          -0.5808   -3.9590    2.5013 C.ar    1  UNL1        0.0501
     27 N          -1.8369   -3.4989    2.3467 N.ar    1  UNL1       -0.2343
     28 C          -2.1048   -2.3579    1.6835 C.ar    1  UNL1        0.1600
     29 N          -3.2072   -1.6606    1.3704 N.ar    1  UNL1       -0.3226
     30 H          -1.4744    2.4327   -0.0863 H       1  UNL1        0.0293
     31 H          -1.4160    1.0373   -1.2580 H       1  UNL1        0.0293
     32 H          -2.0439    2.6090   -1.7967 H       1  UNL1        0.0293
     33 H          -7.2206    2.8094    0.2656 H       1  UNL1        0.0473
     34 H          -7.6526    1.1616   -0.2563 H       1  UNL1        0.0473
     35 H          -7.1860    2.3718   -1.5336 H       1  UNL1        0.0473
     36 H          -5.7791   -0.1950    0.7375 H       1  UNL1        0.0833
     37 H           1.2299   -2.5161   -1.0400 H       1  UNL1        0.0476
     38 H           1.2994   -0.7629   -1.2858 H       1  UNL1        0.0476
     39 H           3.5877   -2.3960   -0.0391 H       1  UNL1        0.0442
     40 H           3.5018   -1.8542   -1.7546 H       1  UNL1        0.0442
     41 H           3.7556    0.4257   -2.2213 H       1  UNL1        0.0508
     42 H           5.2432   -0.4489   -1.6433 H       1  UNL1        0.0508
     43 H           5.0616    4.7319   -0.5207 H       1  UNL1        0.1283
     44 H           1.9977    0.9253   -0.3773 H       1  UNL1        0.0442
     45 H           3.2617    1.3708    0.7995 H       1  UNL1        0.0442
     46 H           2.7151   -0.5859    2.1297 H       1  UNL1        0.0476
     47 H           1.2776    0.4435    1.9167 H       1  UNL1        0.0476
     48 H          -0.3719   -4.8831    3.0393 H       1  UNL1        0.0846
     49 H          -4.1882   -1.9306    1.6301 H       1  UNL1        0.1688
@<TRIPOS>BOND
     1     1     2    1
     2     2     3   ar
     3     3     4   ar
     4     4     5    1
     5     4     6   ar
     6     6     7   ar
     7     7     8    1
     8     8     9   ar
     9     9    10   ar
    10    10    11   ar
    11    11    12    1
    12    12    13    1
    13    13    14    1
    14    14    15    1
    15    15    16    1
    16    16    17    1
    17    17    18   ar
    18    18    19   ar
    19    19    20   ar
    20    20    21   ar
    21    15    22    1
    22    22    23    1
    23    11    24   ar
    24    24    25    1
    25    24    26   ar
    26    26    27   ar
    27    27    28   ar
    28    28    29   ar
    29     7     2   ar
    30    29     8   ar
    31    28    10   ar
    32    23    12    1
    33    21    17   ar
    34     1    30    1
    35     1    31    1
    36     1    32    1
    37     5    33    1
    38     5    34    1
    39     5    35    1
    40     6    36    1
    41    13    37    1
    42    13    38    1
    43    14    39    1
    44    14    40    1
    45    16    41    1
    46    16    42    1
    47    19    43    1
    48    22    44    1
    49    22    45    1
    50    23    46    1
    51    23    47    1
    52    26    48    1
    53    29    49    1
