
     RDKit          3D

 89 89  0  0  0  0  0  0  0  0999 V2000
   -2.3215    4.1012    1.1915 C   0  0  0  0  0  0  0  0  0  0  0  0
   -2.2670    3.1209    0.0377 C   0  0  0  0  0  0  0  0  0  0  0  0
   -1.4817    1.8625    0.4564 C   0  0  2  0  0  0  0  0  0  0  0  0
   -0.0886    2.3025    0.8441 C   0  0  0  0  0  0  0  0  0  0  0  0
   -1.5102    0.9398   -0.7270 C   0  0  2  0  0  0  0  0  0  0  0  0
   -2.9112    0.6180   -1.0643 N   0  0  0  0  0  0  0  0  0  0  0  0
   -3.8011   -0.0178   -0.1956 C   0  0  0  0  0  0  0  0  0  0  0  0
   -3.3323   -0.3255    0.9680 O   0  0  0  0  0  0  0  0  0  0  0  0
   -5.1995   -0.3657   -0.4889 C   0  0  2  0  0  0  0  0  0  0  0  0
   -6.1453    0.7432   -0.7664 C   0  0  1  0  0  0  0  0  0  0  0  0
   -5.7553    1.5290   -1.9758 C   0  0  0  0  0  0  0  0  0  0  0  0
   -7.5339    0.1179   -0.9442 C   0  0  0  0  0  0  0  0  0  0  0  0
   -8.5681    1.1619   -1.2307 C   0  0  0  0  0  0  0  0  0  0  0  0
   -5.7327   -1.2503    0.5675 N   0  0  0  0  0  0  0  0  0  0  0  0
   -6.0732   -2.6281    0.2969 C   0  0  0  0  0  0  0  0  0  0  0  0
   -5.9158   -0.7442    1.8775 C   0  0  0  0  0  0  0  0  0  0  0  0
   -6.4456   -1.6350    2.9318 C   0  0  0  0  0  0  0  0  0  0  0  0
   -5.6437    0.4468    2.1893 O   0  0  0  0  0  0  0  0  0  0  0  0
   -0.7981   -0.3333   -0.5455 C   0  0  0  0  0  0  0  0  0  0  0  0
   -1.4898   -1.4089   -0.5482 O   0  0  0  0  0  0  0  0  0  0  0  0
    0.5867   -0.5086   -0.3679 N   0  0  0  0  0  0  0  0  0  0  0  0
    1.1737   -1.8029   -0.1715 C   0  0  0  0  0  0  0  0  0  0  0  0
    0.3927   -2.7845   -0.1688 O   0  0  0  0  0  0  0  0  0  0  0  0
    2.6663   -1.9806    0.0249 C   0  0  1  0  0  0  0  0  0  0  0  0
    3.2321   -0.7021   -0.0797 N   0  0  0  0  0  0  0  0  0  0  0  0
    4.7008   -0.6242   -0.0777 C   0  0  0  0  0  0  0  0  0  0  0  0
    4.8882    0.9107   -0.1072 C   0  0  0  0  0  0  0  0  0  0  0  0
    6.2735    1.3927   -0.0882 C   0  0  0  0  0  0  0  0  0  0  0  0
    6.1743    2.9401   -0.1526 C   0  0  0  0  0  0  0  0  0  0  0  0
    7.0022    1.1332    1.2121 C   0  0  0  0  0  0  0  0  0  0  0  0
    5.2364   -1.2138   -1.3249 C   0  0  0  0  0  0  0  0  0  0  0  0
    4.3842   -1.3750   -2.2275 O   0  0  0  0  0  0  0  0  0  0  0  0
    6.6043   -1.6277   -1.6296 C   0  0  1  0  0  0  0  0  0  0  0  0
    7.7161   -1.5979   -0.6338 C   0  0  0  0  0  0  0  0  0  0  0  0
    6.8283   -2.5104   -2.8642 C   0  0  0  0  0  0  0  0  0  0  0  0
    7.0554   -1.1582   -2.9124 O   0  0  0  0  0  0  0  0  0  0  0  0
    2.9151   -2.7712    1.2615 C   0  0  1  0  0  0  0  0  0  0  0  0
    4.2855   -3.3028    1.4140 C   0  0  0  0  0  0  0  0  0  0  0  0
    2.4961   -2.1517    2.4318 O   0  0  0  0  0  0  0  0  0  0  0  0
   -2.3945    3.5159    2.1240 H   0  0  0  0  0  0  0  0  0  0  0  0
   -1.4728    4.8068    1.1696 H   0  0  0  0  0  0  0  0  0  0  0  0
   -3.2907    4.6657    1.0713 H   0  0  0  0  0  0  0  0  0  0  0  0
   -3.2620    2.7839   -0.2679 H   0  0  0  0  0  0  0  0  0  0  0  0
   -1.7312    3.5929   -0.8015 H   0  0  0  0  0  0  0  0  0  0  0  0
   -1.9722    1.4652    1.3492 H   0  0  0  0  0  0  0  0  0  0  0  0
   -0.1861    3.2533    1.4387 H   0  0  0  0  0  0  0  0  0  0  0  0
    0.4855    2.5050   -0.0792 H   0  0  0  0  0  0  0  0  0  0  0  0
    0.4083    1.5352    1.4329 H   0  0  0  0  0  0  0  0  0  0  0  0
   -1.0419    1.4739   -1.5753 H   0  0  0  0  0  0  0  0  0  0  0  0
   -3.2137    0.8847   -2.0188 H   0  0  0  0  0  0  0  0  0  0  0  0
   -5.1563   -1.0179   -1.4149 H   0  0  0  0  0  0  0  0  0  0  0  0
   -6.2222    1.4765    0.0759 H   0  0  0  0  0  0  0  0  0  0  0  0
   -6.6706    2.0912   -2.3849 H   0  0  0  0  0  0  0  0  0  0  0  0
   -5.0390    2.3119   -1.7303 H   0  0  0  0  0  0  0  0  0  0  0  0
   -5.3842    0.9102   -2.8227 H   0  0  0  0  0  0  0  0  0  0  0  0
   -7.7214   -0.5010   -0.0585 H   0  0  0  0  0  0  0  0  0  0  0  0
   -7.4239   -0.5790   -1.8231 H   0  0  0  0  0  0  0  0  0  0  0  0
   -8.3728    2.1369   -0.7685 H   0  0  0  0  0  0  0  0  0  0  0  0
   -8.6167    1.3108   -2.3408 H   0  0  0  0  0  0  0  0  0  0  0  0
   -9.5878    0.8518   -0.8899 H   0  0  0  0  0  0  0  0  0  0  0  0
   -5.8372   -2.8491   -0.7797 H   0  0  0  0  0  0  0  0  0  0  0  0
   -7.1141   -2.8813    0.5251 H   0  0  0  0  0  0  0  0  0  0  0  0
   -5.4353   -3.3258    0.9038 H   0  0  0  0  0  0  0  0  0  0  0  0
   -7.5380   -1.8124    2.8508 H   0  0  0  0  0  0  0  0  0  0  0  0
   -5.9481   -2.6429    2.8359 H   0  0  0  0  0  0  0  0  0  0  0  0
   -6.1989   -1.2793    3.9525 H   0  0  0  0  0  0  0  0  0  0  0  0
    1.1973    0.3078   -0.3740 H   0  0  0  0  0  0  0  0  0  0  0  0
    2.9782   -2.6099   -0.8380 H   0  0  0  0  0  0  0  0  0  0  0  0
    2.9780   -0.3267   -1.0450 H   0  0  0  0  0  0  0  0  0  0  0  0
    5.1953   -1.0029    0.7812 H   0  0  0  0  0  0  0  0  0  0  0  0
    4.2532    1.3239    0.6827 H   0  0  0  0  0  0  0  0  0  0  0  0
    4.4260    1.2451   -1.0819 H   0  0  0  0  0  0  0  0  0  0  0  0
    6.8582    1.1395   -0.9887 H   0  0  0  0  0  0  0  0  0  0  0  0
    5.5480    3.2485   -1.0135 H   0  0  0  0  0  0  0  0  0  0  0  0
    7.2077    3.3047   -0.2635 H   0  0  0  0  0  0  0  0  0  0  0  0
    5.7962    3.3076    0.8250 H   0  0  0  0  0  0  0  0  0  0  0  0
    6.5989    0.2244    1.7309 H   0  0  0  0  0  0  0  0  0  0  0  0
    8.0546    0.9002    0.9564 H   0  0  0  0  0  0  0  0  0  0  0  0
    6.9900    2.0176    1.8425 H   0  0  0  0  0  0  0  0  0  0  0  0
    7.3282   -1.5887    0.3825 H   0  0  0  0  0  0  0  0  0  0  0  0
    8.3834   -2.4759   -0.8321 H   0  0  0  0  0  0  0  0  0  0  0  0
    8.3242   -0.6911   -0.8011 H   0  0  0  0  0  0  0  0  0  0  0  0
    5.8698   -2.8564   -3.3099 H   0  0  0  0  0  0  0  0  0  0  0  0
    7.6465   -3.2367   -2.7380 H   0  0  0  0  0  0  0  0  0  0  0  0
    2.2351   -3.6933    1.1562 H   0  0  0  0  0  0  0  0  0  0  0  0
    4.8620   -3.3547    0.4777 H   0  0  0  0  0  0  0  0  0  0  0  0
    4.8556   -2.7933    2.2479 H   0  0  0  0  0  0  0  0  0  0  0  0
    4.2789   -4.3918    1.7689 H   0  0  0  0  0  0  0  0  0  0  0  0
    2.4756   -1.1808    2.3918 H   0  0  0  0  0  0  0  0  0  0  0  0
  1  2  1  0
  2  3  1  0
  3  4  1  0
  3  5  1  0
  5  6  1  0
  6  7  1  0
  7  8  2  0
  7  9  1  0
  9 10  1  0
 10 11  1  0
 10 12  1  0
 12 13  1  0
  9 14  1  0
 14 15  1  0
 14 16  1  0
 16 17  1  0
 16 18  2  0
  5 19  1  0
 19 20  2  0
 19 21  1  0
 21 22  1  0
 22 23  2  0
 22 24  1  0
 24 25  1  0
 25 26  1  0
 26 27  1  0
 27 28  1  0
 28 29  1  0
 28 30  1  0
 26 31  1  0
 31 32  2  0
 31 33  1  0
 33 34  1  1
 33 35  1  0
 35 36  1  0
 24 37  1  0
 37 38  1  0
 37 39  1  0
 36 33  1  0
  1 40  1  0
  1 41  1  0
  1 42  1  0
  2 43  1  0
  2 44  1  0
  3 45  1  1
  4 46  1  0
  4 47  1  0
  4 48  1  0
  5 49  1  6
  6 50  1  0
  9 51  1  6
 10 52  1  1
 11 53  1  0
 11 54  1  0
 11 55  1  0
 12 56  1  0
 12 57  1  0
 13 58  1  0
 13 59  1  0
 13 60  1  0
 15 61  1  0
 15 62  1  0
 15 63  1  0
 17 64  1  0
 17 65  1  0
 17 66  1  0
 21 67  1  0
 24 68  1  6
 25 69  1  0
 26 70  1  0
 27 71  1  0
 27 72  1  0
 28 73  1  0
 29 74  1  0
 29 75  1  0
 29 76  1  0
 30 77  1  0
 30 78  1  0
 30 79  1  0
 34 80  1  0
 34 81  1  0
 34 82  1  0
 35 83  1  0
 35 84  1  0
 37 85  1  6
 38 86  1  0
 38 87  1  0
 38 88  1  0
 39 89  1  0
M  END
$$$$
