@<TRIPOS>MOLECULE
*****
 89 89 0 0 0
SMALL
GASTEIGER

@<TRIPOS>ATOM
      1 C          -2.3215    4.1012    1.1915 C.3     1  UNL1       -0.0650
      2 C          -2.2670    3.1209    0.0377 C.3     1  UNL1       -0.0512
      3 C          -1.4817    1.8625    0.4564 C.3     1  UNL1       -0.0171
      4 C          -0.0886    2.3025    0.8441 C.3     1  UNL1       -0.0603
      5 C          -1.5102    0.9398   -0.7270 C.3     1  UNL1        0.1023
      6 N          -2.9112    0.6180   -1.0643 N.am    1  UNL1       -0.3022
      7 C          -3.8011   -0.0178   -0.1956 C.2     1  UNL1        0.2344
      8 O          -3.3323   -0.3255    0.9680 O.2     1  UNL1       -0.2737
      9 C          -5.1995   -0.3657   -0.4889 C.3     1  UNL1        0.1044
     10 C          -6.1453    0.7432   -0.7664 C.3     1  UNL1       -0.0169
     11 C          -5.7553    1.5290   -1.9758 C.3     1  UNL1       -0.0603
     12 C          -7.5339    0.1179   -0.9442 C.3     1  UNL1       -0.0512
     13 C          -8.5681    1.1619   -1.2307 C.3     1  UNL1       -0.0650
     14 N          -5.7327   -1.2503    0.5675 N.am    1  UNL1       -0.2929
     15 C          -6.0732   -2.6281    0.2969 C.3     1  UNL1        0.0039
     16 C          -5.9158   -0.7442    1.8775 C.2     1  UNL1        0.2128
     17 C          -6.4456   -1.6350    2.9318 C.3     1  UNL1        0.0124
     18 O          -5.6437    0.4468    2.1893 O.2     1  UNL1       -0.2759
     19 C          -0.7981   -0.3333   -0.5455 C.2     1  UNL1        0.2398
     20 O          -1.4898   -1.4089   -0.5482 O.2     1  UNL1       -0.2734
     21 N           0.5867   -0.5086   -0.3679 N.am    1  UNL1       -0.2535
     22 C           1.1737   -1.8029   -0.1715 C.2     1  UNL1        0.2388
     23 O           0.3927   -2.7845   -0.1688 O.2     1  UNL1       -0.2736
     24 C           2.6663   -1.9806    0.0249 C.3     1  UNL1        0.1115
     25 N           3.2321   -0.7021   -0.0797 N.3     1  UNL1       -0.2943
     26 C           4.7008   -0.6242   -0.0777 C.3     1  UNL1        0.0703
     27 C           4.8882    0.9107   -0.1072 C.3     1  UNL1       -0.0282
     28 C           6.2735    1.3927   -0.0882 C.3     1  UNL1       -0.0449
     29 C           6.1743    2.9401   -0.1526 C.3     1  UNL1       -0.0626
     30 C           7.0022    1.1332    1.2121 C.3     1  UNL1       -0.0626
     31 C           5.2364   -1.2138   -1.3249 C.2     1  UNL1        0.1836
     32 O           4.3842   -1.3750   -2.2275 O.2     1  UNL1       -0.2926
     33 C           6.6043   -1.6277   -1.6296 C.3     1  UNL1        0.1489
     34 C           7.7161   -1.5979   -0.6338 C.3     1  UNL1       -0.0266
     35 C           6.8283   -2.5104   -2.8642 C.3     1  UNL1        0.0847
     36 O           7.0554   -1.1582   -2.9124 O.3     1  UNL1       -0.3605
     37 C           2.9151   -2.7712    1.2615 C.3     1  UNL1        0.0762
     38 C           4.2855   -3.3028    1.4140 C.3     1  UNL1       -0.0370
     39 O           2.4961   -2.1517    2.4318 O.3     1  UNL1       -0.3900
     40 H          -2.3945    3.5159    2.1240 H       1  UNL1        0.0230
     41 H          -1.4728    4.8068    1.1696 H       1  UNL1        0.0230
     42 H          -3.2907    4.6657    1.0713 H       1  UNL1        0.0230
     43 H          -3.2620    2.7839   -0.2679 H       1  UNL1        0.0266
     44 H          -1.7312    3.5929   -0.8015 H       1  UNL1        0.0266
     45 H          -1.9722    1.4652    1.3492 H       1  UNL1        0.0321
     46 H          -0.1861    3.2533    1.4387 H       1  UNL1        0.0233
     47 H           0.4855    2.5050   -0.0792 H       1  UNL1        0.0233
     48 H           0.4083    1.5352    1.4329 H       1  UNL1        0.0233
     49 H          -1.0419    1.4739   -1.5753 H       1  UNL1        0.0597
     50 H          -3.2137    0.8847   -2.0188 H       1  UNL1        0.1495
     51 H          -5.1563   -1.0179   -1.4149 H       1  UNL1        0.0599
     52 H          -6.2222    1.4765    0.0759 H       1  UNL1        0.0321
     53 H          -6.6706    2.0912   -2.3849 H       1  UNL1        0.0233
     54 H          -5.0390    2.3119   -1.7303 H       1  UNL1        0.0233
     55 H          -5.3842    0.9102   -2.8227 H       1  UNL1        0.0233
     56 H          -7.7214   -0.5010   -0.0585 H       1  UNL1        0.0266
     57 H          -7.4239   -0.5790   -1.8231 H       1  UNL1        0.0266
     58 H          -8.3728    2.1369   -0.7685 H       1  UNL1        0.0230
     59 H          -8.6167    1.3108   -2.3408 H       1  UNL1        0.0230
     60 H          -9.5878    0.8518   -0.8899 H       1  UNL1        0.0230
     61 H          -5.8372   -2.8491   -0.7797 H       1  UNL1        0.0429
     62 H          -7.1141   -2.8813    0.5251 H       1  UNL1        0.0429
     63 H          -5.4353   -3.3258    0.9038 H       1  UNL1        0.0429
     64 H          -7.5380   -1.8124    2.8508 H       1  UNL1        0.0323
     65 H          -5.9481   -2.6429    2.8359 H       1  UNL1        0.0323
     66 H          -6.1989   -1.2793    3.9525 H       1  UNL1        0.0323
     67 H           1.1973    0.3078   -0.3740 H       1  UNL1        0.1576
     68 H           2.9782   -2.6099   -0.8380 H       1  UNL1        0.0583
     69 H           2.9780   -0.3267   -1.0450 H       1  UNL1        0.1234
     70 H           5.1953   -1.0029    0.7812 H       1  UNL1        0.0540
     71 H           4.2532    1.3239    0.6827 H       1  UNL1        0.0287
     72 H           4.4260    1.2451   -1.0819 H       1  UNL1        0.0287
     73 H           6.8582    1.1395   -0.9887 H       1  UNL1        0.0296
     74 H           5.5480    3.2485   -1.0135 H       1  UNL1        0.0232
     75 H           7.2077    3.3047   -0.2635 H       1  UNL1        0.0232
     76 H           5.7962    3.3076    0.8250 H       1  UNL1        0.0232
     77 H           6.5989    0.2244    1.7309 H       1  UNL1        0.0232
     78 H           8.0546    0.9002    0.9564 H       1  UNL1        0.0232
     79 H           6.9900    2.0176    1.8425 H       1  UNL1        0.0232
     80 H           7.3282   -1.5887    0.3825 H       1  UNL1        0.0262
     81 H           8.3834   -2.4759   -0.8321 H       1  UNL1        0.0262
     82 H           8.3242   -0.6911   -0.8011 H       1  UNL1        0.0262
     83 H           5.8698   -2.8564   -3.3099 H       1  UNL1        0.0593
     84 H           7.6465   -3.2367   -2.7380 H       1  UNL1        0.0593
     85 H           2.2351   -3.6933    1.1562 H       1  UNL1        0.0611
     86 H           4.8620   -3.3547    0.4777 H       1  UNL1        0.0255
     87 H           4.8556   -2.7933    2.2479 H       1  UNL1        0.0255
     88 H           4.2789   -4.3918    1.7689 H       1  UNL1        0.0255
     89 H           2.4756   -1.1808    2.3918 H       1  UNL1        0.2098
@<TRIPOS>BOND
     1     1     2    1
     2     2     3    1
     3     3     4    1
     4     3     5    1
     5     5     6    1
     6     6     7   am
     7     7     8    2
     8     7     9    1
     9     9    10    1
    10    10    11    1
    11    10    12    1
    12    12    13    1
    13     9    14    1
    14    14    15    1
    15    14    16   am
    16    16    17    1
    17    16    18    2
    18     5    19    1
    19    19    20    2
    20    19    21   am
    21    21    22   am
    22    22    23    2
    23    22    24    1
    24    24    25    1
    25    25    26    1
    26    26    27    1
    27    27    28    1
    28    28    29    1
    29    28    30    1
    30    26    31    1
    31    31    32    2
    32    31    33    1
    33    33    34    1
    34    33    35    1
    35    35    36    1
    36    24    37    1
    37    37    38    1
    38    37    39    1
    39    36    33    1
    40     1    40    1
    41     1    41    1
    42     1    42    1
    43     2    43    1
    44     2    44    1
    45     3    45    1
    46     4    46    1
    47     4    47    1
    48     4    48    1
    49     5    49    1
    50     6    50    1
    51     9    51    1
    52    10    52    1
    53    11    53    1
    54    11    54    1
    55    11    55    1
    56    12    56    1
    57    12    57    1
    58    13    58    1
    59    13    59    1
    60    13    60    1
    61    15    61    1
    62    15    62    1
    63    15    63    1
    64    17    64    1
    65    17    65    1
    66    17    66    1
    67    21    67    1
    68    24    68    1
    69    25    69    1
    70    26    70    1
    71    27    71    1
    72    27    72    1
    73    28    73    1
    74    29    74    1
    75    29    75    1
    76    29    76    1
    77    30    77    1
    78    30    78    1
    79    30    79    1
    80    34    80    1
    81    34    81    1
    82    34    82    1
    83    35    83    1
    84    35    84    1
    85    37    85    1
    86    38    86    1
    87    38    87    1
    88    38    88    1
    89    39    89    1
