
     RDKit          3D

 71 75  0  0  0  0  0  0  0  0999 V2000
    1.1327    2.6291   -5.4730 C   0  0  0  0  0  0  0  0  0  0  0  0
    1.7112    1.2548   -5.6809 C   0  0  0  0  0  0  0  0  0  0  0  0
    1.6356    0.4766   -4.4538 N   0  0  0  0  0  0  0  0  0  0  0  0
    0.6818   -0.3222   -4.0082 C   0  0  0  0  0  0  0  0  0  0  0  0
    1.0791   -0.8402   -2.7737 C   0  0  0  0  0  0  0  0  0  0  0  0
    0.3538   -1.7650   -1.9234 C   0  0  0  0  0  0  0  0  0  0  0  0
    0.8678   -3.0011   -1.6134 C   0  0  0  0  0  0  0  0  0  0  0  0
    0.1249   -3.8327   -0.8058 C   0  0  0  0  0  0  0  0  0  0  0  0
   -1.0728   -3.4921   -0.3101 N   0  0  0  0  0  0  0  0  0  0  0  0
   -1.5895   -2.2811   -0.6066 C   0  0  0  0  0  0  0  0  0  0  0  0
   -2.7615   -1.6827   -0.2483 N   0  0  0  0  0  0  0  0  0  0  0  0
   -2.8258   -0.4587   -0.7995 C   0  0  0  0  0  0  0  0  0  0  0  0
   -3.9609    0.4430   -0.6094 C   0  0  0  0  0  0  0  0  0  0  0  0
   -3.9669    1.7068   -1.2015 C   0  0  0  0  0  0  0  0  0  0  0  0
   -5.0475    2.5370   -1.0161 C   0  0  0  0  0  0  0  0  0  0  0  0
   -6.1395    2.1583   -0.2536 C   0  0  0  0  0  0  0  0  0  0  0  0
   -6.1424    0.9132    0.3353 C   0  0  0  0  0  0  0  0  0  0  0  0
   -7.2698    0.4406    1.1608 C   0  0  0  0  0  0  0  0  0  0  0  0
   -7.1250    0.7710    2.5546 N   0  0  0  0  0  0  0  0  0  0  0  0
   -8.2116    0.3176    3.3615 C   0  0  0  0  0  0  0  0  0  0  0  0
   -6.6857    2.1020    2.8080 C   0  0  0  0  0  0  0  0  0  0  0  0
   -5.0602    0.0841    0.1481 C   0  0  0  0  0  0  0  0  0  0  0  0
   -1.6816   -0.2837   -1.5136 C   0  0  0  0  0  0  0  0  0  0  0  0
   -0.8725   -1.4205   -1.4139 C   0  0  0  0  0  0  0  0  0  0  0  0
    2.3071   -0.3058   -2.5226 C   0  0  0  0  0  0  0  0  0  0  0  0
    3.1615   -0.5227   -1.3425 C   0  0  0  0  0  0  0  0  0  0  0  0
    2.8281    0.0784   -0.1444 C   0  0  0  0  0  0  0  0  0  0  0  0
    3.5779   -0.0839    1.0007 C   0  0  0  0  0  0  0  0  0  0  0  0
    4.7158   -0.8728    0.9898 C   0  0  0  0  0  0  0  0  0  0  0  0
    5.5095   -1.0525    2.1653 N   0  0  0  0  0  0  0  0  0  0  0  0
    6.6036   -0.1999    2.4703 C   0  0  0  0  0  0  0  0  0  0  0  0
    6.8477    0.7226    1.6532 O   0  0  0  0  0  0  0  0  0  0  0  0
    7.4070   -0.3419    3.6214 N   0  0  0  0  0  0  0  0  0  0  0  0
    7.1735   -1.3766    4.6047 C   0  0  0  0  0  0  0  0  0  0  0  0
    8.5094    0.5686    3.8383 C   0  0  0  0  0  0  0  0  0  0  0  0
    5.0481   -1.4730   -0.2039 C   0  0  0  0  0  0  0  0  0  0  0  0
    4.2904   -1.3083   -1.3641 C   0  0  0  0  0  0  0  0  0  0  0  0
    2.6089    0.4855   -3.5640 N   0  0  0  0  0  0  0  0  0  0  0  0
    1.5048    3.3644   -6.2203 H   0  0  0  0  0  0  0  0  0  0  0  0
    0.0207    2.5242   -5.4971 H   0  0  0  0  0  0  0  0  0  0  0  0
    1.3912    2.9788   -4.4620 H   0  0  0  0  0  0  0  0  0  0  0  0
    1.2117    0.7082   -6.5122 H   0  0  0  0  0  0  0  0  0  0  0  0
    2.7835    1.4095   -5.9891 H   0  0  0  0  0  0  0  0  0  0  0  0
   -0.2358   -0.5342   -4.5027 H   0  0  0  0  0  0  0  0  0  0  0  0
    1.8504   -3.3242   -2.0010 H   0  0  0  0  0  0  0  0  0  0  0  0
    0.5429   -4.8227   -0.5602 H   0  0  0  0  0  0  0  0  0  0  0  0
   -3.4510   -2.1769    0.3652 H   0  0  0  0  0  0  0  0  0  0  0  0
   -3.1211    2.0154   -1.7969 H   0  0  0  0  0  0  0  0  0  0  0  0
   -5.0677    3.5362   -1.4784 H   0  0  0  0  0  0  0  0  0  0  0  0
   -6.9475    2.8614   -0.1546 H   0  0  0  0  0  0  0  0  0  0  0  0
   -8.2062    0.8295    0.7068 H   0  0  0  0  0  0  0  0  0  0  0  0
   -7.3382   -0.6732    1.0464 H   0  0  0  0  0  0  0  0  0  0  0  0
   -7.8216    0.1776    4.4076 H   0  0  0  0  0  0  0  0  0  0  0  0
   -9.0629    1.0091    3.3612 H   0  0  0  0  0  0  0  0  0  0  0  0
   -8.4833   -0.7100    3.0307 H   0  0  0  0  0  0  0  0  0  0  0  0
   -6.7794    2.2593    3.9165 H   0  0  0  0  0  0  0  0  0  0  0  0
   -7.3687    2.8597    2.3527 H   0  0  0  0  0  0  0  0  0  0  0  0
   -5.6491    2.3044    2.5484 H   0  0  0  0  0  0  0  0  0  0  0  0
   -5.0176   -0.9180    0.5986 H   0  0  0  0  0  0  0  0  0  0  0  0
   -1.4384    0.6029   -2.0729 H   0  0  0  0  0  0  0  0  0  0  0  0
    1.9339    0.7142   -0.0908 H   0  0  0  0  0  0  0  0  0  0  0  0
    3.3293    0.3844    1.9503 H   0  0  0  0  0  0  0  0  0  0  0  0
    5.2742   -1.8400    2.8229 H   0  0  0  0  0  0  0  0  0  0  0  0
    7.5106   -0.9628    5.5941 H   0  0  0  0  0  0  0  0  0  0  0  0
    7.7752   -2.2789    4.3715 H   0  0  0  0  0  0  0  0  0  0  0  0
    6.0920   -1.6375    4.6791 H   0  0  0  0  0  0  0  0  0  0  0  0
    9.3780    0.0164    4.2729 H   0  0  0  0  0  0  0  0  0  0  0  0
    8.8532    1.0015    2.8726 H   0  0  0  0  0  0  0  0  0  0  0  0
    8.2536    1.4393    4.4766 H   0  0  0  0  0  0  0  0  0  0  0  0
    5.9385   -2.0998   -0.2468 H   0  0  0  0  0  0  0  0  0  0  0  0
    4.5829   -1.7898   -2.2747 H   0  0  0  0  0  0  0  0  0  0  0  0
  1  2  1  0
  2  3  1  0
  3  4  1  0
  4  5  2  0
  5  6  1  0
  6  7  2  0
  7  8  1  0
  8  9  2  0
  9 10  1  0
 10 11  1  0
 11 12  1  0
 12 13  1  0
 13 14  2  0
 14 15  1  0
 15 16  2  0
 16 17  1  0
 17 18  1  0
 18 19  1  0
 19 20  1  0
 19 21  1  0
 17 22  2  0
 12 23  2  0
 23 24  1  0
  5 25  1  0
 25 26  1  0
 26 27  2  0
 27 28  1  0
 28 29  2  0
 29 30  1  0
 30 31  1  0
 31 32  2  0
 31 33  1  0
 33 34  1  0
 33 35  1  0
 29 36  1  0
 36 37  2  0
 25 38  2  0
 38  3  1  0
 24  6  1  0
 37 26  1  0
 24 10  2  0
 22 13  1  0
  1 39  1  0
  1 40  1  0
  1 41  1  0
  2 42  1  0
  2 43  1  0
  4 44  1  0
  7 45  1  0
  8 46  1  0
 11 47  1  0
 14 48  1  0
 15 49  1  0
 16 50  1  0
 18 51  1  0
 18 52  1  0
 20 53  1  0
 20 54  1  0
 20 55  1  0
 21 56  1  0
 21 57  1  0
 21 58  1  0
 22 59  1  0
 23 60  1  0
 27 61  1  0
 28 62  1  0
 30 63  1  0
 34 64  1  0
 34 65  1  0
 34 66  1  0
 35 67  1  0
 35 68  1  0
 35 69  1  0
 36 70  1  0
 37 71  1  0
M  END
$$$$
