@<TRIPOS>MOLECULE
*****
 71 75 0 0 0
SMALL
GASTEIGER

@<TRIPOS>ATOM
      1 C           1.1327    2.6291   -5.4730 C.3     1  UNL1       -0.0455
      2 C           1.7112    1.2548   -5.6809 C.3     1  UNL1        0.0387
      3 N           1.6356    0.4766   -4.4538 N.ar    1  UNL1       -0.2705
      4 C           0.6818   -0.3222   -4.0082 C.ar    1  UNL1        0.0338
      5 C           1.0791   -0.8402   -2.7737 C.ar    1  UNL1        0.0282
      6 C           0.3538   -1.7650   -1.9234 C.ar    1  UNL1       -0.0022
      7 C           0.8678   -3.0011   -1.6134 C.ar    1  UNL1       -0.0351
      8 C           0.1249   -3.8327   -0.8058 C.ar    1  UNL1        0.0305
      9 N          -1.0728   -3.4921   -0.3101 N.ar    1  UNL1       -0.2374
     10 C          -1.5895   -2.2811   -0.6066 C.ar    1  UNL1        0.1391
     11 N          -2.7615   -1.6827   -0.2483 N.ar    1  UNL1       -0.3391
     12 C          -2.8258   -0.4587   -0.7995 C.ar    1  UNL1        0.0486
     13 C          -3.9609    0.4430   -0.6094 C.ar    1  UNL1       -0.0013
     14 C          -3.9669    1.7068   -1.2015 C.ar    1  UNL1       -0.0526
     15 C          -5.0475    2.5370   -1.0161 C.ar    1  UNL1       -0.0608
     16 C          -6.1395    2.1583   -0.2536 C.ar    1  UNL1       -0.0573
     17 C          -6.1424    0.9132    0.3353 C.ar    1  UNL1       -0.0328
     18 C          -7.2698    0.4406    1.1608 C.3     1  UNL1        0.0235
     19 N          -7.1250    0.7710    2.5546 N.3     1  UNL1       -0.3042
     20 C          -8.2116    0.3176    3.3615 C.3     1  UNL1       -0.0127
     21 C          -6.6857    2.1020    2.8080 C.3     1  UNL1       -0.0127
     22 C          -5.0602    0.0841    0.1481 C.ar    1  UNL1       -0.0482
     23 C          -1.6816   -0.2837   -1.5136 C.ar    1  UNL1       -0.0265
     24 C          -0.8725   -1.4205   -1.4139 C.ar    1  UNL1        0.0271
     25 C           2.3071   -0.3058   -2.5226 C.ar    1  UNL1        0.1004
     26 C           3.1615   -0.5227   -1.3425 C.ar    1  UNL1        0.0028
     27 C           2.8281    0.0784   -0.1444 C.ar    1  UNL1       -0.0507
     28 C           3.5779   -0.0839    1.0007 C.ar    1  UNL1       -0.0398
     29 C           4.7158   -0.8728    0.9898 C.ar    1  UNL1        0.0348
     30 N           5.5095   -1.0525    2.1653 N.am    1  UNL1       -0.2693
     31 C           6.6036   -0.1999    2.4703 C.2     1  UNL1        0.3060
     32 O           6.8477    0.7226    1.6532 O.2     1  UNL1       -0.2523
     33 N           7.4070   -0.3419    3.6214 N.am    1  UNL1       -0.2915
     34 C           7.1735   -1.3766    4.6047 C.3     1  UNL1        0.0043
     35 C           8.5094    0.5686    3.8383 C.3     1  UNL1        0.0043
     36 C           5.0481   -1.4730   -0.2039 C.ar    1  UNL1       -0.0398
     37 C           4.2904   -1.3083   -1.3641 C.ar    1  UNL1       -0.0507
     38 N           2.6089    0.4855   -3.5640 N.ar    1  UNL1       -0.1706
     39 H           1.5048    3.3644   -6.2203 H       1  UNL1        0.0247
     40 H           0.0207    2.5242   -5.4971 H       1  UNL1        0.0247
     41 H           1.3912    2.9788   -4.4620 H       1  UNL1        0.0247
     42 H           1.2117    0.7082   -6.5122 H       1  UNL1        0.0506
     43 H           2.7835    1.4095   -5.9891 H       1  UNL1        0.0506
     44 H          -0.2358   -0.5342   -4.5027 H       1  UNL1        0.0832
     45 H           1.8504   -3.3242   -2.0010 H       1  UNL1        0.0639
     46 H           0.5429   -4.8227   -0.5602 H       1  UNL1        0.0830
     47 H          -3.4510   -2.1769    0.3652 H       1  UNL1        0.1673
     48 H          -3.1211    2.0154   -1.7969 H       1  UNL1        0.0624
     49 H          -5.0677    3.5362   -1.4784 H       1  UNL1        0.0618
     50 H          -6.9475    2.8614   -0.1546 H       1  UNL1        0.0621
     51 H          -8.2062    0.8295    0.7068 H       1  UNL1        0.0475
     52 H          -7.3382   -0.6732    1.0464 H       1  UNL1        0.0475
     53 H          -7.8216    0.1776    4.4076 H       1  UNL1        0.0391
     54 H          -9.0629    1.0091    3.3612 H       1  UNL1        0.0391
     55 H          -8.4833   -0.7100    3.0307 H       1  UNL1        0.0391
     56 H          -6.7794    2.2593    3.9165 H       1  UNL1        0.0391
     57 H          -7.3687    2.8597    2.3527 H       1  UNL1        0.0391
     58 H          -5.6491    2.3044    2.5484 H       1  UNL1        0.0391
     59 H          -5.0176   -0.9180    0.5986 H       1  UNL1        0.0627
     60 H          -1.4384    0.6029   -2.0729 H       1  UNL1        0.0645
     61 H           1.9339    0.7142   -0.0908 H       1  UNL1        0.0625
     62 H           3.3293    0.3844    1.9503 H       1  UNL1        0.0636
     63 H           5.2742   -1.8400    2.8229 H       1  UNL1        0.1564
     64 H           7.5106   -0.9628    5.5941 H       1  UNL1        0.0429
     65 H           7.7752   -2.2789    4.3715 H       1  UNL1        0.0429
     66 H           6.0920   -1.6375    4.6791 H       1  UNL1        0.0429
     67 H           9.3780    0.0164    4.2729 H       1  UNL1        0.0429
     68 H           8.8532    1.0015    2.8726 H       1  UNL1        0.0429
     69 H           8.2536    1.4393    4.4766 H       1  UNL1        0.0429
     70 H           5.9385   -2.0998   -0.2468 H       1  UNL1        0.0636
     71 H           4.5829   -1.7898   -2.2747 H       1  UNL1        0.0625
@<TRIPOS>BOND
     1     1     2    1
     2     2     3    1
     3     3     4   ar
     4     4     5   ar
     5     5     6    1
     6     6     7   ar
     7     7     8   ar
     8     8     9   ar
     9     9    10   ar
    10    10    11   ar
    11    11    12   ar
    12    12    13    1
    13    13    14   ar
    14    14    15   ar
    15    15    16   ar
    16    16    17   ar
    17    17    18    1
    18    18    19    1
    19    19    20    1
    20    19    21    1
    21    17    22   ar
    22    12    23   ar
    23    23    24   ar
    24     5    25   ar
    25    25    26    1
    26    26    27   ar
    27    27    28   ar
    28    28    29   ar
    29    29    30    1
    30    30    31   am
    31    31    32    2
    32    31    33   am
    33    33    34    1
    34    33    35    1
    35    29    36   ar
    36    36    37   ar
    37    25    38   ar
    38    38     3   ar
    39    24     6   ar
    40    37    26   ar
    41    24    10   ar
    42    22    13   ar
    43     1    39    1
    44     1    40    1
    45     1    41    1
    46     2    42    1
    47     2    43    1
    48     4    44    1
    49     7    45    1
    50     8    46    1
    51    11    47    1
    52    14    48    1
    53    15    49    1
    54    16    50    1
    55    18    51    1
    56    18    52    1
    57    20    53    1
    58    20    54    1
    59    20    55    1
    60    21    56    1
    61    21    57    1
    62    21    58    1
    63    22    59    1
    64    23    60    1
    65    27    61    1
    66    28    62    1
    67    30    63    1
    68    34    64    1
    69    34    65    1
    70    34    66    1
    71    35    67    1
    72    35    68    1
    73    35    69    1
    74    36    70    1
    75    37    71    1
