@<TRIPOS>MOLECULE
*****
 74 79 0 0 0
SMALL
GASTEIGER

@<TRIPOS>ATOM
      1 C          -6.7400   -1.2937   -1.7087 C.3     1  UNL1       -0.0274
      2 C          -6.0093   -0.9349   -0.4104 C.3     1  UNL1        0.1037
      3 O          -5.8992    0.4690   -0.3979 O.3     1  UNL1       -0.4725
      4 C          -4.6267    1.0230   -0.3725 C.ar    1  UNL1        0.2265
      5 N          -3.5173    0.2602   -0.3597 N.ar    1  UNL1       -0.2121
      6 C          -2.2715    0.7611   -0.3351 C.ar    1  UNL1        0.0798
      7 C          -1.0931   -0.1259   -0.3220 C.ar    1  UNL1        0.0380
      8 C          -1.1758   -1.5063   -0.3335 C.ar    1  UNL1        0.0586
      9 N           0.0758   -1.9449   -0.3159 N.ar    1  UNL1       -0.1787
     10 N           0.9237   -0.9371   -0.2944 N.ar    1  UNL1       -0.2678
     11 C           2.3577   -1.0405   -0.2713 C.3     1  UNL1        0.0528
     12 C           2.8849   -0.3959   -1.5304 C.3     1  UNL1       -0.0291
     13 C           4.4137   -0.4768   -1.4315 C.3     1  UNL1       -0.0354
     14 C           4.8174    0.5679   -0.4108 C.3     1  UNL1        0.0111
     15 N           6.1993    0.4171   -0.0076 N.3     1  UNL1       -0.2895
     16 C           6.5100   -0.8337    0.5831 C.3     1  UNL1        0.0155
     17 C           7.5468   -1.6488   -0.1256 C.3     1  UNL1        0.0272
     18 N           8.7253   -0.8197   -0.2806 N.am    1  UNL1       -0.3023
     19 C          10.0346   -1.3931   -0.0861 C.3     1  UNL1        0.0032
     20 C           8.5033    0.5449   -0.6244 C.2     1  UNL1        0.2295
     21 O           9.4731    1.3486   -0.6204 O.2     1  UNL1       -0.2742
     22 C           7.1170    0.9253   -0.9688 C.3     1  UNL1        0.0762
     23 C           3.8792    0.6935    0.7349 C.3     1  UNL1       -0.0354
     24 C           2.9674   -0.4516    0.9733 C.3     1  UNL1       -0.0291
     25 C           0.2264    0.2132   -0.2976 C.ar    1  UNL1        0.0350
     26 C          -2.1352    2.1328   -0.3226 C.ar    1  UNL1       -0.0076
     27 C          -3.2643    2.9532   -0.3352 C.ar    1  UNL1        0.0999
     28 N          -3.4530    4.2891   -0.3283 N.ar    1  UNL1       -0.1712
     29 N          -4.7478    4.5721   -0.3478 N.ar    1  UNL1       -0.2732
     30 C          -5.2924    5.9149   -0.3468 C.3     1  UNL1        0.0302
     31 C          -5.4704    3.4197   -0.3685 C.ar    1  UNL1        0.0380
     32 C          -4.5313    2.4097   -0.3604 C.ar    1  UNL1        0.0812
     33 C          -6.8801   -1.4434    0.7175 C.3     1  UNL1        0.0196
     34 C          -7.0784   -2.9392    0.6226 C.3     1  UNL1        0.0182
     35 N          -7.4677   -3.2671    1.9997 N.am    1  UNL1       -0.3149
     36 C          -6.9271   -2.2932    2.8770 C.2     1  UNL1        0.2135
     37 O          -7.0615   -2.2914    4.1174 O.2     1  UNL1       -0.2758
     38 C          -6.1897   -1.3014    2.0620 C.3     1  UNL1        0.0315
     39 H          -6.3020   -0.6768   -2.4933 H       1  UNL1        0.0265
     40 H          -7.8146   -1.0532   -1.6246 H       1  UNL1        0.0265
     41 H          -6.6538   -2.3861   -1.8832 H       1  UNL1        0.0265
     42 H          -5.0296   -1.4339   -0.3969 H       1  UNL1        0.0734
     43 H          -2.0839   -2.0981   -0.3529 H       1  UNL1        0.0854
     44 H           2.6327   -2.1117   -0.3285 H       1  UNL1        0.0545
     45 H           2.5291    0.6276   -1.6458 H       1  UNL1        0.0286
     46 H           2.5387   -1.0155   -2.3796 H       1  UNL1        0.0286
     47 H           4.7856   -0.1763   -2.4329 H       1  UNL1        0.0281
     48 H           4.6968   -1.4927   -1.1426 H       1  UNL1        0.0281
     49 H           4.7808    1.5501   -0.9719 H       1  UNL1        0.0463
     50 H           6.9197   -0.6259    1.6154 H       1  UNL1        0.0442
     51 H           5.6341   -1.4901    0.7566 H       1  UNL1        0.0442
     52 H           7.7403   -2.5511    0.4863 H       1  UNL1        0.0477
     53 H           7.1368   -1.9561   -1.1034 H       1  UNL1        0.0477
     54 H          10.2050   -2.1063   -0.9302 H       1  UNL1        0.0428
     55 H          10.0216   -2.0263    0.8440 H       1  UNL1        0.0428
     56 H          10.8250   -0.6520    0.0289 H       1  UNL1        0.0428
     57 H           6.8563    0.6773   -2.0177 H       1  UNL1        0.0522
     58 H           7.0785    2.0483   -0.9135 H       1  UNL1        0.0522
     59 H           4.5065    0.8212    1.6649 H       1  UNL1        0.0281
     60 H           3.2701    1.6419    0.6978 H       1  UNL1        0.0281
     61 H           2.1026   -0.0662    1.5913 H       1  UNL1        0.0286
     62 H           3.4042   -1.2639    1.6095 H       1  UNL1        0.0286
     63 H           0.6189    1.2231   -0.2837 H       1  UNL1        0.0833
     64 H          -1.1553    2.5527   -0.3030 H       1  UNL1        0.0661
     65 H          -6.3341    5.8799    0.0195 H       1  UNL1        0.0473
     66 H          -4.7105    6.5526    0.3446 H       1  UNL1        0.0473
     67 H          -5.2117    6.3526   -1.3634 H       1  UNL1        0.0473
     68 H          -6.5438    3.3049   -0.3872 H       1  UNL1        0.0834
     69 H          -7.8400   -0.9300    0.7486 H       1  UNL1        0.0356
     70 H          -6.1130   -3.4396    0.4460 H       1  UNL1        0.0466
     71 H          -7.8590   -3.2181   -0.1012 H       1  UNL1        0.0466
     72 H          -8.0535   -4.1068    2.2086 H       1  UNL1        0.1487
     73 H          -5.1339   -1.6586    1.9860 H       1  UNL1        0.0363
     74 H          -6.2681   -0.2737    2.4605 H       1  UNL1        0.0363
@<TRIPOS>BOND
     1     1     2    1
     2     2     3    1
     3     3     4    1
     4     4     5   ar
     5     5     6   ar
     6     6     7    1
     7     7     8   ar
     8     8     9   ar
     9     9    10   ar
    10    10    11    1
    11    11    12    1
    12    12    13    1
    13    13    14    1
    14    14    15    1
    15    15    16    1
    16    16    17    1
    17    17    18    1
    18    18    19    1
    19    18    20   am
    20    20    21    2
    21    20    22    1
    22    14    23    1
    23    23    24    1
    24    10    25   ar
    25     6    26   ar
    26    26    27   ar
    27    27    28   ar
    28    28    29   ar
    29    29    30    1
    30    29    31   ar
    31    31    32   ar
    32     2    33    1
    33    33    34    1
    34    34    35    1
    35    35    36   am
    36    36    37    2
    37    36    38    1
    38    32     4   ar
    39    38    33    1
    40    25     7   ar
    41    32    27   ar
    42    24    11    1
    43    22    15    1
    44     1    39    1
    45     1    40    1
    46     1    41    1
    47     2    42    1
    48     8    43    1
    49    11    44    1
    50    12    45    1
    51    12    46    1
    52    13    47    1
    53    13    48    1
    54    14    49    1
    55    16    50    1
    56    16    51    1
    57    17    52    1
    58    17    53    1
    59    19    54    1
    60    19    55    1
    61    19    56    1
    62    22    57    1
    63    22    58    1
    64    23    59    1
    65    23    60    1
    66    24    61    1
    67    24    62    1
    68    25    63    1
    69    26    64    1
    70    30    65    1
    71    30    66    1
    72    30    67    1
    73    31    68    1
    74    33    69    1
    75    34    70    1
    76    34    71    1
    77    35    72    1
    78    38    73    1
    79    38    74    1
