@<TRIPOS>MOLECULE
*****
 64 68 0 0 0
SMALL
GASTEIGER

@<TRIPOS>ATOM
      1 C           1.9046   -0.3819   -3.4566 C.3     1  UNL1       -0.0345
      2 C           1.7198    0.1594   -2.0400 C.3     1  UNL1        0.0813
      3 O           0.6756   -0.3134   -1.3757 O.3     1  UNL1       -0.3668
      4 C          -0.4041    0.3561   -1.0207 C.3     1  UNL1        0.0836
      5 C          -1.5611   -0.1947   -1.8370 C.3     1  UNL1        0.0419
      6 N          -2.7633   -0.0875   -1.0886 N.am    1  UNL1       -0.2948
      7 C          -4.1868   -0.2574   -0.9867 C.2     1  UNL1        0.2194
      8 O          -4.9374   -0.4026   -1.9978 O.2     1  UNL1       -0.2753
      9 C          -4.6033   -0.2344    0.4388 C.3     1  UNL1        0.0429
     10 C          -5.3547   -1.4396    0.8687 C.3     1  UNL1       -0.0128
     11 C          -4.3736   -2.5654    1.0051 C.3     1  UNL1        0.0644
     12 C          -4.4594   -3.2710    2.3330 C.3     1  UNL1       -0.0360
     13 O          -4.6617   -3.4778   -0.0368 O.3     1  UNL1       -0.3888
     14 C          -3.0299   -1.9037    0.7820 C.3     1  UNL1       -0.0190
     15 C          -3.2298   -0.4518    1.0953 C.3     1  UNL1       -0.0080
     16 C          -2.4100    0.4580    0.2289 C.3     1  UNL1        0.0389
     17 C          -0.9251    0.2882    0.3547 C.3     1  UNL1        0.0308
     18 C          -0.4305    1.4383    1.1748 C.ar    1  UNL1       -0.0398
     19 C           0.1980    1.2176    2.3873 C.ar    1  UNL1       -0.0555
     20 C           0.6390    2.2846    3.1198 C.ar    1  UNL1       -0.0262
     21 C           0.4882    3.5918    2.7072 C.ar    1  UNL1        0.1234
     22 F           0.9446    4.6378    3.4705 F       1  UNL1       -0.2055
     23 C          -0.1382    3.8036    1.4997 C.ar    1  UNL1       -0.0262
     24 C          -0.5911    2.7468    0.7440 C.ar    1  UNL1       -0.0555
     25 C           3.0375    0.1706   -1.3859 C.ar    1  UNL1       -0.0181
     26 C           4.1855   -0.2540   -2.0213 C.ar    1  UNL1       -0.0445
     27 C           5.4373   -0.2606   -1.4509 C.ar    1  UNL1        0.0557
     28 C           6.6618   -0.7194   -2.1450 C.3     1  UNL1        0.4174
     29 F           7.6253    0.2748   -1.9644 F       1  UNL1       -0.1659
     30 F           7.1786   -1.8730   -1.6114 F       1  UNL1       -0.1659
     31 F           6.4693   -0.8210   -3.5115 F       1  UNL1       -0.1659
     32 C           5.5664    0.1859   -0.1545 C.ar    1  UNL1       -0.0385
     33 C           4.4427    0.6289    0.5430 C.ar    1  UNL1        0.0557
     34 C           4.5448    1.1179    1.9447 C.3     1  UNL1        0.4174
     35 F           5.8620    1.4230    2.2296 F       1  UNL1       -0.1659
     36 F           4.1313    0.1670    2.8500 F       1  UNL1       -0.1659
     37 F           3.8032    2.2799    2.1149 F       1  UNL1       -0.1659
     38 C           3.2103    0.6149   -0.0751 C.ar    1  UNL1       -0.0445
     39 H           2.6093    0.2435   -4.0435 H       1  UNL1        0.0258
     40 H           2.3287   -1.4069   -3.4613 H       1  UNL1        0.0258
     41 H           0.9458   -0.3292   -4.0235 H       1  UNL1        0.0258
     42 H           1.4749    1.2563   -2.2216 H       1  UNL1        0.0643
     43 H          -0.3192    1.4212   -1.3554 H       1  UNL1        0.0618
     44 H          -1.3453   -1.2500   -2.1647 H       1  UNL1        0.0490
     45 H          -1.6953    0.3645   -2.7854 H       1  UNL1        0.0490
     46 H          -5.0448    0.7280    0.7425 H       1  UNL1        0.0398
     47 H          -5.7819   -1.2455    1.8703 H       1  UNL1        0.0300
     48 H          -6.2131   -1.6948    0.2125 H       1  UNL1        0.0300
     49 H          -5.4200   -3.1642    2.8378 H       1  UNL1        0.0257
     50 H          -4.2556   -4.3613    2.1187 H       1  UNL1        0.0257
     51 H          -3.6444   -2.9731    3.0355 H       1  UNL1        0.0257
     52 H          -5.6173   -3.3855   -0.2984 H       1  UNL1        0.2101
     53 H          -2.2235   -2.3747    1.3665 H       1  UNL1        0.0296
     54 H          -2.8568   -1.9774   -0.3208 H       1  UNL1        0.0296
     55 H          -3.2331   -0.2081    2.1532 H       1  UNL1        0.0327
     56 H          -2.7672    1.4826    0.2529 H       1  UNL1        0.0510
     57 H          -0.7187   -0.6182    0.9137 H       1  UNL1        0.0393
     58 H           0.3226    0.1774    2.7242 H       1  UNL1        0.0621
     59 H           1.1326    2.1057    4.0725 H       1  UNL1        0.0646
     60 H          -0.2774    4.8133    1.1386 H       1  UNL1        0.0646
     61 H          -1.0958    2.9078   -0.2233 H       1  UNL1        0.0621
     62 H           4.1450   -0.6169   -3.0435 H       1  UNL1        0.0627
     63 H           6.5259    0.2056    0.3510 H       1  UNL1        0.0629
     64 H           2.3590    0.9638    0.4884 H       1  UNL1        0.0627
@<TRIPOS>BOND
     1     1     2    1
     2     2     3    1
     3     3     4    1
     4     4     5    1
     5     5     6    1
     6     6     7   am
     7     7     8    2
     8     7     9    1
     9     9    10    1
    10    10    11    1
    11    11    12    1
    12    11    13    1
    13    11    14    1
    14    14    15    1
    15    15    16    1
    16    16    17    1
    17    17    18    1
    18    18    19   ar
    19    19    20   ar
    20    20    21   ar
    21    21    22    1
    22    21    23   ar
    23    23    24   ar
    24     2    25    1
    25    25    26   ar
    26    26    27   ar
    27    27    28    1
    28    28    29    1
    29    28    30    1
    30    28    31    1
    31    27    32   ar
    32    32    33   ar
    33    33    34    1
    34    34    35    1
    35    34    36    1
    36    34    37    1
    37    33    38   ar
    38    17     4    1
    39    24    18   ar
    40    38    25   ar
    41    16     6    1
    42    15     9    1
    43     1    39    1
    44     1    40    1
    45     1    41    1
    46     2    42    1
    47     4    43    1
    48     5    44    1
    49     5    45    1
    50     9    46    1
    51    10    47    1
    52    10    48    1
    53    12    49    1
    54    12    50    1
    55    12    51    1
    56    13    52    1
    57    14    53    1
    58    14    54    1
    59    15    55    1
    60    16    56    1
    61    17    57    1
    62    19    58    1
    63    20    59    1
    64    23    60    1
    65    24    61    1
    66    26    62    1
    67    32    63    1
    68    38    64    1
