
     RDKit          3D

 50 52  0  0  0  0  0  0  0  0999 V2000
    4.1204   -1.5255   -1.2904 C   0  0  0  0  0  0  0  0  0  0  0  0
    4.4201   -0.4632   -0.2730 C   0  0  0  0  0  0  0  0  0  0  0  0
    5.6612    0.1285   -0.3370 C   0  0  0  0  0  0  0  0  0  0  0  0
    6.0264    1.0721    0.6077 C   0  0  0  0  0  0  0  0  0  0  0  0
    7.2715    1.6130    0.4775 O   0  0  0  0  0  0  0  0  0  0  0  0
    7.8021    2.5680    1.3291 C   0  0  0  0  0  0  0  0  0  0  0  0
    9.0441    2.1507    1.8048 F   0  0  0  0  0  0  0  0  0  0  0  0
    8.0858    3.7013    0.5458 F   0  0  0  0  0  0  0  0  0  0  0  0
    5.1008    1.3756    1.5880 C   0  0  0  0  0  0  0  0  0  0  0  0
    3.9075    0.7921    1.6293 N   0  0  0  0  0  0  0  0  0  0  0  0
    3.5316   -0.1491    0.6926 C   0  0  0  0  0  0  0  0  0  0  0  0
    2.1662   -0.6668    0.8138 C   0  0  0  0  0  0  0  0  0  0  0  0
    1.6271   -0.6682    1.9976 O   0  0  0  0  0  0  0  0  0  0  0  0
    1.3436   -1.1660   -0.2004 N   0  0  0  0  0  0  0  0  0  0  0  0
    0.0045   -1.6556    0.0986 C   0  0  0  0  0  0  0  0  0  0  0  0
   -0.1780   -2.9804    0.4196 C   0  0  0  0  0  0  0  0  0  0  0  0
   -1.4812   -3.3705    0.6914 C   0  0  0  0  0  0  0  0  0  0  0  0
   -2.5186   -2.4646    0.6366 C   0  0  0  0  0  0  0  0  0  0  0  0
   -3.7714   -2.8981    0.9109 F   0  0  0  0  0  0  0  0  0  0  0  0
   -2.2870   -1.1445    0.3097 C   0  0  0  0  0  0  0  0  0  0  0  0
   -3.3576   -0.1353    0.2366 C   0  0  2  0  0  0  0  0  0  0  0  0
   -3.9085    0.0310    1.6490 C   0  0  0  0  0  0  0  0  0  0  0  0
   -4.4619   -0.5382   -0.7151 C   0  0  0  0  0  0  0  0  0  0  0  0
   -5.2964    0.5932   -1.1944 C   0  0  1  0  0  0  0  0  0  0  0  0
   -6.7115    0.5323   -0.6161 C   0  0  0  0  0  0  0  0  0  0  0  0
   -7.3385   -0.6439   -0.9879 F   0  0  0  0  0  0  0  0  0  0  0  0
   -6.7055    0.5822    0.7580 F   0  0  0  0  0  0  0  0  0  0  0  0
   -7.4807    1.5659   -1.0701 F   0  0  0  0  0  0  0  0  0  0  0  0
   -4.7640    1.8707   -0.9375 O   0  0  0  0  0  0  0  0  0  0  0  0
   -3.4173    2.0869   -0.6819 C   0  0  0  0  0  0  0  0  0  0  0  0
   -2.8273    3.3167   -1.0313 N   0  0  0  0  0  0  0  0  0  0  0  0
   -2.7735    1.1265   -0.1274 N   0  0  0  0  0  0  0  0  0  0  0  0
   -1.0109   -0.8054    0.0532 N   0  0  0  0  0  0  0  0  0  0  0  0
    3.6564   -1.1278   -2.1763 H   0  0  0  0  0  0  0  0  0  0  0  0
    3.5367   -2.3270   -0.8294 H   0  0  0  0  0  0  0  0  0  0  0  0
    5.0996   -2.0132   -1.5909 H   0  0  0  0  0  0  0  0  0  0  0  0
    6.3700   -0.1490   -1.1440 H   0  0  0  0  0  0  0  0  0  0  0  0
    7.1781    2.9078    2.1595 H   0  0  0  0  0  0  0  0  0  0  0  0
    5.4070    2.1227    2.3266 H   0  0  0  0  0  0  0  0  0  0  0  0
    1.6466   -1.1745   -1.1911 H   0  0  0  0  0  0  0  0  0  0  0  0
    0.6256   -3.6945    0.4648 H   0  0  0  0  0  0  0  0  0  0  0  0
   -1.6549   -4.4004    0.9455 H   0  0  0  0  0  0  0  0  0  0  0  0
   -4.6490   -0.7362    1.9074 H   0  0  0  0  0  0  0  0  0  0  0  0
   -3.0436   -0.0952    2.3364 H   0  0  0  0  0  0  0  0  0  0  0  0
   -4.2729    1.0758    1.8176 H   0  0  0  0  0  0  0  0  0  0  0  0
   -5.1502   -1.2655   -0.1992 H   0  0  0  0  0  0  0  0  0  0  0  0
   -3.9584   -1.0254   -1.5826 H   0  0  0  0  0  0  0  0  0  0  0  0
   -5.4293    0.5188   -2.2951 H   0  0  0  0  0  0  0  0  0  0  0  0
   -1.8101    3.4801   -0.8575 H   0  0  0  0  0  0  0  0  0  0  0  0
   -3.3744    4.0719   -1.4593 H   0  0  0  0  0  0  0  0  0  0  0  0
  1  2  1  0
  2  3  2  0
  3  4  1  0
  4  5  1  0
  5  6  1  0
  6  7  1  0
  6  8  1  0
  4  9  2  0
  9 10  1  0
 10 11  2  0
 11 12  1  0
 12 13  2  0
 12 14  1  0
 14 15  1  0
 15 16  2  0
 16 17  1  0
 17 18  2  0
 18 19  1  0
 18 20  1  0
 20 21  1  0
 21 22  1  1
 21 23  1  0
 23 24  1  0
 24 25  1  0
 25 26  1  0
 25 27  1  0
 25 28  1  0
 24 29  1  0
 29 30  1  0
 30 31  1  0
 30 32  2  0
 20 33  2  0
 11  2  1  0
 33 15  1  0
 32 21  1  0
  1 34  1  0
  1 35  1  0
  1 36  1  0
  3 37  1  0
  6 38  1  0
  9 39  1  0
 14 40  1  0
 16 41  1  0
 17 42  1  0
 22 43  1  0
 22 44  1  0
 22 45  1  0
 23 46  1  0
 23 47  1  0
 24 48  1  6
 31 49  1  0
 31 50  1  0
M  END
$$$$
