@<TRIPOS>MOLECULE
*****
 50 52 0 0 0
SMALL
GASTEIGER

@<TRIPOS>ATOM
      1 C           4.1204   -1.5255   -1.2904 C.3     1  UNL1       -0.0374
      2 C           4.4201   -0.4632   -0.2730 C.ar    1  UNL1       -0.0165
      3 C           5.6612    0.1285   -0.3370 C.ar    1  UNL1       -0.0131
      4 C           6.0264    1.0721    0.6077 C.ar    1  UNL1        0.1452
      5 O           7.2715    1.6130    0.4775 O.3     1  UNL1       -0.4327
      6 C           7.8021    2.5680    1.3291 C.3     1  UNL1        0.3893
      7 F           9.0441    2.1507    1.8048 F       1  UNL1       -0.1663
      8 F           8.0858    3.7013    0.5458 F       1  UNL1       -0.1663
      9 C           5.1008    1.3756    1.5880 C.ar    1  UNL1        0.0703
     10 N           3.9075    0.7921    1.6293 N.ar    1  UNL1       -0.2465
     11 C           3.5316   -0.1491    0.6926 C.ar    1  UNL1        0.1288
     12 C           2.1662   -0.6668    0.8138 C.2     1  UNL1        0.2679
     13 O           1.6271   -0.6682    1.9976 O.2     1  UNL1       -0.2681
     14 N           1.3436   -1.1660   -0.2004 N.am    1  UNL1       -0.2651
     15 C           0.0045   -1.6556    0.0986 C.ar    1  UNL1        0.1257
     16 C          -0.1780   -2.9804    0.4196 C.ar    1  UNL1       -0.0188
     17 C          -1.4812   -3.3705    0.6914 C.ar    1  UNL1       -0.0213
     18 C          -2.5186   -2.4646    0.6366 C.ar    1  UNL1        0.1471
     19 F          -3.7714   -2.8981    0.9109 F       1  UNL1       -0.2035
     20 C          -2.2870   -1.1445    0.3097 C.ar    1  UNL1        0.1058
     21 C          -3.3576   -0.1353    0.2366 C.3     1  UNL1        0.1120
     22 C          -3.9085    0.0310    1.6490 C.3     1  UNL1       -0.0338
     23 C          -4.4619   -0.5382   -0.7151 C.3     1  UNL1        0.0238
     24 C          -5.2964    0.5932   -1.1944 C.3     1  UNL1        0.1998
     25 C          -6.7115    0.5323   -0.6161 C.3     1  UNL1        0.4266
     26 F          -7.3385   -0.6439   -0.9879 F       1  UNL1       -0.1669
     27 F          -6.7055    0.5822    0.7580 F       1  UNL1       -0.1669
     28 F          -7.4807    1.5659   -1.0701 F       1  UNL1       -0.1669
     29 O          -4.7640    1.8707   -0.9375 O.2     1  UNL1       -0.4534
     30 C          -3.4173    2.0869   -0.6819 C.2     1  UNL1        0.2765
     31 N          -2.8273    3.3167   -1.0313 N.pl3   1  UNL1       -0.3134
     32 N          -2.7735    1.1265   -0.1274 N.2     1  UNL1       -0.2241
     33 N          -1.0109   -0.8054    0.0532 N.ar    1  UNL1       -0.2314
     34 H           3.6564   -1.1278   -2.1763 H       1  UNL1        0.0278
     35 H           3.5367   -2.3270   -0.8294 H       1  UNL1        0.0278
     36 H           5.0996   -2.0132   -1.5909 H       1  UNL1        0.0278
     37 H           6.3700   -0.1490   -1.1440 H       1  UNL1        0.0658
     38 H           7.1781    2.9078    2.1595 H       1  UNL1        0.1520
     39 H           5.4070    2.1227    2.3266 H       1  UNL1        0.0867
     40 H           1.6466   -1.1745   -1.1911 H       1  UNL1        0.1566
     41 H           0.6256   -3.6945    0.4648 H       1  UNL1        0.0653
     42 H          -1.6549   -4.4004    0.9455 H       1  UNL1        0.0648
     43 H          -4.6490   -0.7362    1.9074 H       1  UNL1        0.0257
     44 H          -3.0436   -0.0952    2.3364 H       1  UNL1        0.0257
     45 H          -4.2729    1.0758    1.8176 H       1  UNL1        0.0257
     46 H          -5.1502   -1.2655   -0.1992 H       1  UNL1        0.0331
     47 H          -3.9584   -1.0254   -1.5826 H       1  UNL1        0.0331
     48 H          -5.4293    0.5188   -2.2951 H       1  UNL1        0.0826
     49 H          -1.8101    3.4801   -0.8575 H       1  UNL1        0.1466
     50 H          -3.3744    4.0719   -1.4593 H       1  UNL1        0.1466
@<TRIPOS>BOND
     1     1     2    1
     2     2     3   ar
     3     3     4   ar
     4     4     5    1
     5     5     6    1
     6     6     7    1
     7     6     8    1
     8     4     9   ar
     9     9    10   ar
    10    10    11   ar
    11    11    12    1
    12    12    13    2
    13    12    14   am
    14    14    15    1
    15    15    16   ar
    16    16    17   ar
    17    17    18   ar
    18    18    19    1
    19    18    20   ar
    20    20    21    1
    21    21    22    1
    22    21    23    1
    23    23    24    1
    24    24    25    1
    25    25    26    1
    26    25    27    1
    27    25    28    1
    28    24    29    1
    29    29    30    1
    30    30    31    1
    31    30    32    2
    32    20    33   ar
    33    11     2   ar
    34    33    15   ar
    35    32    21    1
    36     1    34    1
    37     1    35    1
    38     1    36    1
    39     3    37    1
    40     6    38    1
    41     9    39    1
    42    14    40    1
    43    16    41    1
    44    17    42    1
    45    22    43    1
    46    22    44    1
    47    22    45    1
    48    23    46    1
    49    23    47    1
    50    24    48    1
    51    31    49    1
    52    31    50    1
