
     RDKit          3D

 35 37  0  0  0  0  0  0  0  0999 V2000
   -1.1246    3.9048    0.7816 C   0  0  0  0  0  0  0  0  0  0  0  0
   -0.4348    2.4242    1.5710 S   0  0  0  0  0  0  0  0  0  0  0  0
   -1.0698    0.9601    0.7308 C   0  0  0  0  0  0  0  0  0  0  0  0
   -2.2173    0.4100    1.1680 N   0  0  0  0  0  0  0  0  0  0  0  0
   -2.6822   -0.6806    0.5357 C   0  0  0  0  0  0  0  0  0  0  0  0
   -3.8553   -1.2170    1.0069 C   0  0  0  0  0  0  0  0  0  0  0  0
   -4.3649   -2.3358    0.3853 C   0  0  0  0  0  0  0  0  0  0  0  0
   -3.7010   -2.8945   -0.6857 C   0  0  0  0  0  0  0  0  0  0  0  0
   -2.5239   -2.2818   -1.0890 C   0  0  0  0  0  0  0  0  0  0  0  0
   -2.0113   -1.1927   -0.4977 N   0  0  0  0  0  0  0  0  0  0  0  0
   -0.8645   -0.6814   -0.9703 C   0  0  0  0  0  0  0  0  0  0  0  0
   -0.1936   -1.1297   -1.9440 N   0  0  0  0  0  0  0  0  0  0  0  0
   -0.3589    0.4531   -0.3308 C   0  0  0  0  0  0  0  0  0  0  0  0
    1.1157    1.2140   -0.8407 S   0  0  0  0  0  6  0  0  0  0  0  0
    1.0260    2.6686   -0.4739 O   0  0  0  0  0  0  0  0  0  0  0  0
    1.2925    1.0179   -2.3129 O   0  0  0  0  0  0  0  0  0  0  0  0
    2.5123    0.5629   -0.0289 C   0  0  0  0  0  0  0  0  0  0  0  0
    3.0218    1.0504    1.1508 C   0  0  0  0  0  0  0  0  0  0  0  0
    4.1430    0.4863    1.7536 C   0  0  0  0  0  0  0  0  0  0  0  0
    4.7494   -0.5864    1.1449 C   0  0  0  0  0  0  0  0  0  0  0  0
    4.2552   -1.0857   -0.0316 C   0  0  0  0  0  0  0  0  0  0  0  0
    3.1425   -0.5132   -0.6145 C   0  0  0  0  0  0  0  0  0  0  0  0
   -1.5279    3.6511   -0.2064 H   0  0  0  0  0  0  0  0  0  0  0  0
   -0.3703    4.7143    0.7187 H   0  0  0  0  0  0  0  0  0  0  0  0
   -2.0044    4.2620    1.3889 H   0  0  0  0  0  0  0  0  0  0  0  0
   -4.4028   -0.8096    1.8404 H   0  0  0  0  0  0  0  0  0  0  0  0
   -5.2821   -2.8031    0.7091 H   0  0  0  0  0  0  0  0  0  0  0  0
   -4.1192   -3.7717   -1.1575 H   0  0  0  0  0  0  0  0  0  0  0  0
   -2.0305   -2.7391   -1.9240 H   0  0  0  0  0  0  0  0  0  0  0  0
   -0.3319   -1.9168   -2.5634 H   0  0  0  0  0  0  0  0  0  0  0  0
    2.5196    1.9054    1.6142 H   0  0  0  0  0  0  0  0  0  0  0  0
    4.5408    0.8714    2.6802 H   0  0  0  0  0  0  0  0  0  0  0  0
    5.6207   -1.0472    1.5862 H   0  0  0  0  0  0  0  0  0  0  0  0
    4.7583   -1.9345   -0.4867 H   0  0  0  0  0  0  0  0  0  0  0  0
    2.7735   -0.9357   -1.5535 H   0  0  0  0  0  0  0  0  0  0  0  0
  1  2  1  0
  2  3  1  0
  3  4  1  0
  4  5  2  0
  5  6  1  0
  6  7  2  0
  7  8  1  0
  8  9  2  0
  9 10  1  0
 10 11  1  0
 11 12  2  3
 11 13  1  0
 13 14  1  0
 14 15  2  0
 14 16  2  0
 14 17  1  0
 17 18  2  0
 18 19  1  0
 19 20  2  0
 20 21  1  0
 21 22  2  0
 13  3  2  0
 22 17  1  0
 10  5  1  0
  1 23  1  0
  1 24  1  0
  1 25  1  0
  6 26  1  0
  7 27  1  0
  8 28  1  0
  9 29  1  0
 12 30  1  0
 18 31  1  0
 19 32  1  0
 20 33  1  0
 21 34  1  0
 22 35  1  0
M  END
$$$$
