@<TRIPOS>MOLECULE
*****
 35 37 0 0 0
SMALL
GASTEIGER

@<TRIPOS>ATOM
      1 C          -1.1246    3.9048    0.7816 C.3     1  UNL1       -0.0120
      2 S          -0.4348    2.4242    1.5710 S.3     1  UNL1       -0.1073
      3 C          -1.0698    0.9601    0.7308 C.ar    1  UNL1        0.1278
      4 N          -2.2173    0.4100    1.1680 N.ar    1  UNL1       -0.2210
      5 C          -2.6822   -0.6806    0.5357 C.ar    1  UNL1        0.1403
      6 C          -3.8553   -1.2170    1.0069 C.ar    1  UNL1       -0.0187
      7 C          -4.3649   -2.3358    0.3853 C.ar    1  UNL1       -0.0569
      8 C          -3.7010   -2.8945   -0.6857 C.ar    1  UNL1       -0.0450
      9 C          -2.5239   -2.2818   -1.0890 C.ar    1  UNL1        0.0131
     10 N          -2.0113   -1.1927   -0.4977 N.ar    1  UNL1       -0.2846
     11 C          -0.8645   -0.6814   -0.9703 C.ar    1  UNL1        0.1599
     12 N          -0.1936   -1.1297   -1.9440 N.2     1  UNL1       -0.2814
     13 C          -0.3589    0.4531   -0.3308 C.ar    1  UNL1        0.1672
     14 S           1.1157    1.2140   -0.8407 S.O2    1  UNL1        0.0310
     15 O           1.0260    2.6686   -0.4739 O.2     1  UNL1       -0.1641
     16 O           1.2925    1.0179   -2.3129 O.2     1  UNL1       -0.1641
     17 C           2.5123    0.5629   -0.0289 C.ar    1  UNL1        0.0938
     18 C           3.0218    1.0504    1.1508 C.ar    1  UNL1       -0.0365
     19 C           4.1430    0.4863    1.7536 C.ar    1  UNL1       -0.0599
     20 C           4.7494   -0.5864    1.1449 C.ar    1  UNL1       -0.0616
     21 C           4.2552   -1.0857   -0.0316 C.ar    1  UNL1       -0.0599
     22 C           3.1425   -0.5132   -0.6145 C.ar    1  UNL1       -0.0365
     23 H          -1.5279    3.6511   -0.2064 H       1  UNL1        0.0344
     24 H          -0.3703    4.7143    0.7187 H       1  UNL1        0.0344
     25 H          -2.0044    4.2620    1.3889 H       1  UNL1        0.0344
     26 H          -4.4028   -0.8096    1.8404 H       1  UNL1        0.0654
     27 H          -5.2821   -2.8031    0.7091 H       1  UNL1        0.0619
     28 H          -4.1192   -3.7717   -1.1575 H       1  UNL1        0.0632
     29 H          -2.0305   -2.7391   -1.9240 H       1  UNL1        0.0814
     30 H          -0.3319   -1.9168   -2.5634 H       1  UNL1        0.1884
     31 H           2.5196    1.9054    1.6142 H       1  UNL1        0.0637
     32 H           4.5408    0.8714    2.6802 H       1  UNL1        0.0618
     33 H           5.6207   -1.0472    1.5862 H       1  UNL1        0.0618
     34 H           4.7583   -1.9345   -0.4867 H       1  UNL1        0.0618
     35 H           2.7735   -0.9357   -1.5535 H       1  UNL1        0.0637
@<TRIPOS>BOND
     1     1     2    1
     2     2     3    1
     3     3     4   ar
     4     4     5   ar
     5     5     6   ar
     6     6     7   ar
     7     7     8   ar
     8     8     9   ar
     9     9    10   ar
    10    10    11   ar
    11    11    12    2
    12    11    13   ar
    13    13    14    1
    14    14    15    2
    15    14    16    2
    16    14    17    1
    17    17    18   ar
    18    18    19   ar
    19    19    20   ar
    20    20    21   ar
    21    21    22   ar
    22    13     3   ar
    23    22    17   ar
    24    10     5   ar
    25     1    23    1
    26     1    24    1
    27     1    25    1
    28     6    26    1
    29     7    27    1
    30     8    28    1
    31     9    29    1
    32    12    30    1
    33    18    31    1
    34    19    32    1
    35    20    33    1
    36    21    34    1
    37    22    35    1
