@<TRIPOS>MOLECULE
*****
 47 49 0 0 0
SMALL
GASTEIGER

@<TRIPOS>ATOM
      1 BR          8.5897    2.3841   -3.6404 Br      1  UNL1       -0.0503
      2 C           7.2683    1.5414   -2.5539 C.ar    1  UNL1        0.0179
      3 C           7.4629    0.2058   -2.2889 C.ar    1  UNL1       -0.0472
      4 C           6.5872   -0.5255   -1.5188 C.ar    1  UNL1       -0.0536
      5 C           5.4486    0.0631   -0.9660 C.ar    1  UNL1       -0.0252
      6 C           4.5149   -0.7030   -0.1513 C.2     1  UNL1       -0.0573
      7 C           3.4143   -0.2569    0.4274 C.2     1  UNL1       -0.0697
      8 C           2.5915   -1.1978    1.2205 C.3     1  UNL1        0.0146
      9 N           1.2386   -1.3305    0.7150 N.3     1  UNL1       -0.3113
     10 C           0.4557   -0.1372    0.8963 C.3     1  UNL1        0.0104
     11 C          -0.9602   -0.3216    0.3310 C.3     1  UNL1        0.0300
     12 N          -1.5648   -1.3854    0.9988 N.3     1  UNL1       -0.1887
     13 S          -3.1344   -1.8799    0.6397 S.O2    1  UNL1        0.0590
     14 O          -3.4149   -3.0313    1.6105 O.2     1  UNL1       -0.1530
     15 O          -3.2373   -2.5811   -0.7005 O.2     1  UNL1       -0.1530
     16 C          -4.4008   -0.7404    0.8872 C.ar    1  UNL1        0.1130
     17 C          -5.2728   -0.8467    1.9862 C.ar    1  UNL1       -0.0347
     18 C          -6.2701    0.0329    2.3259 C.ar    1  UNL1       -0.0593
     19 C          -6.4557    1.1374    1.5259 C.ar    1  UNL1       -0.0525
     20 C          -5.6513    1.3439    0.4090 C.ar    1  UNL1        0.0021
     21 C          -4.6833    0.3975    0.1634 C.ar    1  UNL1        0.0113
     22 C          -3.9264    0.6198   -0.9655 C.ar    1  UNL1       -0.0340
     23 C          -4.0807    1.6902   -1.8139 C.ar    1  UNL1        0.0282
     24 N          -5.0481    2.5681   -1.4964 N.ar    1  UNL1       -0.2626
     25 C          -5.8285    2.4259   -0.4211 C.ar    1  UNL1        0.0353
     26 C           5.2663    1.4030   -1.2402 C.ar    1  UNL1       -0.0536
     27 C           6.1510    2.1479   -2.0199 C.ar    1  UNL1       -0.0472
     28 H           8.3220   -0.3644   -2.6701 H       1  UNL1        0.0629
     29 H           6.7384   -1.5733   -1.3083 H       1  UNL1        0.0624
     30 H           4.7572   -1.7672   -0.0028 H       1  UNL1        0.0621
     31 H           3.1832    0.7836    0.2810 H       1  UNL1        0.0585
     32 H           3.0797   -2.1750    1.3040 H       1  UNL1        0.0468
     33 H           2.5913   -0.7746    2.2654 H       1  UNL1        0.0468
     34 H           0.7765   -2.1501    1.1707 H       1  UNL1        0.1223
     35 H           0.9437    0.7054    0.3629 H       1  UNL1        0.0437
     36 H           0.3895    0.1251    1.9745 H       1  UNL1        0.0437
     37 H          -1.4573    0.6628    0.5577 H       1  UNL1        0.0454
     38 H          -0.7912   -0.4607   -0.7525 H       1  UNL1        0.0454
     39 H          -1.4775   -1.2392    2.0324 H       1  UNL1        0.1480
     40 H          -5.1586   -1.7004    2.6408 H       1  UNL1        0.0637
     41 H          -6.8866   -0.1423    3.1937 H       1  UNL1        0.0618
     42 H          -7.2145    1.8439    1.7541 H       1  UNL1        0.0624
     43 H          -3.1697   -0.0943   -1.2447 H       1  UNL1        0.0639
     44 H          -3.5170    1.8993   -2.6924 H       1  UNL1        0.0830
     45 H          -6.6163    3.0951   -0.1208 H       1  UNL1        0.0836
     46 H           4.4194    1.9347   -0.8591 H       1  UNL1        0.0624
     47 H           6.0283    3.1906   -2.2467 H       1  UNL1        0.0629
@<TRIPOS>BOND
     1     1     2    1
     2     2     3   ar
     3     3     4   ar
     4     4     5   ar
     5     5     6    1
     6     6     7    2
     7     7     8    1
     8     8     9    1
     9     9    10    1
    10    10    11    1
    11    11    12    1
    12    12    13    1
    13    13    14    2
    14    13    15    2
    15    13    16    1
    16    16    17   ar
    17    17    18   ar
    18    18    19   ar
    19    19    20   ar
    20    20    21   ar
    21    21    22   ar
    22    22    23   ar
    23    23    24   ar
    24    24    25   ar
    25     5    26   ar
    26    26    27   ar
    27    27     2   ar
    28    21    16   ar
    29    25    20   ar
    30     3    28    1
    31     4    29    1
    32     6    30    1
    33     7    31    1
    34     8    32    1
    35     8    33    1
    36     9    34    1
    37    10    35    1
    38    10    36    1
    39    11    37    1
    40    11    38    1
    41    12    39    1
    42    17    40    1
    43    18    41    1
    44    19    42    1
    45    22    43    1
    46    23    44    1
    47    25    45    1
    48    26    46    1
    49    27    47    1
