@<TRIPOS>MOLECULE
*****
 33 34 0 0 0
SMALL
GASTEIGER

@<TRIPOS>ATOM
      1 C           0.5737    2.0203    2.0466 C.2     1  UNL1       -0.0720
      2 C           1.1897    1.0118    1.4595 C.2     1  UNL1        0.0935
      3 C           2.5157    1.0953    0.8609 C.2     1  UNL1        0.2684
      4 O           3.2778    2.1183    0.8003 O.2     1  UNL1       -0.2681
      5 N           2.8229   -0.1704    0.3485 N.am    1  UNL1       -0.2097
      6 C           4.0615   -0.5173   -0.3340 C.3     1  UNL1        0.1211
      7 C           3.8787   -0.2692   -1.7892 C.2     1  UNL1        0.3228
      8 O           4.8096   -0.4914   -2.6069 O.2     1  UNL1       -0.2492
      9 O           2.6894    0.2141   -2.3218 O.3     1  UNL1       -0.4795
     10 C           1.7233   -1.0267    0.6160 C.2     1  UNL1        0.3165
     11 O           1.6897   -2.2388    0.2794 O.2     1  UNL1       -0.2516
     12 N           0.6890   -0.3102    1.3099 N.am    1  UNL1       -0.2464
     13 C          -0.5922   -0.8552    1.7578 C.3     1  UNL1        0.0467
     14 C          -1.6288   -0.7673    0.7263 C.ar    1  UNL1       -0.0232
     15 C          -1.8504   -1.7554   -0.2175 C.ar    1  UNL1       -0.0566
     16 C          -2.8316   -1.6609   -1.1806 C.ar    1  UNL1       -0.0550
     17 C          -3.6305   -0.5372   -1.2118 C.ar    1  UNL1        0.0156
     18 C          -3.4500    0.4754   -0.2935 C.ar    1  UNL1        0.2735
     19 N          -4.2744    1.6368   -0.3243 N.pl3   1  UNL1        0.0796
     20 O          -4.1082    2.5467    0.5052 O.2     1  UNL1        0.0414
     21 O          -5.2652    1.7855   -1.2586 O.co2   1  UNL1       -0.5760
     22 C          -2.4433    0.3393    0.6666 C.ar    1  UNL1        0.0203
     23 H          -0.4131    1.9328    2.4850 H       1  UNL1        0.0555
     24 H           1.0731    2.9722    2.0924 H       1  UNL1        0.0555
     25 H           4.8758    0.1404    0.0051 H       1  UNL1        0.0585
     26 H           4.3342   -1.5789   -0.2049 H       1  UNL1        0.0585
     27 H           2.6002    0.4280   -3.3275 H       1  UNL1        0.2951
     28 H          -0.9031   -0.2448    2.6258 H       1  UNL1        0.0518
     29 H          -0.4777   -1.8991    2.1082 H       1  UNL1        0.0518
     30 H          -1.1954   -2.6217   -0.1524 H       1  UNL1        0.0621
     31 H          -2.9752   -2.4601   -1.9065 H       1  UNL1        0.0620
     32 H          -4.4006   -0.4931   -1.9894 H       1  UNL1        0.0685
     33 H          -2.3649    1.1807    1.3575 H       1  UNL1        0.0688
@<TRIPOS>UNITY_ATOM_ATTR
19 1
charge 1
21 1
charge -1
@<TRIPOS>BOND
     1     1     2    2
     2     2     3    1
     3     3     4    2
     4     3     5   am
     5     5     6    1
     6     6     7    1
     7     7     8    2
     8     7     9    1
     9     5    10   am
    10    10    11    2
    11    10    12   am
    12    12    13    1
    13    13    14    1
    14    14    15   ar
    15    15    16   ar
    16    16    17   ar
    17    17    18   ar
    18    18    19    1
    19    19    20    2
    20    19    21    1
    21    18    22   ar
    22    12     2    1
    23    22    14   ar
    24     1    23    1
    25     1    24    1
    26     6    25    1
    27     6    26    1
    28     9    27    1
    29    13    28    1
    30    13    29    1
    31    15    30    1
    32    16    31    1
    33    17    32    1
    34    22    33    1
