
     RDKit          3D

 44 46  0  0  0  0  0  0  0  0999 V2000
   -2.7204    1.6033    1.8063 C   0  0  0  0  0  0  0  0  0  0  0  0
   -2.3433    0.5281    0.8065 C   0  0  1  0  0  0  0  0  0  0  0  0
   -1.1555   -0.1418    1.3067 C   0  0  0  0  0  0  0  0  0  0  0  0
    0.0320   -0.0597    0.6252 C   0  0  0  0  0  0  0  0  0  0  0  0
    1.2017   -0.6806    1.0568 C   0  0  0  0  0  0  0  0  0  0  0  0
    2.3516   -0.5075    0.2500 N   0  0  0  0  0  0  0  0  0  0  0  0
    3.6344   -1.0323    0.4779 C   0  0  0  0  0  0  0  0  0  0  0  0
    3.8678   -1.7331    1.4705 O   0  0  0  0  0  0  0  0  0  0  0  0
    4.7572   -0.7712   -0.4546 C   0  0  0  0  0  0  0  0  0  0  0  0
    4.5641   -0.0204   -1.5444 N   0  0  0  0  0  0  0  0  0  0  0  0
    5.5455    0.2429   -2.4146 C   0  0  0  0  0  0  0  0  0  0  0  0
    6.8226   -0.2570   -2.2233 C   0  0  0  0  0  0  0  0  0  0  0  0
    8.2132    0.1284   -3.4755 Br  0  0  0  0  0  0  0  0  0  0  0  0
    7.0226   -1.0285   -1.1041 C   0  0  0  0  0  0  0  0  0  0  0  0
    6.0045   -1.2933   -0.2145 C   0  0  0  0  0  0  0  0  0  0  0  0
    6.2047   -2.0600    0.8969 F   0  0  0  0  0  0  0  0  0  0  0  0
    1.1545   -1.4046    2.2166 C   0  0  0  0  0  0  0  0  0  0  0  0
   -0.0220   -1.5118    2.9324 C   0  0  0  0  0  0  0  0  0  0  0  0
   -0.0333   -2.2330    4.0712 F   0  0  0  0  0  0  0  0  0  0  0  0
   -1.1568   -0.8797    2.4669 C   0  0  0  0  0  0  0  0  0  0  0  0
   -2.2831   -0.9953    3.1726 F   0  0  0  0  0  0  0  0  0  0  0  0
   -3.4902   -0.4169    0.5396 C   0  0  0  0  0  0  0  0  0  0  0  0
   -4.5733    0.1350   -0.3092 C   0  0  1  0  0  0  0  0  0  0  0  0
   -5.8574    0.3956    0.4913 C   0  0  0  0  0  0  0  0  0  0  0  0
   -6.8401    0.9087   -0.3353 F   0  0  0  0  0  0  0  0  0  0  0  0
   -6.3527   -0.7880    0.9998 F   0  0  0  0  0  0  0  0  0  0  0  0
   -5.6517    1.3347    1.4828 F   0  0  0  0  0  0  0  0  0  0  0  0
   -4.2106    1.2977   -1.0267 O   0  0  0  0  0  0  0  0  0  0  0  0
   -2.8761    1.5862   -1.2986 C   0  0  0  0  0  0  0  0  0  0  0  0
   -2.5711    2.2535   -2.4946 N   0  0  0  0  0  0  0  0  0  0  0  0
   -2.0190    1.2162   -0.4258 N   0  0  0  0  0  0  0  0  0  0  0  0
   -1.7416    2.0149    2.1947 H   0  0  0  0  0  0  0  0  0  0  0  0
   -3.2414    1.2159    2.6885 H   0  0  0  0  0  0  0  0  0  0  0  0
   -3.2127    2.4755    1.3277 H   0  0  0  0  0  0  0  0  0  0  0  0
    0.0544    0.5265   -0.3064 H   0  0  0  0  0  0  0  0  0  0  0  0
    2.2875    0.0815   -0.6456 H   0  0  0  0  0  0  0  0  0  0  0  0
    5.3806    0.8602   -3.3077 H   0  0  0  0  0  0  0  0  0  0  0  0
    8.0116   -1.4371   -0.9222 H   0  0  0  0  0  0  0  0  0  0  0  0
    2.0292   -1.9145    2.6110 H   0  0  0  0  0  0  0  0  0  0  0  0
   -3.0459   -1.3017    0.0336 H   0  0  0  0  0  0  0  0  0  0  0  0
   -3.9594   -0.7165    1.5227 H   0  0  0  0  0  0  0  0  0  0  0  0
   -4.8668   -0.6196   -1.0686 H   0  0  0  0  0  0  0  0  0  0  0  0
   -2.5482    3.2849   -2.5273 H   0  0  0  0  0  0  0  0  0  0  0  0
   -2.3672    1.7140   -3.3518 H   0  0  0  0  0  0  0  0  0  0  0  0
  2  1  1  1
  2  3  1  0
  3  4  2  0
  4  5  1  0
  5  6  1  0
  6  7  1  0
  7  8  2  0
  7  9  1  0
  9 10  2  0
 10 11  1  0
 11 12  2  0
 12 13  1  0
 12 14  1  0
 14 15  2  0
 15 16  1  0
  5 17  2  0
 17 18  1  0
 18 19  1  0
 18 20  2  0
 20 21  1  0
  2 22  1  0
 22 23  1  0
 23 24  1  0
 24 25  1  0
 24 26  1  0
 24 27  1  0
 23 28  1  0
 28 29  1  0
 29 30  1  0
 29 31  2  0
 31  2  1  0
 20  3  1  0
 15  9  1  0
  1 32  1  0
  1 33  1  0
  1 34  1  0
  4 35  1  0
  6 36  1  0
 11 37  1  0
 14 38  1  0
 17 39  1  0
 22 40  1  0
 22 41  1  0
 23 42  1  6
 30 43  1  0
 30 44  1  0
M  END
$$$$
