@<TRIPOS>MOLECULE
*****
 44 46 0 0 0
SMALL
GASTEIGER

@<TRIPOS>ATOM
      1 C          -2.7204    1.6033    1.8063 C.3     1  UNL1       -0.0352
      2 C          -2.3433    0.5281    0.8065 C.3     1  UNL1        0.0952
      3 C          -1.1555   -0.1418    1.3067 C.ar    1  UNL1        0.0197
      4 C           0.0320   -0.0597    0.6252 C.ar    1  UNL1       -0.0321
      5 C           1.2017   -0.6806    1.0568 C.ar    1  UNL1        0.0369
      6 N           2.3516   -0.5075    0.2500 N.am    1  UNL1       -0.2801
      7 C           3.6344   -1.0323    0.4779 C.2     1  UNL1        0.2694
      8 O           3.8678   -1.7331    1.4705 O.2     1  UNL1       -0.2681
      9 C           4.7572   -0.7712   -0.4546 C.ar    1  UNL1        0.1608
     10 N           4.5641   -0.0204   -1.5444 N.ar    1  UNL1       -0.2464
     11 C           5.5455    0.2429   -2.4146 C.ar    1  UNL1        0.0426
     12 C           6.8226   -0.2570   -2.2233 C.ar    1  UNL1        0.0387
     13 BR          8.2132    0.1284   -3.4755 Br      1  UNL1       -0.0486
     14 C           7.0226   -1.0285   -1.1041 C.ar    1  UNL1       -0.0087
     15 C           6.0045   -1.2933   -0.2145 C.ar    1  UNL1        0.1548
     16 F           6.2047   -2.0600    0.8969 F       1  UNL1       -0.2031
     17 C           1.1545   -1.4046    2.2166 C.ar    1  UNL1       -0.0023
     18 C          -0.0220   -1.5118    2.9324 C.ar    1  UNL1        0.1605
     19 F          -0.0333   -2.2330    4.0712 F       1  UNL1       -0.2024
     20 C          -1.1568   -0.8797    2.4669 C.ar    1  UNL1        0.1640
     21 F          -2.2831   -0.9953    3.1726 F       1  UNL1       -0.2021
     22 C          -3.4902   -0.4169    0.5396 C.3     1  UNL1        0.0223
     23 C          -4.5733    0.1350   -0.3092 C.3     1  UNL1        0.1997
     24 C          -5.8574    0.3956    0.4913 C.3     1  UNL1        0.4266
     25 F          -6.8401    0.9087   -0.3353 F       1  UNL1       -0.1669
     26 F          -6.3527   -0.7880    0.9998 F       1  UNL1       -0.1669
     27 F          -5.6517    1.3347    1.4828 F       1  UNL1       -0.1669
     28 O          -4.2106    1.2977   -1.0267 O.2     1  UNL1       -0.4534
     29 C          -2.8761    1.5862   -1.2986 C.2     1  UNL1        0.2765
     30 N          -2.5711    2.2535   -2.4946 N.pl3   1  UNL1       -0.3134
     31 N          -2.0190    1.2162   -0.4258 N.2     1  UNL1       -0.2257
     32 H          -1.7416    2.0149    2.1947 H       1  UNL1        0.0256
     33 H          -3.2414    1.2159    2.6885 H       1  UNL1        0.0256
     34 H          -3.2127    2.4755    1.3277 H       1  UNL1        0.0256
     35 H           0.0544    0.5265   -0.3064 H       1  UNL1        0.0640
     36 H           2.2875    0.0815   -0.6456 H       1  UNL1        0.1552
     37 H           5.3806    0.8602   -3.3077 H       1  UNL1        0.0841
     38 H           8.0116   -1.4371   -0.9222 H       1  UNL1        0.0658
     39 H           2.0292   -1.9145    2.6110 H       1  UNL1        0.0666
     40 H          -3.0459   -1.3017    0.0336 H       1  UNL1        0.0330
     41 H          -3.9594   -0.7165    1.5227 H       1  UNL1        0.0330
     42 H          -4.8668   -0.6196   -1.0686 H       1  UNL1        0.0826
     43 H          -2.5482    3.2849   -2.5273 H       1  UNL1        0.1466
     44 H          -2.3672    1.7140   -3.3518 H       1  UNL1        0.1466
@<TRIPOS>BOND
     1     2     1    1
     2     2     3    1
     3     3     4   ar
     4     4     5   ar
     5     5     6    1
     6     6     7   am
     7     7     8    2
     8     7     9    1
     9     9    10   ar
    10    10    11   ar
    11    11    12   ar
    12    12    13    1
    13    12    14   ar
    14    14    15   ar
    15    15    16    1
    16     5    17   ar
    17    17    18   ar
    18    18    19    1
    19    18    20   ar
    20    20    21    1
    21     2    22    1
    22    22    23    1
    23    23    24    1
    24    24    25    1
    25    24    26    1
    26    24    27    1
    27    23    28    1
    28    28    29    1
    29    29    30    1
    30    29    31    2
    31    31     2    1
    32    20     3   ar
    33    15     9   ar
    34     1    32    1
    35     1    33    1
    36     1    34    1
    37     4    35    1
    38     6    36    1
    39    11    37    1
    40    14    38    1
    41    17    39    1
    42    22    40    1
    43    22    41    1
    44    23    42    1
    45    30    43    1
    46    30    44    1
