
     RDKit          3D

 38 42  0  0  0  0  0  0  0  0999 V2000
   -0.5219    3.5175   -1.7373 O   0  0  0  0  0  0  0  0  0  0  0  0
   -0.1172    2.4813   -1.1863 C   0  0  0  0  0  0  0  0  0  0  0  0
    1.2056    2.2744   -0.9148 N   0  0  0  0  0  0  0  0  0  0  0  0
    1.6288    1.1526   -0.3202 C   0  0  0  0  0  0  0  0  0  0  0  0
    2.9506    0.9069   -0.0302 C   0  0  0  0  0  0  0  0  0  0  0  0
    3.3854   -0.2374    0.5767 C   0  0  0  0  0  0  0  0  0  0  0  0
    4.8028   -0.4668    0.8713 C   0  0  0  0  0  0  0  0  0  0  0  0
    5.9189    0.2943    0.6503 C   0  0  0  0  0  0  0  0  0  0  0  0
    7.0961   -0.1614    1.0225 C   0  0  0  0  0  0  0  0  0  0  0  0
    7.2279   -1.3862    1.6288 C   0  0  0  0  0  0  0  0  0  0  0  0
    5.4487   -1.9345    1.6614 S   0  0  0  0  0  0  0  0  0  0  0  0
    2.4329   -1.1893    0.9109 C   0  0  0  0  0  0  0  0  0  0  0  0
    1.0941   -0.9970    0.6444 C   0  0  0  0  0  0  0  0  0  0  0  0
    0.7103    0.1871    0.0249 C   0  0  0  0  0  0  0  0  0  0  0  0
   -0.6436    0.3625   -0.2355 C   0  0  0  0  0  0  0  0  0  0  0  0
   -1.7254   -0.3954   -0.0115 N   0  0  0  0  0  0  0  0  0  0  0  0
   -2.8422    0.2608   -0.4723 C   0  0  0  0  0  0  0  0  0  0  0  0
   -4.1752   -0.3206   -0.3659 C   0  0  0  0  0  0  0  0  0  0  0  0
   -4.3305   -1.5794    0.2195 C   0  0  0  0  0  0  0  0  0  0  0  0
   -5.5762   -2.1173    0.3163 C   0  0  0  0  0  0  0  0  0  0  0  0
   -6.7149   -1.4785   -0.1389 C   0  0  0  0  0  0  0  0  0  0  0  0
   -6.5852   -0.2393   -0.7182 C   0  0  0  0  0  0  0  0  0  0  0  0
   -5.3125    0.3035   -0.8139 C   0  0  0  0  0  0  0  0  0  0  0  0
   -5.2349    1.8994   -1.5715 Cl  0  0  0  0  0  0  0  0  0  0  0  0
   -2.3961    1.4092   -0.9667 N   0  0  0  0  0  0  0  0  0  0  0  0
   -1.0468    1.5263   -0.8477 C   0  0  0  0  0  0  0  0  0  0  0  0
    1.9020    2.9977   -1.1723 H   0  0  0  0  0  0  0  0  0  0  0  0
    3.6853    1.6586   -0.2964 H   0  0  0  0  0  0  0  0  0  0  0  0
    5.7674    1.2896    0.1517 H   0  0  0  0  0  0  0  0  0  0  0  0
    8.0529    0.4187    0.8678 H   0  0  0  0  0  0  0  0  0  0  0  0
    8.0161   -1.9718    2.0130 H   0  0  0  0  0  0  0  0  0  0  0  0
    2.7542   -2.0867    1.3843 H   0  0  0  0  0  0  0  0  0  0  0  0
    0.3527   -1.7324    0.9017 H   0  0  0  0  0  0  0  0  0  0  0  0
   -3.4493   -2.0798    0.5747 H   0  0  0  0  0  0  0  0  0  0  0  0
   -5.7070   -3.0995    0.7718 H   0  0  0  0  0  0  0  0  0  0  0  0
   -7.6851   -1.9543   -0.0361 H   0  0  0  0  0  0  0  0  0  0  0  0
   -7.4223    0.3156   -1.0939 H   0  0  0  0  0  0  0  0  0  0  0  0
   -2.9463    2.1716   -1.4050 H   0  0  0  0  0  0  0  0  0  0  0  0
  1  2  2  0
  2  3  1  0
  3  4  1  0
  4  5  2  0
  5  6  1  0
  6  7  1  0
  7  8  2  0
  8  9  1  0
  9 10  2  0
 10 11  1  0
  6 12  2  0
 12 13  1  0
 13 14  2  0
 14 15  1  0
 15 16  1  0
 16 17  2  0
 17 18  1  0
 18 19  2  0
 19 20  1  0
 20 21  2  0
 21 22  1  0
 22 23  2  0
 23 24  1  0
 17 25  1  0
 25 26  1  0
 26  2  1  0
 14  4  1  0
 26 15  2  0
 11  7  1  0
 23 18  1  0
  3 27  1  0
  5 28  1  0
  8 29  1  0
  9 30  1  0
 10 31  1  0
 12 32  1  0
 13 33  1  0
 19 34  1  0
 20 35  1  0
 21 36  1  0
 22 37  1  0
 25 38  1  0
M  END
$$$$
