@<TRIPOS>MOLECULE
*****
 38 42 0 0 0
SMALL
GASTEIGER

@<TRIPOS>ATOM
      1 O          -0.5219    3.5175   -1.7373 O.2     1  UNL1       -0.2656
      2 C          -0.1172    2.4813   -1.1863 C.ar    1  UNL1        0.2748
      3 N           1.2056    2.2744   -0.9148 N.ar    1  UNL1       -0.3203
      4 C           1.6288    1.1526   -0.3202 C.ar    1  UNL1        0.0519
      5 C           2.9506    0.9069   -0.0302 C.ar    1  UNL1       -0.0294
      6 C           3.3854   -0.2374    0.5767 C.ar    1  UNL1       -0.0093
      7 C           4.8028   -0.4668    0.8713 C.ar    1  UNL1        0.0194
      8 C           5.9189    0.2943    0.6503 C.ar    1  UNL1       -0.0469
      9 C           7.0961   -0.1614    1.0225 C.ar    1  UNL1       -0.0541
     10 C           7.2279   -1.3862    1.6288 C.ar    1  UNL1       -0.0237
     11 S           5.4487   -1.9345    1.6614 S.2     1  UNL1       -0.0967
     12 C           2.4329   -1.1893    0.9109 C.ar    1  UNL1       -0.0528
     13 C           1.0941   -0.9970    0.6444 C.ar    1  UNL1       -0.0499
     14 C           0.7103    0.1871    0.0249 C.ar    1  UNL1        0.0260
     15 C          -0.6436    0.3625   -0.2355 C.ar    1  UNL1        0.1039
     16 N          -1.7254   -0.3954   -0.0115 N.ar    1  UNL1       -0.2269
     17 C          -2.8422    0.2608   -0.4723 C.ar    1  UNL1        0.1408
     18 C          -4.1752   -0.3206   -0.3659 C.ar    1  UNL1        0.0356
     19 C          -4.3305   -1.5794    0.2195 C.ar    1  UNL1       -0.0497
     20 C          -5.5762   -2.1173    0.3163 C.ar    1  UNL1       -0.0610
     21 C          -6.7149   -1.4785   -0.1389 C.ar    1  UNL1       -0.0603
     22 C          -6.5852   -0.2393   -0.7182 C.ar    1  UNL1       -0.0427
     23 C          -5.3125    0.3035   -0.8139 C.ar    1  UNL1        0.0516
     24 CL         -5.2349    1.8994   -1.5715 Cl      1  UNL1       -0.0828
     25 N          -2.3961    1.4092   -0.9667 N.ar    1  UNL1       -0.3336
     26 C          -1.0468    1.5263   -0.8477 C.ar    1  UNL1        0.1322
     27 H           1.9020    2.9977   -1.1723 H       1  UNL1        0.1690
     28 H           3.6853    1.6586   -0.2964 H       1  UNL1        0.0644
     29 H           5.7674    1.2896    0.1517 H       1  UNL1        0.0629
     30 H           8.0529    0.4187    0.8678 H       1  UNL1        0.0623
     31 H           8.0161   -1.9718    2.0130 H       1  UNL1        0.0693
     32 H           2.7542   -2.0867    1.3843 H       1  UNL1        0.0624
     33 H           0.3527   -1.7324    0.9017 H       1  UNL1        0.0625
     34 H          -3.4493   -2.0798    0.5747 H       1  UNL1        0.0625
     35 H          -5.7070   -3.0995    0.7718 H       1  UNL1        0.0618
     36 H          -7.6851   -1.9543   -0.0361 H       1  UNL1        0.0618
     37 H          -7.4223    0.3156   -1.0939 H       1  UNL1        0.0632
     38 H          -2.9463    2.1716   -1.4050 H       1  UNL1        0.1675
@<TRIPOS>BOND
     1     1     2    2
     2     2     3   ar
     3     3     4   ar
     4     4     5   ar
     5     5     6   ar
     6     6     7    1
     7     7     8   ar
     8     8     9   ar
     9     9    10   ar
    10    10    11   ar
    11     6    12   ar
    12    12    13   ar
    13    13    14   ar
    14    14    15   ar
    15    15    16   ar
    16    16    17   ar
    17    17    18    1
    18    18    19   ar
    19    19    20   ar
    20    20    21   ar
    21    21    22   ar
    22    22    23   ar
    23    23    24    1
    24    17    25   ar
    25    25    26   ar
    26    26     2   ar
    27    14     4   ar
    28    26    15   ar
    29    11     7   ar
    30    23    18   ar
    31     3    27    1
    32     5    28    1
    33     8    29    1
    34     9    30    1
    35    10    31    1
    36    12    32    1
    37    13    33    1
    38    19    34    1
    39    20    35    1
    40    21    36    1
    41    22    37    1
    42    25    38    1
