@<TRIPOS>MOLECULE
*****
 62 65 0 0 0
SMALL
GASTEIGER

@<TRIPOS>ATOM
      1 C           1.4777    1.0415   -3.3823 C.3     1  UNL1       -0.0421
      2 C           1.1889   -0.0676   -2.4275 C.3     1  UNL1        0.0515
      3 C           2.3782   -0.2604   -1.5616 C.ar    1  UNL1       -0.0271
      4 C           3.5681    0.3832   -1.8060 C.ar    1  UNL1       -0.0562
      5 C           4.6892    0.1995   -0.9880 C.ar    1  UNL1       -0.0523
      6 C           4.6423   -0.6368    0.0976 C.ar    1  UNL1        0.0004
      7 C           5.7977   -0.8616    0.9869 C.ar    1  UNL1        0.0711
      8 C           7.0153   -0.2578    0.8090 C.ar    1  UNL1       -0.0330
      9 C           8.0965   -0.4808    1.6580 C.ar    1  UNL1       -0.0229
     10 C           7.9373   -1.3413    2.7179 C.ar    1  UNL1        0.1414
     11 F           8.9565   -1.6045    3.5884 F       1  UNL1       -0.2039
     12 C           6.7013   -1.9303    2.8667 C.ar    1  UNL1        0.0634
     13 N           5.6699   -1.7055    2.0409 N.ar    1  UNL1       -0.2521
     14 C           3.4412   -1.2895    0.3484 C.ar    1  UNL1       -0.0523
     15 C           2.3422   -1.1053   -0.4591 C.ar    1  UNL1       -0.0562
     16 N          -0.0307    0.1224   -1.6808 N.am    1  UNL1       -0.2605
     17 C          -1.1451   -0.8022   -1.7666 C.3     1  UNL1        0.0224
     18 C          -2.4294   -0.0237   -1.4270 C.3     1  UNL1        0.0076
     19 C          -2.3932    0.4663   -0.0126 C.3     1  UNL1        0.1440
     20 C          -2.4438   -0.5673    1.0389 C.3     1  UNL1        0.0199
     21 C          -3.5713   -1.4822    1.1810 C.3     1  UNL1        0.0645
     22 C          -3.9026   -2.3882    0.0390 C.3     1  UNL1       -0.0362
     23 C          -4.8396   -0.8346    1.7185 C.3     1  UNL1       -0.0362
     24 O          -3.1936   -2.3556    2.2479 O.3     1  UNL1       -0.3890
     25 C          -3.3972    1.5588    0.2019 C.ar    1  UNL1       -0.0040
     26 C          -3.5069    2.2300    1.4022 C.ar    1  UNL1       -0.0548
     27 C          -4.4040    3.2235    1.6539 C.ar    1  UNL1       -0.0614
     28 C          -5.2642    3.5787    0.6241 C.ar    1  UNL1       -0.0617
     29 C          -5.1777    2.9193   -0.5991 C.ar    1  UNL1       -0.0614
     30 C          -4.2495    1.9222   -0.7934 C.ar    1  UNL1       -0.0548
     31 O          -1.1262    1.1078    0.1905 O.3     1  UNL1       -0.4387
     32 C          -0.2019    1.2337   -0.8181 C.2     1  UNL1        0.4042
     33 O           0.4785    2.2849   -0.9882 O.2     1  UNL1       -0.2262
     34 H           1.8823    1.9594   -2.9126 H       1  UNL1        0.0251
     35 H           2.2907    0.6768   -4.0739 H       1  UNL1        0.0251
     36 H           0.6276    1.2628   -4.0672 H       1  UNL1        0.0251
     37 H           1.0683   -1.0025   -3.0202 H       1  UNL1        0.0549
     38 H           3.6817    1.0551   -2.6401 H       1  UNL1        0.0621
     39 H           5.6170    0.7223   -1.2063 H       1  UNL1        0.0624
     40 H           7.1772    0.4191   -0.0066 H       1  UNL1        0.0640
     41 H           9.0567   -0.0099    1.5249 H       1  UNL1        0.0647
     42 H           6.6018   -2.6112    3.7185 H       1  UNL1        0.0859
     43 H           3.4037   -1.9477    1.2023 H       1  UNL1        0.0624
     44 H           1.3925   -1.6130   -0.2717 H       1  UNL1        0.0621
     45 H          -1.2929   -1.1763   -2.8024 H       1  UNL1        0.0467
     46 H          -0.9965   -1.5803   -1.0218 H       1  UNL1        0.0467
     47 H          -2.3752    0.8449   -2.1581 H       1  UNL1        0.0322
     48 H          -3.2641   -0.6523   -1.7092 H       1  UNL1        0.0322
     49 H          -2.2612   -0.0998    2.0535 H       1  UNL1        0.0335
     50 H          -1.5153   -1.2041    0.9062 H       1  UNL1        0.0335
     51 H          -4.2969   -3.3531    0.4977 H       1  UNL1        0.0257
     52 H          -3.0314   -2.7056   -0.5319 H       1  UNL1        0.0257
     53 H          -4.7709   -2.0387   -0.5613 H       1  UNL1        0.0257
     54 H          -5.6198   -1.6008    1.9143 H       1  UNL1        0.0257
     55 H          -5.2566   -0.1741    0.9310 H       1  UNL1        0.0257
     56 H          -4.6621   -0.3218    2.6778 H       1  UNL1        0.0257
     57 H          -3.2519   -1.7896    3.0585 H       1  UNL1        0.2101
     58 H          -2.8227    1.9371    2.1986 H       1  UNL1        0.0622
     59 H          -4.4129    3.6884    2.6237 H       1  UNL1        0.0618
     60 H          -5.9726    4.3609    0.8178 H       1  UNL1        0.0618
     61 H          -5.8757    3.2361   -1.3742 H       1  UNL1        0.0618
     62 H          -4.2248    1.4413   -1.7487 H       1  UNL1        0.0622
@<TRIPOS>BOND
     1     1     2    1
     2     2     3    1
     3     3     4   ar
     4     4     5   ar
     5     5     6   ar
     6     6     7    1
     7     7     8   ar
     8     8     9   ar
     9     9    10   ar
    10    10    11    1
    11    10    12   ar
    12    12    13   ar
    13     6    14   ar
    14    14    15   ar
    15     2    16    1
    16    16    17    1
    17    17    18    1
    18    18    19    1
    19    19    20    1
    20    20    21    1
    21    21    22    1
    22    21    23    1
    23    21    24    1
    24    19    25    1
    25    25    26   ar
    26    26    27   ar
    27    27    28   ar
    28    28    29   ar
    29    29    30   ar
    30    19    31    1
    31    31    32    1
    32    32    33    2
    33    15     3   ar
    34    32    16   am
    35    13     7   ar
    36    30    25   ar
    37     1    34    1
    38     1    35    1
    39     1    36    1
    40     2    37    1
    41     4    38    1
    42     5    39    1
    43     8    40    1
    44     9    41    1
    45    12    42    1
    46    14    43    1
    47    15    44    1
    48    17    45    1
    49    17    46    1
    50    18    47    1
    51    18    48    1
    52    20    49    1
    53    20    50    1
    54    22    51    1
    55    22    52    1
    56    22    53    1
    57    23    54    1
    58    23    55    1
    59    23    56    1
    60    24    57    1
    61    26    58    1
    62    27    59    1
    63    28    60    1
    64    29    61    1
    65    30    62    1
