@<TRIPOS>MOLECULE
*****
 42 45 0 0 0
SMALL
GASTEIGER

@<TRIPOS>ATOM
      1 C          -4.5709   -1.0923   -0.9147 C.3     1  UNL1       -0.0391
      2 C          -4.4443    0.2266   -0.2256 C.ar    1  UNL1       -0.0413
      3 C          -3.2212    0.8039    0.0328 C.ar    1  UNL1        0.0034
      4 C          -3.2156    2.0212    0.6742 C.ar    1  UNL1       -0.0523
      5 C          -4.3734    2.6610    1.0552 C.ar    1  UNL1       -0.0611
      6 C          -5.6103    2.1070    0.8100 C.ar    1  UNL1       -0.0615
      7 C          -5.5976    0.8839    0.1644 C.ar    1  UNL1       -0.0582
      8 C          -1.9963    0.1231   -0.3646 C.ar    1  UNL1        0.0769
      9 N          -1.9768   -1.0498   -1.0043 N.ar    1  UNL1       -0.2266
     10 C          -0.9046   -1.7327   -1.3925 C.ar    1  UNL1        0.1721
     11 C          -0.8456   -2.9615   -2.0646 C.ar    1  UNL1        0.0817
     12 BR         -2.3025   -4.0499   -2.6338 Br      1  UNL1       -0.0448
     13 C           0.5285   -3.1647   -2.1976 C.ar    1  UNL1        0.0660
     14 N           1.1523   -2.1212   -1.6367 N.ar    1  UNL1       -0.1706
     15 N           0.3183   -1.2470   -1.1456 N.ar    1  UNL1       -0.1995
     16 C           0.4301   -0.0564   -0.4978 C.ar    1  UNL1        0.1248
     17 N           1.7122    0.4861   -0.1990 N.pl3   1  UNL1       -0.3246
     18 C           2.5762   -0.4381    0.4630 C.3     1  UNL1        0.0413
     19 C           3.9030    0.1191    0.7956 C.ar    1  UNL1        0.0344
     20 C           4.9915    0.0266   -0.0639 C.ar    1  UNL1        0.1875
     21 N           6.2052    0.5029    0.1838 N.ar    1  UNL1       -0.1771
     22 O           7.2256    0.3706   -0.7157 O.co2   1  UNL1       -0.6198
     23 C           6.4675    1.1432    1.3545 C.ar    1  UNL1        0.1828
     24 C           5.4396    1.2670    2.2411 C.ar    1  UNL1        0.0037
     25 C           4.1756    0.7765    1.9953 C.ar    1  UNL1       -0.0458
     26 C          -0.7329    0.6172   -0.1139 C.ar    1  UNL1        0.0042
     27 H          -4.1822   -1.1034   -1.9319 H       1  UNL1        0.0278
     28 H          -5.6552   -1.3955   -0.9606 H       1  UNL1        0.0278
     29 H          -4.0867   -1.9226   -0.3455 H       1  UNL1        0.0278
     30 H          -2.3005    2.5406    0.9134 H       1  UNL1        0.0624
     31 H          -4.3758    3.6336    1.5666 H       1  UNL1        0.0618
     32 H          -6.5590    2.5570    1.0834 H       1  UNL1        0.0618
     33 H          -6.5715    0.4241   -0.0405 H       1  UNL1        0.0620
     34 H           0.9633   -4.0298   -2.6780 H       1  UNL1        0.0860
     35 H           1.9162    1.4724   -0.4735 H       1  UNL1        0.1478
     36 H           2.1198   -0.7515    1.4476 H       1  UNL1        0.0513
     37 H           2.7393   -1.3946   -0.0694 H       1  UNL1        0.0513
     38 H           4.8565   -0.4755   -1.0274 H       1  UNL1        0.1393
     39 H           7.4296    1.5438    1.5998 H       1  UNL1        0.1389
     40 H           5.6082    1.7721    3.1890 H       1  UNL1        0.0677
     41 H           3.3709    0.8917    2.7282 H       1  UNL1        0.0625
     42 H          -0.6066    1.5635    0.3991 H       1  UNL1        0.0673
@<TRIPOS>UNITY_ATOM_ATTR
21 1
charge 1
22 1
charge -1
@<TRIPOS>BOND
     1     1     2    1
     2     2     3   ar
     3     3     4   ar
     4     4     5   ar
     5     5     6   ar
     6     6     7   ar
     7     3     8    1
     8     8     9   ar
     9     9    10   ar
    10    10    11   ar
    11    11    12    1
    12    11    13   ar
    13    13    14   ar
    14    14    15   ar
    15    15    16   ar
    16    16    17    1
    17    17    18    1
    18    18    19    1
    19    19    20   ar
    20    20    21   ar
    21    21    22    1
    22    21    23   ar
    23    23    24   ar
    24    24    25   ar
    25    16    26   ar
    26     7     2   ar
    27    26     8   ar
    28    15    10   ar
    29    25    19   ar
    30     1    27    1
    31     1    28    1
    32     1    29    1
    33     4    30    1
    34     5    31    1
    35     6    32    1
    36     7    33    1
    37    13    34    1
    38    17    35    1
    39    18    36    1
    40    18    37    1
    41    20    38    1
    42    23    39    1
    43    24    40    1
    44    25    41    1
    45    26    42    1
