@<TRIPOS>MOLECULE
*****
 53 54 0 0 0
SMALL
GASTEIGER

@<TRIPOS>ATOM
      1 C          -3.7957    0.2718    1.7906 C.3     1  UNL1        0.0000
      2 C          -4.6484   -0.6498    0.9927 C.3     1  UNL1        0.0000
      3 C          -5.5227   -1.4279    1.9722 C.3     1  UNL1        0.0000
      4 C          -3.9267   -1.6066    0.1283 C.3     1  UNL1        0.0000
      5 C          -3.0528   -1.0600   -0.9418 C.3     1  UNL1        0.0000
      6 N          -1.9692   -0.2240   -0.5208 N.am    1  UNL1        0.0000
      7 C          -0.6352   -0.7045   -0.6797 C.2     1  UNL1        0.0000
      8 O          -0.4375   -1.8386   -1.1794 O.2     1  UNL1        0.0000
      9 C           0.5447    0.0973   -0.2704 C.3     1  UNL1        0.0000
     10 C           0.4754    1.3976   -1.0380 C.3     1  UNL1        0.0000
     11 C           1.5775    2.3100   -0.7460 C.ar    1  UNL1        0.0000
     12 C           2.7319    2.2494   -1.4934 C.ar    1  UNL1        0.0000
     13 C           3.8063    3.1110   -1.2377 C.ar    1  UNL1        0.0000
     14 C           3.7139    4.0292   -0.2315 C.ar    1  UNL1        0.0000
     15 C           2.5809    4.1091    0.5231 C.ar    1  UNL1        0.0000
     16 C           1.5160    3.2470    0.2613 C.ar    1  UNL1        0.0000
     17 N           1.7325   -0.6603   -0.5557 N.am    1  UNL1        0.0000
     18 C           2.6398   -1.0059    0.4803 C.2     1  UNL1        0.0000
     19 O           2.4116   -0.6509    1.6617 O.2     1  UNL1        0.0000
     20 C           3.8633   -1.7791    0.2245 C.ar    1  UNL1        0.0000
     21 C           4.7343   -2.1117    1.2139 C.ar    1  UNL1        0.0000
     22 N           5.8398   -2.8162    0.9514 N.ar    1  UNL1        0.0000
     23 C           6.1142   -3.2103   -0.2933 C.ar    1  UNL1        0.0000
     24 C           5.2397   -2.8811   -1.3127 C.ar    1  UNL1        0.0000
     25 N           4.1286   -2.1708   -1.0362 N.ar    1  UNL1        0.0000
     26 B          -3.9051   -0.2286   -2.0223 B       1  UNL1        0.0000
     27 O          -3.5411   -0.2953   -3.4458 O.3     1  UNL1        0.0000
     28 O          -4.4654    1.0653   -1.5744 O.3     1  UNL1        0.0000
     29 H          -3.7963    1.2849    1.3528 H       1  UNL1        0.0000
     30 H          -2.7819   -0.1464    1.9334 H       1  UNL1        0.0000
     31 H          -4.1971    0.3930    2.8365 H       1  UNL1        0.0000
     32 H          -5.3624   -0.0647    0.3320 H       1  UNL1        0.0000
     33 H          -4.9856   -1.4986    2.9350 H       1  UNL1        0.0000
     34 H          -6.4699   -0.8737    2.1230 H       1  UNL1        0.0000
     35 H          -5.6867   -2.4599    1.5758 H       1  UNL1        0.0000
     36 H          -4.6735   -2.2972   -0.3750 H       1  UNL1        0.0000
     37 H          -3.3043   -2.3208    0.7487 H       1  UNL1        0.0000
     38 H          -2.6004   -1.9297   -1.5228 H       1  UNL1        0.0000
     39 H          -2.0675    0.7232   -0.1171 H       1  UNL1        0.0000
     40 H           0.5128    0.3210    0.8321 H       1  UNL1        0.0000
     41 H           0.4347    1.1193   -2.1287 H       1  UNL1        0.0000
     42 H          -0.5185    1.8437   -0.8219 H       1  UNL1        0.0000
     43 H           2.8696    1.5471   -2.3028 H       1  UNL1        0.0000
     44 H           4.7007    3.0531   -1.8281 H       1  UNL1        0.0000
     45 H           4.5608    4.6928   -0.0461 H       1  UNL1        0.0000
     46 H           2.5419    4.8510    1.3150 H       1  UNL1        0.0000
     47 H           0.6351    3.3344    0.8742 H       1  UNL1        0.0000
     48 H           1.9562   -0.9722   -1.5196 H       1  UNL1        0.0000
     49 H           4.5118   -1.7910    2.2300 H       1  UNL1        0.0000
     50 H           7.0007   -3.7830   -0.5457 H       1  UNL1        0.0000
     51 H           5.4464   -3.1922   -2.3264 H       1  UNL1        0.0000
     52 H          -2.5571   -0.2155   -3.5514 H       1  UNL1        0.0000
     53 H          -3.9200    1.8153   -1.9449 H       1  UNL1        0.0000
@<TRIPOS>BOND
     1     1     2    1
     2     2     3    1
     3     2     4    1
     4     4     5    1
     5     5     6    1
     6     6     7   am
     7     7     8    2
     8     7     9    1
     9     9    10    1
    10    10    11    1
    11    11    12   ar
    12    12    13   ar
    13    13    14   ar
    14    14    15   ar
    15    15    16   ar
    16     9    17    1
    17    17    18   am
    18    18    19    2
    19    18    20    1
    20    20    21   ar
    21    21    22   ar
    22    22    23   ar
    23    23    24   ar
    24    24    25   ar
    25     5    26    1
    26    26    27    1
    27    26    28    1
    28    16    11   ar
    29    25    20   ar
    30     1    29    1
    31     1    30    1
    32     1    31    1
    33     2    32    1
    34     3    33    1
    35     3    34    1
    36     3    35    1
    37     4    36    1
    38     4    37    1
    39     5    38    1
    40     6    39    1
    41     9    40    1
    42    10    41    1
    43    10    42    1
    44    12    43    1
    45    13    44    1
    46    14    45    1
    47    15    46    1
    48    16    47    1
    49    17    48    1
    50    21    49    1
    51    23    50    1
    52    24    51    1
    53    27    52    1
    54    28    53    1
