
     RDKit          3D

 53 54  0  0  0  0  0  0  0  0999 V2000
   -3.7957    0.2718    1.7906 C   0  0  0  0  0  0  0  0  0  0  0  0
   -4.6484   -0.6498    0.9927 C   0  0  0  0  0  0  0  0  0  0  0  0
   -5.5227   -1.4279    1.9722 C   0  0  0  0  0  0  0  0  0  0  0  0
   -3.9267   -1.6066    0.1283 C   0  0  0  0  0  0  0  0  0  0  0  0
   -3.0528   -1.0600   -0.9418 C   0  0  2  0  0  0  0  0  0  0  0  0
   -1.9692   -0.2240   -0.5208 N   0  0  0  0  0  0  0  0  0  0  0  0
   -0.6352   -0.7045   -0.6797 C   0  0  0  0  0  0  0  0  0  0  0  0
   -0.4375   -1.8386   -1.1794 O   0  0  0  0  0  0  0  0  0  0  0  0
    0.5447    0.0973   -0.2704 C   0  0  2  0  0  0  0  0  0  0  0  0
    0.4754    1.3976   -1.0380 C   0  0  0  0  0  0  0  0  0  0  0  0
    1.5775    2.3100   -0.7460 C   0  0  0  0  0  0  0  0  0  0  0  0
    2.7319    2.2494   -1.4934 C   0  0  0  0  0  0  0  0  0  0  0  0
    3.8063    3.1110   -1.2377 C   0  0  0  0  0  0  0  0  0  0  0  0
    3.7139    4.0292   -0.2315 C   0  0  0  0  0  0  0  0  0  0  0  0
    2.5809    4.1091    0.5231 C   0  0  0  0  0  0  0  0  0  0  0  0
    1.5160    3.2470    0.2613 C   0  0  0  0  0  0  0  0  0  0  0  0
    1.7325   -0.6603   -0.5557 N   0  0  0  0  0  0  0  0  0  0  0  0
    2.6398   -1.0059    0.4803 C   0  0  0  0  0  0  0  0  0  0  0  0
    2.4116   -0.6509    1.6617 O   0  0  0  0  0  0  0  0  0  0  0  0
    3.8633   -1.7791    0.2245 C   0  0  0  0  0  0  0  0  0  0  0  0
    4.7343   -2.1117    1.2139 C   0  0  0  0  0  0  0  0  0  0  0  0
    5.8398   -2.8162    0.9514 N   0  0  0  0  0  0  0  0  0  0  0  0
    6.1142   -3.2103   -0.2933 C   0  0  0  0  0  0  0  0  0  0  0  0
    5.2397   -2.8811   -1.3127 C   0  0  0  0  0  0  0  0  0  0  0  0
    4.1286   -2.1708   -1.0362 N   0  0  0  0  0  0  0  0  0  0  0  0
   -3.9051   -0.2286   -2.0223 B   0  0  0  0  0  0  0  0  0  0  0  0
   -3.5411   -0.2953   -3.4458 O   0  0  0  0  0  0  0  0  0  0  0  0
   -4.4654    1.0653   -1.5744 O   0  0  0  0  0  0  0  0  0  0  0  0
   -3.7963    1.2849    1.3528 H   0  0  0  0  0  0  0  0  0  0  0  0
   -2.7819   -0.1464    1.9334 H   0  0  0  0  0  0  0  0  0  0  0  0
   -4.1971    0.3930    2.8365 H   0  0  0  0  0  0  0  0  0  0  0  0
   -5.3624   -0.0647    0.3320 H   0  0  0  0  0  0  0  0  0  0  0  0
   -4.9856   -1.4986    2.9350 H   0  0  0  0  0  0  0  0  0  0  0  0
   -6.4699   -0.8737    2.1230 H   0  0  0  0  0  0  0  0  0  0  0  0
   -5.6867   -2.4599    1.5758 H   0  0  0  0  0  0  0  0  0  0  0  0
   -4.6735   -2.2972   -0.3750 H   0  0  0  0  0  0  0  0  0  0  0  0
   -3.3043   -2.3208    0.7487 H   0  0  0  0  0  0  0  0  0  0  0  0
   -2.6004   -1.9297   -1.5228 H   0  0  0  0  0  0  0  0  0  0  0  0
   -2.0675    0.7232   -0.1171 H   0  0  0  0  0  0  0  0  0  0  0  0
    0.5128    0.3210    0.8321 H   0  0  0  0  0  0  0  0  0  0  0  0
    0.4347    1.1193   -2.1287 H   0  0  0  0  0  0  0  0  0  0  0  0
   -0.5185    1.8437   -0.8219 H   0  0  0  0  0  0  0  0  0  0  0  0
    2.8696    1.5471   -2.3028 H   0  0  0  0  0  0  0  0  0  0  0  0
    4.7007    3.0531   -1.8281 H   0  0  0  0  0  0  0  0  0  0  0  0
    4.5608    4.6928   -0.0461 H   0  0  0  0  0  0  0  0  0  0  0  0
    2.5419    4.8510    1.3150 H   0  0  0  0  0  0  0  0  0  0  0  0
    0.6351    3.3344    0.8742 H   0  0  0  0  0  0  0  0  0  0  0  0
    1.9562   -0.9722   -1.5196 H   0  0  0  0  0  0  0  0  0  0  0  0
    4.5118   -1.7910    2.2300 H   0  0  0  0  0  0  0  0  0  0  0  0
    7.0007   -3.7830   -0.5457 H   0  0  0  0  0  0  0  0  0  0  0  0
    5.4464   -3.1922   -2.3264 H   0  0  0  0  0  0  0  0  0  0  0  0
   -2.5571   -0.2155   -3.5514 H   0  0  0  0  0  0  0  0  0  0  0  0
   -3.9200    1.8153   -1.9449 H   0  0  0  0  0  0  0  0  0  0  0  0
  1  2  1  0
  2  3  1  0
  2  4  1  0
  4  5  1  0
  5  6  1  0
  6  7  1  0
  7  8  2  0
  7  9  1  0
  9 10  1  0
 10 11  1  0
 11 12  2  0
 12 13  1  0
 13 14  2  0
 14 15  1  0
 15 16  2  0
  9 17  1  0
 17 18  1  0
 18 19  2  0
 18 20  1  0
 20 21  2  0
 21 22  1  0
 22 23  2  0
 23 24  1  0
 24 25  2  0
  5 26  1  0
 26 27  1  0
 26 28  1  0
 16 11  1  0
 25 20  1  0
  1 29  1  0
  1 30  1  0
  1 31  1  0
  2 32  1  0
  3 33  1  0
  3 34  1  0
  3 35  1  0
  4 36  1  0
  4 37  1  0
  5 38  1  6
  6 39  1  0
  9 40  1  1
 10 41  1  0
 10 42  1  0
 12 43  1  0
 13 44  1  0
 14 45  1  0
 15 46  1  0
 16 47  1  0
 17 48  1  0
 21 49  1  0
 23 50  1  0
 24 51  1  0
 27 52  1  0
 28 53  1  0
M  END
$$$$
