@<TRIPOS>MOLECULE
*****
 56 59 0 0 0
SMALL
GASTEIGER

@<TRIPOS>ATOM
      1 C          -0.9273   -0.9216    0.5525 C.3     1  UNL1       -0.0292
      2 C          -1.8099   -2.0766    0.7089 C.3     1  UNL1       -0.0463
      3 C          -3.1600   -1.3995    0.9828 C.3     1  UNL1       -0.0162
      4 C          -2.9575    0.0815    0.6718 C.3     1  UNL1        0.1315
      5 O          -2.5779    0.6961    1.8690 O.3     1  UNL1       -0.3804
      6 C          -4.1696    0.6543    0.0772 C.2     1  UNL1        0.1902
      7 O          -4.9607    0.5869   -0.8727 O.2     1  UNL1       -0.2919
      8 C          -5.0094    1.7564    0.5630 C.3     1  UNL1        0.1052
      9 O          -6.0519    1.9438   -0.3371 O.3     1  UNL1       -0.3874
     10 C          -1.7841    0.0092   -0.2826 C.3     1  UNL1        0.0091
     11 C          -2.2808   -0.5817   -1.5558 C.3     1  UNL1       -0.0562
     12 C          -1.1122    1.3460   -0.4629 C.3     1  UNL1       -0.0179
     13 C           0.2702    1.1494   -1.0511 C.3     1  UNL1        0.0597
     14 O           0.2342    0.8332   -2.3605 O.3     1  UNL1       -0.3915
     15 C           1.0484    0.2591   -0.1272 C.3     1  UNL1       -0.0028
     16 C           0.3795   -1.0844   -0.1171 C.3     1  UNL1       -0.0314
     17 C           1.2385   -2.1852    0.4755 C.3     1  UNL1       -0.0459
     18 C           2.4098   -2.2703   -0.5125 C.3     1  UNL1       -0.0305
     19 C           3.1887   -1.0174   -0.2455 C.2     1  UNL1       -0.0600
     20 C           4.4736   -1.1213    0.0291 C.2     1  UNL1       -0.0194
     21 C           5.2970    0.0253    0.2978 C.2     1  UNL1        0.1561
     22 O           6.5553   -0.0274    0.3860 O.2     1  UNL1       -0.2927
     23 C           4.6522    1.3389    0.4823 C.3     1  UNL1        0.0107
     24 C           3.2025    1.1283    0.7636 C.3     1  UNL1       -0.0366
     25 C           2.5128    0.2826   -0.2948 C.3     1  UNL1       -0.0049
     26 C           2.9573    0.9401   -1.6074 C.3     1  UNL1       -0.0555
     27 H          -0.7898   -0.4327    1.5398 H       1  UNL1        0.0310
     28 H          -1.5244   -2.6475    1.6394 H       1  UNL1        0.0269
     29 H          -1.8527   -2.8144   -0.0888 H       1  UNL1        0.0269
     30 H          -3.4443   -1.5360    2.0567 H       1  UNL1        0.0297
     31 H          -3.9165   -1.8352    0.3250 H       1  UNL1        0.0297
     32 H          -2.6911    1.6677    1.8231 H       1  UNL1        0.2108
     33 H          -4.3783    2.6760    0.6064 H       1  UNL1        0.0637
     34 H          -5.4501    1.5386    1.5772 H       1  UNL1        0.0637
     35 H          -6.6678    2.6311    0.0229 H       1  UNL1        0.2100
     36 H          -3.3316   -0.9870   -1.4670 H       1  UNL1        0.0236
     37 H          -2.3822    0.2004   -2.3541 H       1  UNL1        0.0236
     38 H          -1.6983   -1.3924   -1.9860 H       1  UNL1        0.0236
     39 H          -1.0135    1.8204    0.5217 H       1  UNL1        0.0297
     40 H          -1.6974    1.9236   -1.1944 H       1  UNL1        0.0297
     41 H           0.7566    2.1661   -0.9675 H       1  UNL1        0.0596
     42 H           0.2005   -0.0835   -2.6502 H       1  UNL1        0.2098
     43 H           0.8212    0.7176    0.8852 H       1  UNL1        0.0337
     44 H           0.1634   -1.4715   -1.1558 H       1  UNL1        0.0307
     45 H           0.6703   -3.1143    0.3580 H       1  UNL1        0.0271
     46 H           1.5979   -1.9664    1.4895 H       1  UNL1        0.0271
     47 H           3.0036   -3.1693   -0.3417 H       1  UNL1        0.0310
     48 H           2.0113   -2.1726   -1.5434 H       1  UNL1        0.0310
     49 H           4.9263   -2.1162    0.0527 H       1  UNL1        0.0652
     50 H           5.0624    1.8418    1.4068 H       1  UNL1        0.0345
     51 H           4.8477    2.0668   -0.3253 H       1  UNL1        0.0345
     52 H           2.7018    2.1364    0.6909 H       1  UNL1        0.0278
     53 H           3.0472    0.7506    1.7879 H       1  UNL1        0.0278
     54 H           2.8143    2.0286   -1.5544 H       1  UNL1        0.0238
     55 H           2.5357    0.4491   -2.4989 H       1  UNL1        0.0238
     56 H           4.0588    0.7786   -1.6961 H       1  UNL1        0.0238
@<TRIPOS>BOND
     1     1     2    1
     2     2     3    1
     3     3     4    1
     4     4     5    1
     5     4     6    1
     6     6     7    2
     7     6     8    1
     8     8     9    1
     9     4    10    1
    10    10    11    1
    11    10    12    1
    12    12    13    1
    13    13    14    1
    14    13    15    1
    15    15    16    1
    16    16    17    1
    17    17    18    1
    18    18    19    1
    19    19    20    2
    20    20    21    1
    21    21    22    2
    22    21    23    1
    23    23    24    1
    24    24    25    1
    25    25    26    1
    26    10     1    1
    27    25    15    1
    28    16     1    1
    29    25    19    1
    30     1    27    1
    31     2    28    1
    32     2    29    1
    33     3    30    1
    34     3    31    1
    35     5    32    1
    36     8    33    1
    37     8    34    1
    38     9    35    1
    39    11    36    1
    40    11    37    1
    41    11    38    1
    42    12    39    1
    43    12    40    1
    44    13    41    1
    45    14    42    1
    46    15    43    1
    47    16    44    1
    48    17    45    1
    49    17    46    1
    50    18    47    1
    51    18    48    1
    52    20    49    1
    53    23    50    1
    54    23    51    1
    55    24    52    1
    56    24    53    1
    57    26    54    1
    58    26    55    1
    59    26    56    1
