@<TRIPOS>MOLECULE
*****
 67 70 0 0 0
SMALL
GASTEIGER

@<TRIPOS>ATOM
      1 C          -2.4572   -4.3776    2.0264 C.3     1  UNL1       -0.0650
      2 C          -2.7557   -3.2374    1.0731 C.3     1  UNL1       -0.0518
      3 C          -1.6006   -2.3001    1.1078 C.3     1  UNL1       -0.0245
      4 C          -1.7422   -1.1364    0.2211 C.ar    1  UNL1       -0.0052
      5 C          -2.8651   -0.8927   -0.5015 C.ar    1  UNL1       -0.0479
      6 C          -2.9769    0.1928   -1.3349 C.ar    1  UNL1       -0.0246
      7 C          -4.1909    0.4354   -2.0638 C.2     1  UNL1       -0.0553
      8 C          -5.4194    0.3798   -1.6220 C.2     1  UNL1       -0.0690
      9 C          -5.6490    0.0293   -0.1930 C.3     1  UNL1       -0.0314
     10 C          -6.8078    0.8354    0.3737 C.3     1  UNL1       -0.0493
     11 C          -7.9963    0.7822   -0.5797 C.3     1  UNL1       -0.0525
     12 C          -7.5809    1.5108   -1.8347 C.3     1  UNL1       -0.0493
     13 C          -6.5422    0.6667   -2.5432 C.3     1  UNL1       -0.0314
     14 C          -1.8950    1.0485   -1.4239 C.ar    1  UNL1       -0.0511
     15 C          -0.7455    0.8437   -0.7163 C.ar    1  UNL1       -0.0191
     16 C          -0.6137   -0.2721    0.1518 C.ar    1  UNL1        0.1237
     17 O           0.4335   -0.4988    0.8337 O.3     1  UNL1       -0.4916
     18 C           1.5190   -0.7325    1.5396 C.3     1  UNL1        0.0927
     19 C           1.8893    0.3886    2.5121 C.3     1  UNL1        0.0157
     20 C           2.1949    1.6333    1.7124 C.3     1  UNL1        0.0927
     21 O           3.2762    1.5054    0.8551 O.3     1  UNL1       -0.4918
     22 C           4.5996    1.3089    1.1441 C.ar    1  UNL1        0.1211
     23 C           5.0783    1.2503    2.4298 C.ar    1  UNL1       -0.0199
     24 C           6.4434    1.0382    2.6639 C.ar    1  UNL1       -0.0577
     25 C           7.2687    0.8949    1.5777 C.ar    1  UNL1       -0.0531
     26 C           6.8255    0.9484    0.2640 C.ar    1  UNL1       -0.0026
     27 C           7.7842    0.7528   -0.7960 C.ar    1  UNL1        0.0838
     28 S           9.5312    0.3538   -0.5033 S.2     1  UNL1       -0.0230
     29 C           9.9581    0.2873   -2.2930 C.ar    1  UNL1        0.2913
     30 O          11.1083    0.0339   -2.7298 O.2     1  UNL1       -0.2596
     31 N           8.7959    0.5605   -2.8694 N.ar    1  UNL1       -0.2870
     32 C           7.7291    0.7891   -2.1497 C.ar    1  UNL1        0.2081
     33 O           6.4679    1.0861   -2.7790 O.3     1  UNL1       -0.4928
     34 C           5.4848    1.1572    0.0907 C.ar    1  UNL1       -0.0116
     35 H          -3.3249   -4.5665    2.7163 H       1  UNL1        0.0230
     36 H          -2.2704   -5.3419    1.5186 H       1  UNL1        0.0230
     37 H          -1.6178   -4.1228    2.7333 H       1  UNL1        0.0230
     38 H          -2.7923   -3.6856    0.0557 H       1  UNL1        0.0266
     39 H          -3.7118   -2.7936    1.3923 H       1  UNL1        0.0266
     40 H          -1.4670   -1.9377    2.1620 H       1  UNL1        0.0314
     41 H          -0.6767   -2.8304    0.8539 H       1  UNL1        0.0314
     42 H          -3.6726   -1.6353   -0.3725 H       1  UNL1        0.0627
     43 H          -4.0562    0.6981   -3.1327 H       1  UNL1        0.0623
     44 H          -5.9352   -1.0197   -0.0978 H       1  UNL1        0.0310
     45 H          -4.7638    0.3436    0.3863 H       1  UNL1        0.0310
     46 H          -6.4857    1.8641    0.5407 H       1  UNL1        0.0268
     47 H          -7.1291    0.3689    1.3314 H       1  UNL1        0.0268
     48 H          -8.8503    1.2884   -0.0799 H       1  UNL1        0.0265
     49 H          -8.2008   -0.2639   -0.8191 H       1  UNL1        0.0265
     50 H          -8.4751    1.6548   -2.4459 H       1  UNL1        0.0268
     51 H          -7.0733    2.4586   -1.5576 H       1  UNL1        0.0268
     52 H          -6.1159    1.2218   -3.4244 H       1  UNL1        0.0310
     53 H          -6.9710   -0.2554   -2.9422 H       1  UNL1        0.0310
     54 H          -1.9581    1.9226   -2.0843 H       1  UNL1        0.0625
     55 H           0.0689    1.5323   -0.8188 H       1  UNL1        0.0654
     56 H           1.5494   -1.6828    2.1273 H       1  UNL1        0.0697
     57 H           2.4277   -0.7824    0.8501 H       1  UNL1        0.0697
     58 H           2.7345    0.0094    3.0830 H       1  UNL1        0.0331
     59 H           1.0349    0.6156    3.1959 H       1  UNL1        0.0331
     60 H           1.3126    1.9774    1.1453 H       1  UNL1        0.0697
     61 H           2.4445    2.4853    2.4131 H       1  UNL1        0.0697
     62 H           4.4932    1.3766    3.3103 H       1  UNL1        0.0654
     63 H           6.8326    0.9908    3.6767 H       1  UNL1        0.0619
     64 H           8.3400    0.7299    1.7549 H       1  UNL1        0.0624
     65 H           8.7762    0.5879   -3.9780 H       1  UNL1        0.1723
     66 H           5.8641    0.3239   -3.0110 H       1  UNL1        0.2937
     67 H           5.1199    1.2022   -0.9252 H       1  UNL1        0.0660
@<TRIPOS>BOND
     1     1     2    1
     2     2     3    1
     3     3     4    1
     4     4     5   ar
     5     5     6   ar
     6     6     7    1
     7     7     8    2
     8     8     9    1
     9     9    10    1
    10    10    11    1
    11    11    12    1
    12    12    13    1
    13     6    14   ar
    14    14    15   ar
    15    15    16   ar
    16    16    17    1
    17    17    18    1
    18    18    19    1
    19    19    20    1
    20    20    21    1
    21    21    22    1
    22    22    23   ar
    23    23    24   ar
    24    24    25   ar
    25    25    26   ar
    26    26    27    1
    27    27    28   ar
    28    28    29   ar
    29    29    30    2
    30    29    31   ar
    31    31    32   ar
    32    32    33    1
    33    26    34   ar
    34    16     4   ar
    35    34    22   ar
    36    13     8    1
    37    32    27   ar
    38     1    35    1
    39     1    36    1
    40     1    37    1
    41     2    38    1
    42     2    39    1
    43     3    40    1
    44     3    41    1
    45     5    42    1
    46     7    43    1
    47     9    44    1
    48     9    45    1
    49    10    46    1
    50    10    47    1
    51    11    48    1
    52    11    49    1
    53    12    50    1
    54    12    51    1
    55    13    52    1
    56    13    53    1
    57    14    54    1
    58    15    55    1
    59    18    56    1
    60    18    57    1
    61    19    58    1
    62    19    59    1
    63    20    60    1
    64    20    61    1
    65    23    62    1
    66    24    63    1
    67    25    64    1
    68    31    65    1
    69    33    66    1
    70    34    67    1
