
     RDKit          3D

 67 70  0  0  0  0  0  0  0  0999 V2000
   -2.4572   -4.3776    2.0264 C   0  0  0  0  0  0  0  0  0  0  0  0
   -2.7557   -3.2374    1.0731 C   0  0  0  0  0  0  0  0  0  0  0  0
   -1.6006   -2.3001    1.1078 C   0  0  0  0  0  0  0  0  0  0  0  0
   -1.7422   -1.1364    0.2211 C   0  0  0  0  0  0  0  0  0  0  0  0
   -2.8651   -0.8927   -0.5015 C   0  0  0  0  0  0  0  0  0  0  0  0
   -2.9769    0.1928   -1.3349 C   0  0  0  0  0  0  0  0  0  0  0  0
   -4.1909    0.4354   -2.0638 C   0  0  0  0  0  0  0  0  0  0  0  0
   -5.4194    0.3798   -1.6220 C   0  0  0  0  0  0  0  0  0  0  0  0
   -5.6490    0.0293   -0.1930 C   0  0  0  0  0  0  0  0  0  0  0  0
   -6.8078    0.8354    0.3737 C   0  0  0  0  0  0  0  0  0  0  0  0
   -7.9963    0.7822   -0.5797 C   0  0  0  0  0  0  0  0  0  0  0  0
   -7.5809    1.5108   -1.8347 C   0  0  0  0  0  0  0  0  0  0  0  0
   -6.5422    0.6667   -2.5432 C   0  0  0  0  0  0  0  0  0  0  0  0
   -1.8950    1.0485   -1.4239 C   0  0  0  0  0  0  0  0  0  0  0  0
   -0.7455    0.8437   -0.7163 C   0  0  0  0  0  0  0  0  0  0  0  0
   -0.6137   -0.2721    0.1518 C   0  0  0  0  0  0  0  0  0  0  0  0
    0.4335   -0.4988    0.8337 O   0  0  0  0  0  0  0  0  0  0  0  0
    1.5190   -0.7325    1.5396 C   0  0  0  0  0  0  0  0  0  0  0  0
    1.8893    0.3886    2.5121 C   0  0  0  0  0  0  0  0  0  0  0  0
    2.1949    1.6333    1.7124 C   0  0  0  0  0  0  0  0  0  0  0  0
    3.2762    1.5054    0.8551 O   0  0  0  0  0  0  0  0  0  0  0  0
    4.5996    1.3089    1.1441 C   0  0  0  0  0  0  0  0  0  0  0  0
    5.0783    1.2503    2.4298 C   0  0  0  0  0  0  0  0  0  0  0  0
    6.4434    1.0382    2.6639 C   0  0  0  0  0  0  0  0  0  0  0  0
    7.2687    0.8949    1.5777 C   0  0  0  0  0  0  0  0  0  0  0  0
    6.8255    0.9484    0.2640 C   0  0  0  0  0  0  0  0  0  0  0  0
    7.7842    0.7528   -0.7960 C   0  0  0  0  0  0  0  0  0  0  0  0
    9.5312    0.3538   -0.5033 S   0  0  0  0  0  0  0  0  0  0  0  0
    9.9581    0.2873   -2.2930 C   0  0  0  0  0  0  0  0  0  0  0  0
   11.1083    0.0339   -2.7298 O   0  0  0  0  0  0  0  0  0  0  0  0
    8.7959    0.5605   -2.8694 N   0  0  0  0  0  0  0  0  0  0  0  0
    7.7291    0.7891   -2.1497 C   0  0  0  0  0  0  0  0  0  0  0  0
    6.4679    1.0861   -2.7790 O   0  0  0  0  0  0  0  0  0  0  0  0
    5.4848    1.1572    0.0907 C   0  0  0  0  0  0  0  0  0  0  0  0
   -3.3249   -4.5665    2.7163 H   0  0  0  0  0  0  0  0  0  0  0  0
   -2.2704   -5.3419    1.5186 H   0  0  0  0  0  0  0  0  0  0  0  0
   -1.6178   -4.1228    2.7333 H   0  0  0  0  0  0  0  0  0  0  0  0
   -2.7923   -3.6856    0.0557 H   0  0  0  0  0  0  0  0  0  0  0  0
   -3.7118   -2.7936    1.3923 H   0  0  0  0  0  0  0  0  0  0  0  0
   -1.4670   -1.9377    2.1620 H   0  0  0  0  0  0  0  0  0  0  0  0
   -0.6767   -2.8304    0.8539 H   0  0  0  0  0  0  0  0  0  0  0  0
   -3.6726   -1.6353   -0.3725 H   0  0  0  0  0  0  0  0  0  0  0  0
   -4.0562    0.6981   -3.1327 H   0  0  0  0  0  0  0  0  0  0  0  0
   -5.9352   -1.0197   -0.0978 H   0  0  0  0  0  0  0  0  0  0  0  0
   -4.7638    0.3436    0.3863 H   0  0  0  0  0  0  0  0  0  0  0  0
   -6.4857    1.8641    0.5407 H   0  0  0  0  0  0  0  0  0  0  0  0
   -7.1291    0.3689    1.3314 H   0  0  0  0  0  0  0  0  0  0  0  0
   -8.8503    1.2884   -0.0799 H   0  0  0  0  0  0  0  0  0  0  0  0
   -8.2008   -0.2639   -0.8191 H   0  0  0  0  0  0  0  0  0  0  0  0
   -8.4751    1.6548   -2.4459 H   0  0  0  0  0  0  0  0  0  0  0  0
   -7.0733    2.4586   -1.5576 H   0  0  0  0  0  0  0  0  0  0  0  0
   -6.1159    1.2218   -3.4244 H   0  0  0  0  0  0  0  0  0  0  0  0
   -6.9710   -0.2554   -2.9422 H   0  0  0  0  0  0  0  0  0  0  0  0
   -1.9581    1.9226   -2.0843 H   0  0  0  0  0  0  0  0  0  0  0  0
    0.0689    1.5323   -0.8188 H   0  0  0  0  0  0  0  0  0  0  0  0
    1.5494   -1.6828    2.1273 H   0  0  0  0  0  0  0  0  0  0  0  0
    2.4277   -0.7824    0.8501 H   0  0  0  0  0  0  0  0  0  0  0  0
    2.7345    0.0094    3.0830 H   0  0  0  0  0  0  0  0  0  0  0  0
    1.0349    0.6156    3.1959 H   0  0  0  0  0  0  0  0  0  0  0  0
    1.3126    1.9774    1.1453 H   0  0  0  0  0  0  0  0  0  0  0  0
    2.4445    2.4853    2.4131 H   0  0  0  0  0  0  0  0  0  0  0  0
    4.4932    1.3766    3.3103 H   0  0  0  0  0  0  0  0  0  0  0  0
    6.8326    0.9908    3.6767 H   0  0  0  0  0  0  0  0  0  0  0  0
    8.3400    0.7299    1.7549 H   0  0  0  0  0  0  0  0  0  0  0  0
    8.7762    0.5879   -3.9780 H   0  0  0  0  0  0  0  0  0  0  0  0
    5.8641    0.3239   -3.0110 H   0  0  0  0  0  0  0  0  0  0  0  0
    5.1199    1.2022   -0.9252 H   0  0  0  0  0  0  0  0  0  0  0  0
  1  2  1  0
  2  3  1  0
  3  4  1  0
  4  5  2  0
  5  6  1  0
  6  7  1  0
  7  8  2  3
  8  9  1  0
  9 10  1  0
 10 11  1  0
 11 12  1  0
 12 13  1  0
  6 14  2  0
 14 15  1  0
 15 16  2  0
 16 17  1  0
 17 18  1  0
 18 19  1  0
 19 20  1  0
 20 21  1  0
 21 22  1  0
 22 23  2  0
 23 24  1  0
 24 25  2  0
 25 26  1  0
 26 27  1  0
 27 28  1  0
 28 29  1  0
 29 30  2  0
 29 31  1  0
 31 32  1  0
 32 33  1  0
 26 34  2  0
 16  4  1  0
 34 22  1  0
 13  8  1  0
 32 27  2  0
  1 35  1  0
  1 36  1  0
  1 37  1  0
  2 38  1  0
  2 39  1  0
  3 40  1  0
  3 41  1  0
  5 42  1  0
  7 43  1  0
  9 44  1  0
  9 45  1  0
 10 46  1  0
 10 47  1  0
 11 48  1  0
 11 49  1  0
 12 50  1  0
 12 51  1  0
 13 52  1  0
 13 53  1  0
 14 54  1  0
 15 55  1  0
 18 56  1  0
 18 57  1  0
 19 58  1  0
 19 59  1  0
 20 60  1  0
 20 61  1  0
 23 62  1  0
 24 63  1  0
 25 64  1  0
 31 65  1  0
 33 66  1  0
 34 67  1  0
M  END
$$$$
