
     RDKit          3D

 51 54  0  0  0  0  0  0  0  0999 V2000
   -4.9472   -0.3727   -1.7141 C   0  0  0  0  0  0  0  0  0  0  0  0
   -5.2544    0.2529   -0.4141 C   0  0  0  0  0  0  0  0  0  0  0  0
   -6.5269    0.6865   -0.0305 C   0  0  0  0  0  0  0  0  0  0  0  0
   -6.7095    1.2621    1.2145 C   0  0  0  0  0  0  0  0  0  0  0  0
   -5.6699    1.4256    2.1012 C   0  0  0  0  0  0  0  0  0  0  0  0
   -4.4077    0.9816    1.6888 C   0  0  0  0  0  0  0  0  0  0  0  0
   -4.1931    0.4003    0.4462 C   0  0  0  0  0  0  0  0  0  0  0  0
   -2.8686    0.0378    0.2527 N   0  0  0  0  0  0  0  0  0  0  0  0
   -2.0512    0.5857   -0.8405 C   0  0  0  0  0  0  0  0  0  0  0  0
   -0.8394    1.1862   -0.1447 C   0  0  0  0  0  0  0  0  0  0  0  0
    0.0386    0.0738    0.1615 N   0  0  0  0  0  0  0  0  0  0  0  0
    0.8665   -0.1009   -1.0197 C   0  0  0  0  0  0  0  0  0  0  0  0
    1.8459   -1.2444   -0.8411 C   0  0  0  0  0  0  0  0  0  0  0  0
    2.7349   -0.9974    0.2958 C   0  0  0  0  0  0  0  0  0  0  0  0
    2.5409   -1.3470    1.5619 N   0  0  0  0  0  0  0  0  0  0  0  0
    3.5691   -0.9502    2.3078 N   0  0  0  0  0  0  0  0  0  0  0  0
    4.4482   -0.3238    1.4753 C   0  0  0  0  0  0  0  0  0  0  0  0
    5.7603    0.3124    1.7626 C   0  0  0  0  0  0  0  0  0  0  0  0
    6.7220   -0.0606    0.6736 C   0  0  0  0  0  0  0  0  0  0  0  0
    6.0972   -0.2697   -0.6695 C   0  0  0  0  0  0  0  0  0  0  0  0
    4.6950    0.2494   -0.7929 C   0  0  0  0  0  0  0  0  0  0  0  0
    3.9048   -0.3701    0.2444 N   0  0  0  0  0  0  0  0  0  0  0  0
   -0.7398   -1.1018    0.3425 C   0  0  0  0  0  0  0  0  0  0  0  0
   -2.0889   -0.8747    1.0208 C   0  0  0  0  0  0  0  0  0  0  0  0
   -4.5532   -1.4041   -1.6210 H   0  0  0  0  0  0  0  0  0  0  0  0
   -4.4067    0.2683   -2.4281 H   0  0  0  0  0  0  0  0  0  0  0  0
   -5.9530   -0.5167   -2.2152 H   0  0  0  0  0  0  0  0  0  0  0  0
   -7.3160    0.5427   -0.7494 H   0  0  0  0  0  0  0  0  0  0  0  0
   -7.7208    1.5872    1.4740 H   0  0  0  0  0  0  0  0  0  0  0  0
   -5.8810    1.8752    3.0403 H   0  0  0  0  0  0  0  0  0  0  0  0
   -3.6400    1.1525    2.4598 H   0  0  0  0  0  0  0  0  0  0  0  0
   -2.5301    1.4087   -1.3703 H   0  0  0  0  0  0  0  0  0  0  0  0
   -1.7908   -0.1808   -1.5827 H   0  0  0  0  0  0  0  0  0  0  0  0
   -0.3354    1.9207   -0.8351 H   0  0  0  0  0  0  0  0  0  0  0  0
   -1.1913    1.7443    0.7330 H   0  0  0  0  0  0  0  0  0  0  0  0
    1.4279    0.8122   -1.2555 H   0  0  0  0  0  0  0  0  0  0  0  0
    0.2342   -0.3827   -1.9094 H   0  0  0  0  0  0  0  0  0  0  0  0
    2.4101   -1.4478   -1.7727 H   0  0  0  0  0  0  0  0  0  0  0  0
    1.2832   -2.1904   -0.6409 H   0  0  0  0  0  0  0  0  0  0  0  0
    6.1511   -0.0755    2.7211 H   0  0  0  0  0  0  0  0  0  0  0  0
    5.6226    1.4091    1.7772 H   0  0  0  0  0  0  0  0  0  0  0  0
    7.2420   -1.0071    0.9806 H   0  0  0  0  0  0  0  0  0  0  0  0
    7.5594    0.6928    0.6324 H   0  0  0  0  0  0  0  0  0  0  0  0
    6.0592   -1.3497   -0.9690 H   0  0  0  0  0  0  0  0  0  0  0  0
    6.7770    0.1939   -1.4396 H   0  0  0  0  0  0  0  0  0  0  0  0
    4.3321   -0.0105   -1.7975 H   0  0  0  0  0  0  0  0  0  0  0  0
    4.7396    1.3631   -0.6702 H   0  0  0  0  0  0  0  0  0  0  0  0
   -0.1913   -1.7741    1.0665 H   0  0  0  0  0  0  0  0  0  0  0  0
   -0.9025   -1.7108   -0.5632 H   0  0  0  0  0  0  0  0  0  0  0  0
   -1.8503   -0.4438    2.0006 H   0  0  0  0  0  0  0  0  0  0  0  0
   -2.5028   -1.9175    1.0649 H   0  0  0  0  0  0  0  0  0  0  0  0
  1  2  1  0
  2  3  2  0
  3  4  1  0
  4  5  2  0
  5  6  1  0
  6  7  2  0
  7  8  1  0
  8  9  1  0
  9 10  1  0
 10 11  1  0
 11 12  1  0
 12 13  1  0
 13 14  1  0
 14 15  2  0
 15 16  1  0
 16 17  2  0
 17 18  1  0
 18 19  1  0
 19 20  1  0
 20 21  1  0
 21 22  1  0
 11 23  1  0
 23 24  1  0
  7  2  1  0
 24  8  1  0
 22 14  1  0
 22 17  1  0
  1 25  1  0
  1 26  1  0
  1 27  1  0
  3 28  1  0
  4 29  1  0
  5 30  1  0
  6 31  1  0
  9 32  1  0
  9 33  1  0
 10 34  1  0
 10 35  1  0
 12 36  1  0
 12 37  1  0
 13 38  1  0
 13 39  1  0
 18 40  1  0
 18 41  1  0
 19 42  1  0
 19 43  1  0
 20 44  1  0
 20 45  1  0
 21 46  1  0
 21 47  1  0
 23 48  1  0
 23 49  1  0
 24 50  1  0
 24 51  1  0
M  END
$$$$
