@<TRIPOS>MOLECULE
*****
 51 54 0 0 0
SMALL
GASTEIGER

@<TRIPOS>ATOM
      1 C          -4.9472   -0.3727   -1.7141 C.3     1  UNL1       -0.0380
      2 C          -5.2544    0.2529   -0.4141 C.ar    1  UNL1       -0.0294
      3 C          -6.5269    0.6865   -0.0305 C.ar    1  UNL1       -0.0571
      4 C          -6.7095    1.2621    1.2145 C.ar    1  UNL1       -0.0614
      5 C          -5.6699    1.4256    2.1012 C.ar    1  UNL1       -0.0600
      6 C          -4.4077    0.9816    1.6888 C.ar    1  UNL1       -0.0404
      7 C          -4.1931    0.4003    0.4462 C.ar    1  UNL1        0.0327
      8 N          -2.8686    0.0378    0.2527 N.pl3   1  UNL1       -0.3272
      9 C          -2.0512    0.5857   -0.8405 C.3     1  UNL1        0.0250
     10 C          -0.8394    1.1862   -0.1447 C.3     1  UNL1        0.0147
     11 N           0.0386    0.0738    0.1615 N.3     1  UNL1       -0.2990
     12 C           0.8665   -0.1009   -1.0197 C.3     1  UNL1        0.0059
     13 C           1.8459   -1.2444   -0.8411 C.3     1  UNL1        0.0202
     14 C           2.7349   -0.9974    0.2958 C.ar    1  UNL1        0.1347
     15 N           2.5409   -1.3470    1.5619 N.ar    1  UNL1       -0.1343
     16 N           3.5691   -0.9502    2.3078 N.ar    1  UNL1       -0.1344
     17 C           4.4482   -0.3238    1.4753 C.ar    1  UNL1        0.1335
     18 C           5.7603    0.3124    1.7626 C.3     1  UNL1        0.0075
     19 C           6.7220   -0.0606    0.6736 C.3     1  UNL1       -0.0446
     20 C           6.0972   -0.2697   -0.6695 C.3     1  UNL1       -0.0345
     21 C           4.6950    0.2494   -0.7929 C.3     1  UNL1        0.0261
     22 N           3.9048   -0.3701    0.2444 N.ar    1  UNL1       -0.3147
     23 C          -0.7398   -1.1018    0.3425 C.3     1  UNL1        0.0147
     24 C          -2.0889   -0.8747    1.0208 C.3     1  UNL1        0.0250
     25 H          -4.5532   -1.4041   -1.6210 H       1  UNL1        0.0278
     26 H          -4.4067    0.2683   -2.4281 H       1  UNL1        0.0278
     27 H          -5.9530   -0.5167   -2.2152 H       1  UNL1        0.0278
     28 H          -7.3160    0.5427   -0.7494 H       1  UNL1        0.0621
     29 H          -7.7208    1.5872    1.4740 H       1  UNL1        0.0618
     30 H          -5.8810    1.8752    3.0403 H       1  UNL1        0.0618
     31 H          -3.6400    1.1525    2.4598 H       1  UNL1        0.0636
     32 H          -2.5301    1.4087   -1.3703 H       1  UNL1        0.0476
     33 H          -1.7908   -0.1808   -1.5827 H       1  UNL1        0.0476
     34 H          -0.3354    1.9207   -0.8351 H       1  UNL1        0.0442
     35 H          -1.1913    1.7443    0.7330 H       1  UNL1        0.0442
     36 H           1.4279    0.8122   -1.2555 H       1  UNL1        0.0431
     37 H           0.2342   -0.3827   -1.9094 H       1  UNL1        0.0431
     38 H           2.4101   -1.4478   -1.7727 H       1  UNL1        0.0356
     39 H           1.2832   -2.1904   -0.6409 H       1  UNL1        0.0356
     40 H           6.1511   -0.0755    2.7211 H       1  UNL1        0.0344
     41 H           5.6226    1.4091    1.7772 H       1  UNL1        0.0344
     42 H           7.2420   -1.0071    0.9806 H       1  UNL1        0.0270
     43 H           7.5594    0.6928    0.6324 H       1  UNL1        0.0270
     44 H           6.0592   -1.3497   -0.9690 H       1  UNL1        0.0282
     45 H           6.7770    0.1939   -1.4396 H       1  UNL1        0.0282
     46 H           4.3321   -0.0105   -1.7975 H       1  UNL1        0.0493
     47 H           4.7396    1.3631   -0.6702 H       1  UNL1        0.0493
     48 H          -0.1913   -1.7741    1.0665 H       1  UNL1        0.0442
     49 H          -0.9025   -1.7108   -0.5632 H       1  UNL1        0.0442
     50 H          -1.8503   -0.4438    2.0006 H       1  UNL1        0.0476
     51 H          -2.5028   -1.9175    1.0649 H       1  UNL1        0.0476
@<TRIPOS>BOND
     1     1     2    1
     2     2     3   ar
     3     3     4   ar
     4     4     5   ar
     5     5     6   ar
     6     6     7   ar
     7     7     8    1
     8     8     9    1
     9     9    10    1
    10    10    11    1
    11    11    12    1
    12    12    13    1
    13    13    14    1
    14    14    15   ar
    15    15    16   ar
    16    16    17   ar
    17    17    18    1
    18    18    19    1
    19    19    20    1
    20    20    21    1
    21    21    22    1
    22    11    23    1
    23    23    24    1
    24     7     2   ar
    25    24     8    1
    26    22    14   ar
    27    22    17   ar
    28     1    25    1
    29     1    26    1
    30     1    27    1
    31     3    28    1
    32     4    29    1
    33     5    30    1
    34     6    31    1
    35     9    32    1
    36     9    33    1
    37    10    34    1
    38    10    35    1
    39    12    36    1
    40    12    37    1
    41    13    38    1
    42    13    39    1
    43    18    40    1
    44    18    41    1
    45    19    42    1
    46    19    43    1
    47    20    44    1
    48    20    45    1
    49    21    46    1
    50    21    47    1
    51    23    48    1
    52    23    49    1
    53    24    50    1
    54    24    51    1
