@<TRIPOS>MOLECULE
*****
 33 33 0 0 0
SMALL
GASTEIGER

@<TRIPOS>ATOM
      1 C           2.9329    1.4900   -0.6355 C.3     1  UNL1       -0.0624
      2 C           3.1250    0.2700    0.1940 C.3     1  UNL1       -0.0427
      3 C           4.5983   -0.1275    0.1125 C.3     1  UNL1       -0.0624
      4 C           2.3292   -0.9176   -0.2647 C.3     1  UNL1       -0.0253
      5 C           0.8732   -0.6866   -0.2614 C.ar    1  UNL1       -0.0471
      6 C           0.2130   -0.1869   -1.3597 C.ar    1  UNL1       -0.0583
      7 C          -1.1453    0.0400   -1.3885 C.ar    1  UNL1       -0.0575
      8 C          -1.9036   -0.2374   -0.2792 C.ar    1  UNL1       -0.0339
      9 C          -3.3783    0.0002   -0.2863 C.3     1  UNL1        0.0784
     10 C          -4.1584   -1.2747   -0.0791 C.3     1  UNL1       -0.0482
     11 C          -3.7615    1.0448    0.7048 C.2     1  UNL1        0.3119
     12 O          -4.5411    0.8440    1.6552 O.2     1  UNL1       -0.2503
     13 O          -3.2095    2.3071    0.5451 O.3     1  UNL1       -0.4802
     14 C          -1.2760   -0.7388    0.8381 C.ar    1  UNL1       -0.0575
     15 C           0.1047   -0.9623    0.8476 C.ar    1  UNL1       -0.0583
     16 H           3.0194    1.2607   -1.7159 H       1  UNL1        0.0232
     17 H           2.0137    2.0589   -0.3849 H       1  UNL1        0.0232
     18 H           3.7863    2.1918   -0.4109 H       1  UNL1        0.0232
     19 H           2.9136    0.4830    1.2571 H       1  UNL1        0.0299
     20 H           5.2709    0.7058    0.3139 H       1  UNL1        0.0232
     21 H           4.7805   -0.5350   -0.9206 H       1  UNL1        0.0232
     22 H           4.7309   -0.9777    0.8311 H       1  UNL1        0.0232
     23 H           2.6284   -1.2721   -1.2709 H       1  UNL1        0.0316
     24 H           2.6039   -1.7643    0.4304 H       1  UNL1        0.0316
     25 H           0.8103    0.0413   -2.2602 H       1  UNL1        0.0620
     26 H          -1.6130    0.4404   -2.2956 H       1  UNL1        0.0621
     27 H          -3.6514    0.4008   -1.2815 H       1  UNL1        0.0459
     28 H          -3.9844   -1.7197    0.9166 H       1  UNL1        0.0241
     29 H          -3.8303   -1.9911   -0.8553 H       1  UNL1        0.0241
     30 H          -5.2209   -1.0368   -0.2323 H       1  UNL1        0.0241
     31 H          -3.6907    3.1556    0.8539 H       1  UNL1        0.2951
     32 H          -1.8928   -0.9512    1.7036 H       1  UNL1        0.0621
     33 H           0.5226   -1.3549    1.7550 H       1  UNL1        0.0620
@<TRIPOS>BOND
     1     1     2    1
     2     2     3    1
     3     2     4    1
     4     4     5    1
     5     5     6   ar
     6     6     7   ar
     7     7     8   ar
     8     8     9    1
     9     9    10    1
    10     9    11    1
    11    11    12    2
    12    11    13    1
    13     8    14   ar
    14    14    15   ar
    15    15     5   ar
    16     1    16    1
    17     1    17    1
    18     1    18    1
    19     2    19    1
    20     3    20    1
    21     3    21    1
    22     3    22    1
    23     4    23    1
    24     4    24    1
    25     6    25    1
    26     7    26    1
    27     9    27    1
    28    10    28    1
    29    10    29    1
    30    10    30    1
    31    13    31    1
    32    14    32    1
    33    15    33    1
