@<TRIPOS>MOLECULE
*****
 48 51 0 0 0
SMALL
GASTEIGER

@<TRIPOS>ATOM
      1 N          -7.0306   -1.1880    0.0430 N.3     1  UNL1       -0.3272
      2 C          -5.7087   -0.6049   -0.1577 C.3     1  UNL1        0.0049
      3 C          -5.5880    0.5987    0.6834 C.3     1  UNL1       -0.0363
      4 C          -4.2734    0.8070    1.3517 C.3     1  UNL1       -0.0361
      5 C          -3.2077    0.3739    0.3667 C.3     1  UNL1        0.0080
      6 N          -1.8956    0.7606    0.8315 N.3     1  UNL1       -0.3099
      7 C          -0.8452    0.3802   -0.0545 C.3     1  UNL1        0.0153
      8 C          -0.7545    0.8465   -1.4525 C.3     1  UNL1       -0.0287
      9 C           0.1706    1.4607   -0.4705 C.3     1  UNL1        0.0010
     10 C           1.5866    1.0805   -0.4006 C.ar    1  UNL1       -0.0427
     11 C           1.9498   -0.2009   -0.7669 C.ar    1  UNL1       -0.0577
     12 C           3.2650   -0.6295   -0.7265 C.ar    1  UNL1       -0.0537
     13 C           4.2404    0.2392   -0.3116 C.ar    1  UNL1       -0.0164
     14 C           5.6182   -0.2170   -0.2715 C.ar    1  UNL1        0.0002
     15 C           6.5206    0.2795    0.6623 C.ar    1  UNL1       -0.0512
     16 C           7.8073   -0.2119    0.6252 C.ar    1  UNL1       -0.0430
     17 C           8.2056   -1.1609   -0.2957 C.ar    1  UNL1        0.0276
     18 N           7.3158   -1.6301   -1.1933 N.ar    1  UNL1       -0.2627
     19 C           6.0423   -1.1602   -1.1753 C.ar    1  UNL1        0.0352
     20 C           3.9160    1.5218    0.0604 C.ar    1  UNL1       -0.0537
     21 C           2.5867    1.9358    0.0134 C.ar    1  UNL1       -0.0577
     22 C          -3.2877   -1.1340    0.3203 C.3     1  UNL1       -0.0361
     23 C          -4.6507   -1.6388   -0.0192 C.3     1  UNL1       -0.0363
     24 H          -6.9537   -1.8112    0.8766 H       1  UNL1        0.1185
     25 H          -7.1968   -1.8142   -0.7827 H       1  UNL1        0.1185
     26 H          -5.7065   -0.2730   -1.2389 H       1  UNL1        0.0458
     27 H          -5.8106    1.5392    0.0978 H       1  UNL1        0.0281
     28 H          -6.3728    0.6106    1.4968 H       1  UNL1        0.0281
     29 H          -4.2143    0.1350    2.2322 H       1  UNL1        0.0281
     30 H          -4.1801    1.8755    1.6220 H       1  UNL1        0.0281
     31 H          -3.4740    0.7909   -0.6146 H       1  UNL1        0.0460
     32 H          -1.8482    1.7267    1.1933 H       1  UNL1        0.1225
     33 H          -0.4215   -0.6391    0.1627 H       1  UNL1        0.0466
     34 H          -0.2591    0.1566   -2.1876 H       1  UNL1        0.0287
     35 H          -1.4929    1.4986   -1.9174 H       1  UNL1        0.0287
     36 H          -0.0503    2.5056   -0.1606 H       1  UNL1        0.0364
     37 H           1.1968   -0.9095   -1.0994 H       1  UNL1        0.0621
     38 H           3.4847   -1.6361   -1.0231 H       1  UNL1        0.0624
     39 H           6.1874    1.0287    1.3816 H       1  UNL1        0.0625
     40 H           8.5224    0.1693    1.3513 H       1  UNL1        0.0633
     41 H           9.2357   -1.4871   -0.2486 H       1  UNL1        0.0829
     42 H           5.3421   -1.5540   -1.9097 H       1  UNL1        0.0836
     43 H           4.6884    2.2035    0.3870 H       1  UNL1        0.0624
     44 H           2.3134    2.9397    0.3018 H       1  UNL1        0.0621
     45 H          -2.9451   -1.4994    1.3103 H       1  UNL1        0.0281
     46 H          -2.5138   -1.4653   -0.4123 H       1  UNL1        0.0281
     47 H          -4.5608   -2.2413   -0.9540 H       1  UNL1        0.0281
     48 H          -4.9534   -2.3581    0.7713 H       1  UNL1        0.0281
@<TRIPOS>BOND
     1     1     2    1
     2     2     3    1
     3     3     4    1
     4     4     5    1
     5     5     6    1
     6     6     7    1
     7     7     8    1
     8     8     9    1
     9     9    10    1
    10    10    11   ar
    11    11    12   ar
    12    12    13   ar
    13    13    14    1
    14    14    15   ar
    15    15    16   ar
    16    16    17   ar
    17    17    18   ar
    18    18    19   ar
    19    13    20   ar
    20    20    21   ar
    21     5    22    1
    22    22    23    1
    23    23     2    1
    24     9     7    1
    25    21    10   ar
    26    19    14   ar
    27     1    24    1
    28     1    25    1
    29     2    26    1
    30     3    27    1
    31     3    28    1
    32     4    29    1
    33     4    30    1
    34     5    31    1
    35     6    32    1
    36     7    33    1
    37     8    34    1
    38     8    35    1
    39     9    36    1
    40    11    37    1
    41    12    38    1
    42    15    39    1
    43    16    40    1
    44    17    41    1
    45    19    42    1
    46    20    43    1
    47    21    44    1
    48    22    45    1
    49    22    46    1
    50    23    47    1
    51    23    48    1
