@<TRIPOS>MOLECULE
*****
 51 52 0 0 0
SMALL
GASTEIGER

@<TRIPOS>ATOM
      1 N           6.5538   -0.1192    0.3423 N.pl3   1  UNL1       -0.3460
      2 C           7.2018    1.0121   -0.3132 C.3     1  UNL1       -0.0024
      3 C           5.1514   -0.3570    0.3966 C.ar    1  UNL1        0.0445
      4 C           4.6405   -1.4432    1.0340 C.ar    1  UNL1        0.0396
      5 BR          5.8434   -2.6618    1.8673 Br      1  UNL1       -0.0484
      6 C           3.2950   -1.6784    1.0912 C.ar    1  UNL1       -0.0303
      7 C           2.3649   -0.8410    0.5139 C.ar    1  UNL1        0.0794
      8 C           0.9644   -1.1840    0.6378 C.2     1  UNL1        0.2479
      9 O           0.6309   -2.2338    1.2619 O.2     1  UNL1       -0.2701
     10 N          -0.1742   -0.5155    0.1570 N.am    1  UNL1       -0.3059
     11 C          -1.5406   -0.8824    0.2961 C.3     1  UNL1        0.0488
     12 C          -2.2791   -1.0651   -0.9848 C.3     1  UNL1        0.0183
     13 N          -3.4772   -1.8188   -0.7369 N.3     1  UNL1       -0.3023
     14 C          -3.3228   -3.0313   -0.0180 C.3     1  UNL1       -0.0126
     15 C          -4.6609   -1.0699   -0.5110 C.3     1  UNL1        0.0114
     16 C          -4.5495   -0.2041    0.7272 C.3     1  UNL1        0.0117
     17 N          -3.4169    0.6139    0.5807 N.3     1  UNL1       -0.2996
     18 C          -3.5297    1.8905    0.0167 C.3     1  UNL1       -0.0038
     19 C          -4.2663    2.9281    0.7958 C.3     1  UNL1       -0.0524
     20 C          -2.1949    0.2077    1.1581 C.3     1  UNL1        0.0186
     21 C           2.9096    0.2466   -0.1226 C.ar    1  UNL1        0.1340
     22 O           2.0589    1.1340   -0.7266 O.3     1  UNL1       -0.4943
     23 C           2.4885    2.2802   -1.4062 C.3     1  UNL1        0.0788
     24 C           4.2605    0.4999   -0.1909 C.ar    1  UNL1        0.0027
     25 H           7.2011   -0.8103    0.8120 H       1  UNL1        0.1458
     26 H           8.1577    1.2458    0.2239 H       1  UNL1        0.0425
     27 H           6.5117    1.8790   -0.1926 H       1  UNL1        0.0425
     28 H           7.4063    0.7554   -1.3697 H       1  UNL1        0.0425
     29 H           2.9651   -2.5647    1.6159 H       1  UNL1        0.0638
     30 H          -0.0269    0.3606   -0.3701 H       1  UNL1        0.1494
     31 H          -1.5745   -1.8346    0.8630 H       1  UNL1        0.0524
     32 H          -2.5153   -0.1247   -1.5051 H       1  UNL1        0.0445
     33 H          -1.6371   -1.7405   -1.6224 H       1  UNL1        0.0445
     34 H          -3.4230   -2.8626    1.0842 H       1  UNL1        0.0391
     35 H          -2.2810   -3.4043   -0.2101 H       1  UNL1        0.0391
     36 H          -4.0426   -3.8263   -0.3143 H       1  UNL1        0.0391
     37 H          -4.8876   -0.3775   -1.3645 H       1  UNL1        0.0439
     38 H          -5.5369   -1.7494   -0.4572 H       1  UNL1        0.0439
     39 H          -5.5065    0.3292    0.9020 H       1  UNL1        0.0439
     40 H          -4.3733   -0.9052    1.5927 H       1  UNL1        0.0439
     41 H          -2.4862    2.2851   -0.1446 H       1  UNL1        0.0424
     42 H          -3.9258    1.7987   -1.0361 H       1  UNL1        0.0424
     43 H          -5.0532    2.5558    1.4642 H       1  UNL1        0.0242
     44 H          -4.7934    3.5755    0.0396 H       1  UNL1        0.0242
     45 H          -3.5631    3.6427    1.3037 H       1  UNL1        0.0242
     46 H          -1.5273    1.0666    1.3096 H       1  UNL1        0.0445
     47 H          -2.3810   -0.2046    2.1879 H       1  UNL1        0.0445
     48 H           1.6094    2.7773   -1.8742 H       1  UNL1        0.0660
     49 H           3.2188    2.0282   -2.2027 H       1  UNL1        0.0660
     50 H           2.9042    3.0101   -0.6723 H       1  UNL1        0.0660
     51 H           4.6088    1.3872   -0.7163 H       1  UNL1        0.0673
@<TRIPOS>BOND
     1     1     2    1
     2     1     3    1
     3     3     4   ar
     4     4     5    1
     5     4     6   ar
     6     6     7   ar
     7     7     8    1
     8     8     9    2
     9     8    10   am
    10    10    11    1
    11    11    12    1
    12    12    13    1
    13    13    14    1
    14    13    15    1
    15    15    16    1
    16    16    17    1
    17    17    18    1
    18    18    19    1
    19    17    20    1
    20     7    21   ar
    21    21    22    1
    22    22    23    1
    23    21    24   ar
    24    24     3   ar
    25    20    11    1
    26     1    25    1
    27     2    26    1
    28     2    27    1
    29     2    28    1
    30     6    29    1
    31    10    30    1
    32    11    31    1
    33    12    32    1
    34    12    33    1
    35    14    34    1
    36    14    35    1
    37    14    36    1
    38    15    37    1
    39    15    38    1
    40    16    39    1
    41    16    40    1
    42    18    41    1
    43    18    42    1
    44    19    43    1
    45    19    44    1
    46    19    45    1
    47    20    46    1
    48    20    47    1
    49    23    48    1
    50    23    49    1
    51    23    50    1
    52    24    51    1
