@<TRIPOS>MOLECULE
*****
 65 65 0 0 0
SMALL
GASTEIGER

@<TRIPOS>ATOM
      1 C          -7.9233   -1.9425    1.8365 C.3     1  UNL1       -0.0653
      2 C          -7.8617   -1.0598    0.6154 C.3     1  UNL1       -0.0558
      3 C          -6.4371   -1.0093    0.0486 C.3     1  UNL1       -0.0507
      4 C          -5.5750   -0.4570    1.1325 C.3     1  UNL1       -0.0240
      5 C          -4.1113   -0.3287    0.7717 C.3     1  UNL1        0.0667
      6 C          -3.4203    0.2411    1.9903 C.3     1  UNL1       -0.0358
      7 O          -3.6415   -1.6107    0.4623 O.3     1  UNL1       -0.3885
      8 C          -3.9916    0.5258   -0.4327 C.3     1  UNL1       -0.0060
      9 C          -2.6102    0.7559   -0.9237 C.2     1  UNL1       -0.0849
     10 C          -1.4472    0.3288   -0.4757 C.2     1  UNL1       -0.0816
     11 C          -0.1180    0.6414   -1.0748 C.3     1  UNL1        0.0130
     12 C          -0.2851    1.7217   -2.1218 C.3     1  UNL1        0.0688
     13 O          -0.8142    1.2886   -3.3162 O.3     1  UNL1       -0.3908
     14 C           1.1361    2.2245   -2.2711 C.3     1  UNL1        0.0327
     15 C           1.5416    2.3489   -0.8435 C.2     1  UNL1        0.1395
     16 O           2.3781    3.1922   -0.5871 O.2     1  UNL1       -0.2970
     17 C           0.7754    1.3600   -0.0793 C.3     1  UNL1        0.0262
     18 C           1.5210    0.4428    0.8095 C.3     1  UNL1       -0.0429
     19 C           2.4468   -0.5290    0.2111 C.3     1  UNL1       -0.0524
     20 C           3.6084   -0.0686   -0.5595 C.3     1  UNL1       -0.0530
     21 C           4.6023    0.7610    0.2023 C.3     1  UNL1       -0.0526
     22 C           5.7322    1.1673   -0.7207 C.3     1  UNL1       -0.0430
     23 C           6.4729   -0.0102   -1.3077 C.3     1  UNL1        0.0449
     24 C           7.0632   -0.8285   -0.2199 C.2     1  UNL1        0.3068
     25 O           6.4674   -1.6382    0.5371 O.2     1  UNL1       -0.2509
     26 O           8.4176   -0.8033    0.1182 O.3     1  UNL1       -0.4679
     27 C           8.8739   -1.6139    1.1607 C.3     1  UNL1        0.0817
     28 H          -8.8640   -2.4980    1.9476 H       1  UNL1        0.0230
     29 H          -7.8066   -1.3444    2.7669 H       1  UNL1        0.0230
     30 H          -7.0858   -2.6725    1.7862 H       1  UNL1        0.0230
     31 H          -8.1297   -0.0345    0.9429 H       1  UNL1        0.0263
     32 H          -8.6056   -1.3281   -0.1597 H       1  UNL1        0.0263
     33 H          -6.5283   -0.2974   -0.8152 H       1  UNL1        0.0266
     34 H          -6.1199   -2.0138   -0.2336 H       1  UNL1        0.0266
     35 H          -5.9723    0.5745    1.3670 H       1  UNL1        0.0293
     36 H          -5.7058   -1.0255    2.0657 H       1  UNL1        0.0293
     37 H          -2.8519    1.1702    1.7853 H       1  UNL1        0.0257
     38 H          -2.7915   -0.5649    2.4393 H       1  UNL1        0.0257
     39 H          -4.1285    0.5165    2.8018 H       1  UNL1        0.0257
     40 H          -3.1731   -2.0252    1.2232 H       1  UNL1        0.2102
     41 H          -4.4001    1.5342   -0.1804 H       1  UNL1        0.0335
     42 H          -4.5933    0.1187   -1.2521 H       1  UNL1        0.0335
     43 H          -2.6032    1.4022   -1.8209 H       1  UNL1        0.0570
     44 H          -1.5527   -0.2968    0.4042 H       1  UNL1        0.0573
     45 H           0.4243   -0.2417   -1.4393 H       1  UNL1        0.0375
     46 H          -0.8574    2.5336   -1.6757 H       1  UNL1        0.0603
     47 H          -0.6443    0.3566   -3.5231 H       1  UNL1        0.2098
     48 H           1.1821    3.1723   -2.8403 H       1  UNL1        0.0367
     49 H           1.7359    1.4959   -2.8368 H       1  UNL1        0.0367
     50 H           0.0972    1.9598    0.6028 H       1  UNL1        0.0384
     51 H           0.7300   -0.1717    1.3425 H       1  UNL1        0.0272
     52 H           1.9818    0.9961    1.6825 H       1  UNL1        0.0272
     53 H           2.8396   -1.1615    1.0623 H       1  UNL1        0.0265
     54 H           1.8621   -1.2481   -0.3994 H       1  UNL1        0.0265
     55 H           3.4139    0.4254   -1.5301 H       1  UNL1        0.0265
     56 H           4.1790   -1.0000   -0.8570 H       1  UNL1        0.0265
     57 H           4.2231    1.6633    0.6719 H       1  UNL1        0.0265
     58 H           5.0031    0.1128    1.0287 H       1  UNL1        0.0265
     59 H           6.4350    1.8180   -0.1833 H       1  UNL1        0.0270
     60 H           5.2614    1.7645   -1.5280 H       1  UNL1        0.0270
     61 H           7.3342    0.3917   -1.8856 H       1  UNL1        0.0377
     62 H           5.8735   -0.5837   -2.0238 H       1  UNL1        0.0377
     63 H           9.8546   -1.1996    1.4865 H       1  UNL1        0.0661
     64 H           9.0283   -2.6724    0.8129 H       1  UNL1        0.0661
     65 H           8.1544   -1.6073    2.0020 H       1  UNL1        0.0661
@<TRIPOS>BOND
     1     1     2    1
     2     2     3    1
     3     3     4    1
     4     4     5    1
     5     5     6    1
     6     5     7    1
     7     5     8    1
     8     8     9    1
     9     9    10    2
    10    10    11    1
    11    11    12    1
    12    12    13    1
    13    12    14    1
    14    14    15    1
    15    15    16    2
    16    15    17    1
    17    17    18    1
    18    18    19    1
    19    19    20    1
    20    20    21    1
    21    21    22    1
    22    22    23    1
    23    23    24    1
    24    24    25    2
    25    24    26    1
    26    26    27    1
    27    17    11    1
    28     1    28    1
    29     1    29    1
    30     1    30    1
    31     2    31    1
    32     2    32    1
    33     3    33    1
    34     3    34    1
    35     4    35    1
    36     4    36    1
    37     6    37    1
    38     6    38    1
    39     6    39    1
    40     7    40    1
    41     8    41    1
    42     8    42    1
    43     9    43    1
    44    10    44    1
    45    11    45    1
    46    12    46    1
    47    13    47    1
    48    14    48    1
    49    14    49    1
    50    17    50    1
    51    18    51    1
    52    18    52    1
    53    19    53    1
    54    19    54    1
    55    20    55    1
    56    20    56    1
    57    21    57    1
    58    21    58    1
    59    22    59    1
    60    22    60    1
    61    23    61    1
    62    23    62    1
    63    27    63    1
    64    27    64    1
    65    27    65    1
