@<TRIPOS>MOLECULE
*****
 52 57 0 0 0
SMALL
GASTEIGER

@<TRIPOS>ATOM
      1 C           3.8573    1.2620   -3.3739 C.3     1  UNL1       -0.0361
      2 C           3.3367    0.7460   -2.0724 C.ar    1  UNL1       -0.0041
      3 C           2.0722    0.2571   -1.9264 C.ar    1  UNL1       -0.0324
      4 C           1.5720   -0.2287   -0.7155 C.ar    1  UNL1        0.0545
      5 N           0.2443   -0.7247   -0.6466 N.am    1  UNL1       -0.2531
      6 C          -0.1053   -2.0703   -0.8551 C.2     1  UNL1        0.2700
      7 O           0.6307   -3.0696   -1.0800 O.2     1  UNL1       -0.2679
      8 C          -1.5617   -2.1360   -0.7639 C.ar    1  UNL1        0.1291
      9 C          -2.0602   -0.8878   -0.5095 C.ar    1  UNL1        0.0310
     10 C          -3.4589   -1.0054   -0.4544 C.ar    1  UNL1        0.0721
     11 C          -4.3958    0.1221   -0.2153 C.3     1  UNL1        0.0035
     12 C          -5.1144    0.7719   -1.3380 C.3     1  UNL1       -0.0441
     13 C          -4.0554    1.5098   -0.5630 C.3     1  UNL1       -0.0441
     14 N          -3.7163   -2.2907   -0.6721 N.ar    1  UNL1       -0.1751
     15 N          -2.6254   -2.9881   -0.8584 N.ar    1  UNL1       -0.2617
     16 C          -2.4940   -4.4271   -1.1252 C.3     1  UNL1        0.0310
     17 C          -0.9258    0.0464   -0.3743 C.3     1  UNL1        0.0854
     18 C          -0.8914    0.6688    0.9775 C.ar    1  UNL1       -0.0221
     19 C          -0.6168   -0.0475    2.1190 C.ar    1  UNL1       -0.0551
     20 C          -0.5909    0.5994    3.3558 C.ar    1  UNL1       -0.0431
     21 C          -0.8404    1.9555    3.4338 C.ar    1  UNL1        0.0410
     22 CL         -0.8095    2.7706    4.9796 Cl      1  UNL1       -0.0835
     23 C          -1.1143    2.6699    2.2939 C.ar    1  UNL1       -0.0431
     24 C          -1.1342    2.0118    1.0883 C.ar    1  UNL1       -0.0551
     25 C           2.4287   -0.1954    0.3605 C.ar    1  UNL1        0.0344
     26 N           3.6961    0.2912    0.2280 N.ar    1  UNL1       -0.2846
     27 C           4.7105    0.4331    1.0983 C.ar    1  UNL1        0.1347
     28 C           4.6388    0.0399    2.5483 C.3     1  UNL1       -0.0041
     29 N           5.7872    0.9712    0.4942 N.ar    1  UNL1       -0.1340
     30 N           5.4308    1.1634   -0.7667 N.ar    1  UNL1       -0.1292
     31 C           4.1469    0.7517   -0.9527 C.ar    1  UNL1        0.1641
     32 H           3.5866    2.3205   -3.5112 H       1  UNL1        0.0279
     33 H           3.3585    0.6469   -4.1611 H       1  UNL1        0.0279
     34 H           4.9342    1.0634   -3.4625 H       1  UNL1        0.0279
     35 H           1.4058    0.2317   -2.7657 H       1  UNL1        0.0640
     36 H          -4.9943   -0.0213    0.7216 H       1  UNL1        0.0365
     37 H          -6.1660    1.1265   -1.1483 H       1  UNL1        0.0272
     38 H          -4.8592    0.4709   -2.3627 H       1  UNL1        0.0272
     39 H          -4.3776    2.3191    0.1504 H       1  UNL1        0.0272
     40 H          -3.1464    1.8068   -1.1244 H       1  UNL1        0.0272
     41 H          -1.5118   -4.8058   -0.8381 H       1  UNL1        0.0473
     42 H          -3.3479   -4.9890   -0.6919 H       1  UNL1        0.0473
     43 H          -2.5732   -4.5260   -2.2361 H       1  UNL1        0.0473
     44 H          -0.9581    0.8538   -1.1568 H       1  UNL1        0.0606
     45 H          -0.4263   -1.1082    2.0194 H       1  UNL1        0.0621
     46 H          -0.3716    0.0059    4.2338 H       1  UNL1        0.0632
     47 H          -1.3085    3.7270    2.3568 H       1  UNL1        0.0632
     48 H          -1.3443    2.5795    0.2013 H       1  UNL1        0.0621
     49 H           2.1021   -0.5595    1.3257 H       1  UNL1        0.0833
     50 H           5.6707   -0.1435    2.9512 H       1  UNL1        0.0308
     51 H           4.0451   -0.8790    2.6771 H       1  UNL1        0.0308
     52 H           4.2408    0.9096    3.1078 H       1  UNL1        0.0308
@<TRIPOS>BOND
     1     1     2    1
     2     2     3   ar
     3     3     4   ar
     4     4     5    1
     5     5     6   am
     6     6     7    2
     7     6     8    1
     8     8     9   ar
     9     9    10   ar
    10    10    11    1
    11    11    12    1
    12    12    13    1
    13    10    14   ar
    14    14    15   ar
    15    15    16    1
    16     9    17    1
    17    17    18    1
    18    18    19   ar
    19    19    20   ar
    20    20    21   ar
    21    21    22    1
    22    21    23   ar
    23    23    24   ar
    24     4    25   ar
    25    25    26   ar
    26    26    27   ar
    27    27    28    1
    28    27    29   ar
    29    29    30   ar
    30    30    31   ar
    31    31     2   ar
    32    17     5    1
    33    24    18   ar
    34    31    26   ar
    35    15     8   ar
    36    13    11    1
    37     1    32    1
    38     1    33    1
    39     1    34    1
    40     3    35    1
    41    11    36    1
    42    12    37    1
    43    12    38    1
    44    13    39    1
    45    13    40    1
    46    16    41    1
    47    16    42    1
    48    16    43    1
    49    17    44    1
    50    19    45    1
    51    20    46    1
    52    23    47    1
    53    24    48    1
    54    25    49    1
    55    28    50    1
    56    28    51    1
    57    28    52    1
