@<TRIPOS>MOLECULE
*****
 30 31 0 0 0
SMALL
GASTEIGER

@<TRIPOS>ATOM
      1 C          -4.2392   -0.9972    0.1214 C.3     1  UNL1       -0.0621
      2 C          -3.8159    0.3919   -0.2607 C.3     1  UNL1       -0.0208
      3 C          -2.3488    0.5371   -0.5492 C.3     1  UNL1        0.0871
      4 N          -1.9095   -0.3126   -1.6495 N.am    1  UNL1       -0.2931
      5 C          -0.5035   -0.2766   -1.9093 C.2     1  UNL1        0.2473
      6 O           0.0225   -0.4865   -3.0206 O.2     1  UNL1       -0.2701
      7 C           0.4422    0.0275   -0.8139 C.ar    1  UNL1        0.0595
      8 C           1.7988    0.0683   -1.0369 C.ar    1  UNL1       -0.0200
      9 C           2.6039    0.3601    0.0452 C.ar    1  UNL1        0.1241
     10 C           2.1325    0.6094    1.3183 C.ar    1  UNL1        0.0690
     11 CL          3.1422    0.9778    2.6866 Cl      1  UNL1       -0.0815
     12 C           0.7480    0.5520    1.4749 C.ar    1  UNL1       -0.0198
     13 C          -0.1161    0.2647    0.4310 C.ar    1  UNL1        0.0422
     14 N          -1.5278    0.2101    0.6080 N.pl3   1  UNL1       -0.3252
     15 S           4.3444    0.4254   -0.1825 S.O2    1  UNL1        0.0574
     16 N           5.1553   -0.7257    0.8087 N.3     1  UNL1       -0.2035
     17 O           4.8457    1.8067    0.1457 O.2     1  UNL1       -0.1532
     18 O           4.7133    0.1472   -1.6109 O.2     1  UNL1       -0.1532
     19 H          -5.2792   -0.8960    0.5394 H       1  UNL1        0.0231
     20 H          -3.5587   -1.3563    0.9243 H       1  UNL1        0.0231
     21 H          -4.2562   -1.6691   -0.7571 H       1  UNL1        0.0231
     22 H          -4.3380    0.6028   -1.2293 H       1  UNL1        0.0296
     23 H          -4.0925    1.1392    0.4832 H       1  UNL1        0.0296
     24 H          -2.1843    1.6142   -0.7568 H       1  UNL1        0.0706
     25 H          -2.4359   -0.9621   -2.3051 H       1  UNL1        0.1508
     26 H           2.2036   -0.1195   -2.0112 H       1  UNL1        0.0646
     27 H           0.3552    0.7445    2.4669 H       1  UNL1        0.0651
     28 H          -1.8399   -0.0688    1.5844 H       1  UNL1        0.1478
     29 H           5.4904   -1.5397    0.2275 H       1  UNL1        0.1442
     30 H           4.4476   -1.0689    1.5130 H       1  UNL1        0.1442
@<TRIPOS>BOND
     1     1     2    1
     2     2     3    1
     3     3     4    1
     4     4     5   am
     5     5     6    2
     6     5     7    1
     7     7     8   ar
     8     8     9   ar
     9     9    10   ar
    10    10    11    1
    11    10    12   ar
    12    12    13   ar
    13    13    14    1
    14     9    15    1
    15    15    16    1
    16    15    17    2
    17    15    18    2
    18    14     3    1
    19    13     7   ar
    20     1    19    1
    21     1    20    1
    22     1    21    1
    23     2    22    1
    24     2    23    1
    25     3    24    1
    26     4    25    1
    27     8    26    1
    28    12    27    1
    29    14    28    1
    30    16    29    1
    31    16    30    1
