@<TRIPOS>MOLECULE
*****
 52 54 0 0 0
SMALL
GASTEIGER

@<TRIPOS>ATOM
      1 N          10.2948    0.5528   -0.3050 N.1     1  UNL1       -0.1909
      2 C           9.0395    0.3539   -0.5267 C.1     1  UNL1        0.0992
      3 C           7.7026    0.1646   -0.7715 C.ar    1  UNL1        0.0518
      4 C           7.2306   -0.3849   -1.9527 C.ar    1  UNL1       -0.0436
      5 C           5.8632   -0.3975   -2.2183 C.ar    1  UNL1       -0.0484
      6 C           4.9313    0.1189   -1.3502 C.ar    1  UNL1        0.0370
      7 C           3.5591    0.2297   -1.7150 C.2     1  UNL1        0.2466
      8 O           3.2610    0.2707   -3.0145 O.2     1  UNL1       -0.2700
      9 N           2.3907    0.3176   -0.9148 N.am    1  UNL1       -0.2975
     10 C           1.1462    0.5410   -1.7208 C.3     1  UNL1        0.0155
     11 C           0.0977    0.9431   -0.7331 C.3     1  UNL1       -0.0302
     12 C          -0.0333   -0.2759    0.2085 C.3     1  UNL1       -0.0125
     13 C          -1.3857   -0.3374    0.7255 C.ar    1  UNL1       -0.0325
     14 C          -1.8813    0.7013    1.4475 C.ar    1  UNL1       -0.0570
     15 C          -3.2598    0.7397    1.8200 C.ar    1  UNL1       -0.0479
     16 C          -4.1062   -0.2373    1.4746 C.ar    1  UNL1        0.0536
     17 C          -5.5762   -0.2212    1.6498 C.2     1  UNL1        0.3066
     18 O          -6.1395   -0.9989    2.3898 O.2     1  UNL1       -0.2516
     19 N          -6.3460    0.7174    0.9308 N.am    1  UNL1       -0.1709
     20 C          -7.7766    0.8515    0.9488 C.2     1  UNL1        0.3751
     21 N          -8.5038    0.1203    1.6920 N.pl3   1  UNL1       -0.1313
     22 N          -8.4532    1.8200    0.1132 N.pl3   1  UNL1       -0.2906
     23 C          -3.5758   -1.3090    0.7377 C.ar    1  UNL1       -0.0363
     24 C          -2.2344   -1.3693    0.3586 C.ar    1  UNL1        0.0590
     25 C          -1.6673   -2.4713   -0.4660 C.3     1  UNL1        0.4177
     26 F          -2.7450   -3.3668   -0.6398 F       1  UNL1       -0.1659
     27 F          -1.3667   -2.0712   -1.7459 F       1  UNL1       -0.1659
     28 F          -0.6530   -3.1913    0.1081 F       1  UNL1       -0.1659
     29 C           1.0575   -0.1827    1.1705 C.3     1  UNL1       -0.0302
     30 C           2.3550    0.2495    0.5037 C.3     1  UNL1        0.0155
     31 C           5.4152    0.6566   -0.1590 C.ar    1  UNL1       -0.0484
     32 C           6.7533    0.6782    0.1224 C.ar    1  UNL1       -0.0436
     33 H           7.9312   -0.8042   -2.6349 H       1  UNL1        0.0631
     34 H           5.5436   -0.8227   -3.1300 H       1  UNL1        0.0625
     35 H           0.9211   -0.3530   -2.3007 H       1  UNL1        0.0465
     36 H           1.4297    1.4151   -2.3411 H       1  UNL1        0.0465
     37 H           0.4519    1.7849   -0.1068 H       1  UNL1        0.0286
     38 H          -0.8843    1.1580   -1.1784 H       1  UNL1        0.0286
     39 H           0.1574   -1.1472   -0.5179 H       1  UNL1        0.0350
     40 H          -1.2522    1.5236    1.8149 H       1  UNL1        0.0621
     41 H          -3.6282    1.5787    2.3971 H       1  UNL1        0.0626
     42 H          -5.8231    1.4211    0.3282 H       1  UNL1        0.2545
     43 H          -8.1939   -0.5635    2.3091 H       1  UNL1        0.3060
     44 H          -8.3589    2.8199    0.3047 H       1  UNL1        0.2545
     45 H          -8.9839    1.4382   -0.6697 H       1  UNL1        0.2545
     46 H          -4.2297   -2.0878    0.4505 H       1  UNL1        0.0631
     47 H           1.1626   -1.1856    1.6777 H       1  UNL1        0.0286
     48 H           0.7621    0.5342    2.0234 H       1  UNL1        0.0286
     49 H           3.1382   -0.5115    0.8200 H       1  UNL1        0.0465
     50 H           2.5659    1.2574    0.9300 H       1  UNL1        0.0465
     51 H           4.7790    1.0651    0.6091 H       1  UNL1        0.0625
     52 H           7.1177    1.0829    1.0465 H       1  UNL1        0.0631
@<TRIPOS>BOND
     1     1     2    3
     2     2     3    1
     3     3     4   ar
     4     4     5   ar
     5     5     6   ar
     6     6     7    1
     7     7     8    2
     8     7     9   am
     9     9    10    1
    10    10    11    1
    11    11    12    1
    12    12    13    1
    13    13    14   ar
    14    14    15   ar
    15    15    16   ar
    16    16    17    1
    17    17    18    2
    18    17    19   am
    19    19    20    1
    20    20    21    2
    21    20    22    1
    22    16    23   ar
    23    23    24   ar
    24    24    25    1
    25    25    26    1
    26    25    27    1
    27    25    28    1
    28    12    29    1
    29    29    30    1
    30     6    31   ar
    31    31    32   ar
    32    32     3   ar
    33    30     9    1
    34    24    13   ar
    35     4    33    1
    36     5    34    1
    37    10    35    1
    38    10    36    1
    39    11    37    1
    40    11    38    1
    41    12    39    1
    42    14    40    1
    43    15    41    1
    44    19    42    1
    45    21    43    1
    46    22    44    1
    47    22    45    1
    48    23    46    1
    49    29    47    1
    50    29    48    1
    51    30    49    1
    52    30    50    1
    53    31    51    1
    54    32    52    1
