@<TRIPOS>MOLECULE
*****
 67 68 0 0 0
SMALL
GASTEIGER

@<TRIPOS>ATOM
      1 O          -7.9969    1.7584   -2.2939 O.3     1  UNL1       -0.3903
      2 C          -8.0074    1.1486   -1.0515 C.3     1  UNL1        0.0727
      3 C          -7.0068    1.6821   -0.1080 C.ar    1  UNL1        0.0195
      4 C          -7.1525    2.8976    0.5529 C.ar    1  UNL1        0.1222
      5 O          -8.2809    3.6580    0.3258 O.3     1  UNL1       -0.5064
      6 C          -6.1683    3.3400    1.4334 C.ar    1  UNL1       -0.0195
      7 C          -5.0300    2.5654    1.6574 C.ar    1  UNL1       -0.0526
      8 C          -4.8273    1.3393    1.0269 C.ar    1  UNL1       -0.0174
      9 C          -5.8511    0.9928    0.1806 C.ar    1  UNL1       -0.0472
     10 C          -3.5886    0.6026    1.3437 C.3     1  UNL1        0.0926
     11 O          -2.4459    1.3785    1.2743 O.3     1  UNL1       -0.3859
     12 C          -3.4840   -0.6664    0.5156 C.3     1  UNL1        0.0261
     13 N          -2.4009   -1.4989    0.9666 N.3     1  UNL1       -0.3132
     14 C          -2.3733   -2.7133    0.1877 C.3     1  UNL1       -0.0040
     15 C          -1.9206   -2.3984   -1.2119 C.3     1  UNL1       -0.0404
     16 C          -0.5464   -1.8048   -1.1680 C.3     1  UNL1       -0.0518
     17 C           0.4151   -2.7794   -0.5495 C.3     1  UNL1       -0.0509
     18 C           1.8220   -2.1660   -0.5485 C.3     1  UNL1       -0.0295
     19 C           2.7249   -3.1751    0.0839 C.3     1  UNL1        0.0477
     20 O           4.0330   -2.7699    0.1257 O.3     1  UNL1       -0.3798
     21 C           4.2282   -1.6096    0.8471 C.3     1  UNL1        0.0477
     22 C           5.7284   -1.2680    0.8459 C.3     1  UNL1       -0.0292
     23 C           6.1892   -1.0734   -0.5731 C.3     1  UNL1       -0.0470
     24 C           5.5369    0.0523   -1.2973 C.3     1  UNL1       -0.0276
     25 C           5.8646    1.3141   -0.5794 C.ar    1  UNL1       -0.0474
     26 C           7.0580    1.9077   -1.0206 C.ar    1  UNL1       -0.0586
     27 C           7.5539    3.0808   -0.4992 C.ar    1  UNL1       -0.0615
     28 C           6.8844    3.7434    0.5059 C.ar    1  UNL1       -0.0617
     29 C           5.7126    3.1437    0.9260 C.ar    1  UNL1       -0.0615
     30 C           5.2178    1.9817    0.4124 C.ar    1  UNL1       -0.0586
     31 H          -8.7660    1.4023   -2.8111 H       1  UNL1        0.2098
     32 H          -8.9860    1.1857   -0.5348 H       1  UNL1        0.0608
     33 H          -7.7710    0.0540   -1.2011 H       1  UNL1        0.0608
     34 H          -9.1222    3.1875    0.0061 H       1  UNL1        0.2921
     35 H          -6.3024    4.2982    1.9430 H       1  UNL1        0.0654
     36 H          -4.2899    2.9468    2.3484 H       1  UNL1        0.0622
     37 H          -5.7389    0.0506   -0.3361 H       1  UNL1        0.0626
     38 H          -3.7006    0.2383    2.4100 H       1  UNL1        0.0656
     39 H          -2.4896    2.0238    2.0242 H       1  UNL1        0.2103
     40 H          -3.3361   -0.3328   -0.5249 H       1  UNL1        0.0453
     41 H          -4.4589   -1.2068    0.5535 H       1  UNL1        0.0453
     42 H          -2.5477   -1.7284    1.9687 H       1  UNL1        0.1220
     43 H          -1.7061   -3.4800    0.6133 H       1  UNL1        0.0424
     44 H          -3.4065   -3.1762    0.1553 H       1  UNL1        0.0424
     45 H          -2.6558   -1.7718   -1.7240 H       1  UNL1        0.0277
     46 H          -1.8648   -3.3949   -1.7504 H       1  UNL1        0.0277
     47 H          -0.6313   -0.8881   -0.5136 H       1  UNL1        0.0266
     48 H          -0.1877   -1.4286   -2.1353 H       1  UNL1        0.0266
     49 H           0.2108   -3.0202    0.5065 H       1  UNL1        0.0266
     50 H           0.4376   -3.6947   -1.1752 H       1  UNL1        0.0266
     51 H           2.1181   -2.0013   -1.6034 H       1  UNL1        0.0287
     52 H           1.8292   -1.2419    0.0370 H       1  UNL1        0.0287
     53 H           2.6102   -4.1859   -0.3872 H       1  UNL1        0.0560
     54 H           2.4233   -3.3518    1.1620 H       1  UNL1        0.0560
     55 H           3.9358   -1.6830    1.9159 H       1  UNL1        0.0560
     56 H           3.7331   -0.7410    0.3823 H       1  UNL1        0.0560
     57 H           5.9314   -0.4176    1.5064 H       1  UNL1        0.0287
     58 H           6.2660   -2.1614    1.2400 H       1  UNL1        0.0287
     59 H           6.0185   -2.0568   -1.0955 H       1  UNL1        0.0269
     60 H           7.2933   -0.9424   -0.5396 H       1  UNL1        0.0269
     61 H           5.9227    0.0918   -2.3283 H       1  UNL1        0.0313
     62 H           4.4351   -0.0604   -1.3868 H       1  UNL1        0.0313
     63 H           7.6827    1.4862   -1.8099 H       1  UNL1        0.0620
     64 H           8.4769    3.5299   -0.8485 H       1  UNL1        0.0618
     65 H           7.2752    4.6530    0.9062 H       1  UNL1        0.0618
     66 H           5.1590    3.6356    1.7142 H       1  UNL1        0.0618
     67 H           4.3145    1.5183    0.7330 H       1  UNL1        0.0620
@<TRIPOS>BOND
     1     1     2    1
     2     2     3    1
     3     3     4   ar
     4     4     5    1
     5     4     6   ar
     6     6     7   ar
     7     7     8   ar
     8     8     9   ar
     9     8    10    1
    10    10    11    1
    11    10    12    1
    12    12    13    1
    13    13    14    1
    14    14    15    1
    15    15    16    1
    16    16    17    1
    17    17    18    1
    18    18    19    1
    19    19    20    1
    20    20    21    1
    21    21    22    1
    22    22    23    1
    23    23    24    1
    24    24    25    1
    25    25    26   ar
    26    26    27   ar
    27    27    28   ar
    28    28    29   ar
    29    29    30   ar
    30     9     3   ar
    31    30    25   ar
    32     1    31    1
    33     2    32    1
    34     2    33    1
    35     5    34    1
    36     6    35    1
    37     7    36    1
    38     9    37    1
    39    10    38    1
    40    11    39    1
    41    12    40    1
    42    12    41    1
    43    13    42    1
    44    14    43    1
    45    14    44    1
    46    15    45    1
    47    15    46    1
    48    16    47    1
    49    16    48    1
    50    17    49    1
    51    17    50    1
    52    18    51    1
    53    18    52    1
    54    19    53    1
    55    19    54    1
    56    21    55    1
    57    21    56    1
    58    22    57    1
    59    22    58    1
    60    23    59    1
    61    23    60    1
    62    24    61    1
    63    24    62    1
    64    26    63    1
    65    27    64    1
    66    28    65    1
    67    29    66    1
    68    30    67    1
