
     RDKit          3D

 51 55  0  0  0  0  0  0  0  0999 V2000
    1.5274   -0.1112    0.6834 C   0  0  2  0  0  0  0  0  0  0  0  0
    1.0018   -0.3151    2.0918 C   0  0  0  0  0  0  0  0  0  0  0  0
   -0.4151    0.2300    1.8560 C   0  0  0  0  0  0  0  0  0  0  0  0
   -0.8073   -0.6346    0.7390 N   0  0  0  0  0  0  0  0  0  0  0  0
    0.3675   -0.7346   -0.1069 C   0  0  0  0  0  0  0  0  0  0  0  0
   -1.9713   -1.3411    0.3216 C   0  0  0  0  0  0  0  0  0  0  0  0
   -1.8145   -2.6924    0.2060 N   0  0  0  0  0  0  0  0  0  0  0  0
   -2.8335   -3.4965   -0.1815 C   0  0  0  0  0  0  0  0  0  0  0  0
   -4.0677   -2.9925   -0.4752 N   0  0  0  0  0  0  0  0  0  0  0  0
   -4.2311   -1.6615   -0.3639 C   0  0  0  0  0  0  0  0  0  0  0  0
   -5.4473   -1.0726   -0.6424 C   0  0  0  0  0  0  0  0  0  0  0  0
   -5.6484    0.3069   -0.5361 C   0  0  0  0  0  0  0  0  0  0  0  0
   -6.8630    0.9185   -0.8115 O   0  0  0  0  0  0  0  0  0  0  0  0
   -7.9551    0.1273   -1.2183 C   0  0  0  0  0  0  0  0  0  0  0  0
   -4.5674    1.0952   -0.1328 C   0  0  0  0  0  0  0  0  0  0  0  0
   -4.7651    2.4502   -0.0285 O   0  0  0  0  0  0  0  0  0  0  0  0
   -3.6658    3.2430    0.3807 C   0  0  0  0  0  0  0  0  0  0  0  0
   -3.3201    0.5503    0.1598 C   0  0  0  0  0  0  0  0  0  0  0  0
   -3.2074   -0.8245    0.0288 C   0  0  0  0  0  0  0  0  0  0  0  0
    2.7290   -0.7471    0.4434 O   0  0  0  0  0  0  0  0  0  0  0  0
    3.8359   -0.0341    0.0265 C   0  0  0  0  0  0  0  0  0  0  0  0
    4.8649   -0.9205   -0.1275 N   0  0  0  0  0  0  0  0  0  0  0  0
    6.0945   -0.4924   -0.5357 C   0  0  0  0  0  0  0  0  0  0  0  0
    7.1860   -1.3112   -0.7173 C   0  0  0  0  0  0  0  0  0  0  0  0
    8.3960   -0.8314   -1.1279 C   0  0  0  0  0  0  0  0  0  0  0  0
    8.5760    0.5159   -1.3813 C   0  0  0  0  0  0  0  0  0  0  0  0
    7.4930    1.3552   -1.2051 C   0  0  0  0  0  0  0  0  0  0  0  0
    6.2674    0.8344   -0.7840 C   0  0  0  0  0  0  0  0  0  0  0  0
    5.2835    1.7149   -0.6418 N   0  0  0  0  0  0  0  0  0  0  0  0
    4.0730    1.2962   -0.2403 C   0  0  0  0  0  0  0  0  0  0  0  0
    1.5149    0.9830    0.5220 H   0  0  0  0  0  0  0  0  0  0  0  0
    0.9408   -1.3976    2.2659 H   0  0  0  0  0  0  0  0  0  0  0  0
    1.5530    0.2650    2.8393 H   0  0  0  0  0  0  0  0  0  0  0  0
   -0.9673    0.0199    2.7693 H   0  0  0  0  0  0  0  0  0  0  0  0
   -0.3448    1.2789    1.5619 H   0  0  0  0  0  0  0  0  0  0  0  0
    0.3040   -0.1192   -1.0279 H   0  0  0  0  0  0  0  0  0  0  0  0
    0.6654   -1.7794   -0.3022 H   0  0  0  0  0  0  0  0  0  0  0  0
   -2.6589   -4.5620   -0.2580 H   0  0  0  0  0  0  0  0  0  0  0  0
   -6.3059   -1.6537   -0.9574 H   0  0  0  0  0  0  0  0  0  0  0  0
   -7.6998   -0.5963   -2.0066 H   0  0  0  0  0  0  0  0  0  0  0  0
   -8.3754   -0.3564   -0.3001 H   0  0  0  0  0  0  0  0  0  0  0  0
   -8.7887    0.7776   -1.5941 H   0  0  0  0  0  0  0  0  0  0  0  0
   -3.3467    2.9362    1.4154 H   0  0  0  0  0  0  0  0  0  0  0  0
   -3.9717    4.3167    0.3922 H   0  0  0  0  0  0  0  0  0  0  0  0
   -2.8578    3.0592   -0.3733 H   0  0  0  0  0  0  0  0  0  0  0  0
   -2.4920    1.1736    0.4711 H   0  0  0  0  0  0  0  0  0  0  0  0
    7.0475   -2.3711   -0.5188 H   0  0  0  0  0  0  0  0  0  0  0  0
    9.2233   -1.5182   -1.2556 H   0  0  0  0  0  0  0  0  0  0  0  0
    9.5560    0.8399   -1.7041 H   0  0  0  0  0  0  0  0  0  0  0  0
    7.6865    2.3945   -1.4159 H   0  0  0  0  0  0  0  0  0  0  0  0
    3.2019    1.8848   -0.0855 H   0  0  0  0  0  0  0  0  0  0  0  0
  1  2  1  0
  2  3  1  0
  3  4  1  0
  4  5  1  0
  4  6  1  0
  6  7  2  0
  7  8  1  0
  8  9  2  0
  9 10  1  0
 10 11  2  0
 11 12  1  0
 12 13  1  0
 13 14  1  0
 12 15  2  0
 15 16  1  0
 16 17  1  0
 15 18  1  0
 18 19  2  0
  1 20  1  0
 20 21  1  0
 21 22  2  0
 22 23  1  0
 23 24  2  0
 24 25  1  0
 25 26  2  0
 26 27  1  0
 27 28  2  0
 28 29  1  0
 29 30  2  0
  5  1  1  0
 19  6  1  0
 30 21  1  0
 19 10  1  0
 28 23  1  0
  1 31  1  6
  2 32  1  0
  2 33  1  0
  3 34  1  0
  3 35  1  0
  5 36  1  0
  5 37  1  0
  8 38  1  0
 11 39  1  0
 14 40  1  0
 14 41  1  0
 14 42  1  0
 17 43  1  0
 17 44  1  0
 17 45  1  0
 18 46  1  0
 24 47  1  0
 25 48  1  0
 26 49  1  0
 27 50  1  0
 30 51  1  0
M  END
$$$$
