@<TRIPOS>MOLECULE
*****
 51 55 0 0 0
SMALL
GASTEIGER

@<TRIPOS>ATOM
      1 C           1.5274   -0.1112    0.6834 C.3     1  UNL1        0.1189
      2 C           1.0018   -0.3151    2.0918 C.3     1  UNL1        0.0016
      3 C          -0.4151    0.2300    1.8560 C.3     1  UNL1        0.0171
      4 N          -0.8073   -0.6346    0.7390 N.pl3   1  UNL1       -0.3110
      5 C           0.3675   -0.7346   -0.1069 C.3     1  UNL1        0.0506
      6 C          -1.9713   -1.3411    0.3216 C.ar    1  UNL1        0.1325
      7 N          -1.8145   -2.6924    0.2060 N.ar    1  UNL1       -0.2201
      8 C          -2.8335   -3.4965   -0.1815 C.ar    1  UNL1        0.1187
      9 N          -4.0677   -2.9925   -0.4752 N.ar    1  UNL1       -0.2352
     10 C          -4.2311   -1.6615   -0.3639 C.ar    1  UNL1        0.0797
     11 C          -5.4473   -1.0726   -0.6424 C.ar    1  UNL1        0.0098
     12 C          -5.6484    0.3069   -0.5361 C.ar    1  UNL1        0.1635
     13 O          -6.8630    0.9185   -0.8115 O.3     1  UNL1       -0.4914
     14 C          -7.9551    0.1273   -1.2183 C.3     1  UNL1        0.0790
     15 C          -4.5674    1.0952   -0.1328 C.ar    1  UNL1        0.1623
     16 O          -4.7651    2.4502   -0.0285 O.3     1  UNL1       -0.4914
     17 C          -3.6658    3.2430    0.3807 C.3     1  UNL1        0.0790
     18 C          -3.3201    0.5503    0.1598 C.ar    1  UNL1       -0.0038
     19 C          -3.2074   -0.8245    0.0288 C.ar    1  UNL1        0.0440
     20 O           2.7290   -0.7471    0.4434 O.3     1  UNL1       -0.4704
     21 C           3.8359   -0.0341    0.0265 C.ar    1  UNL1        0.2343
     22 N           4.8649   -0.9205   -0.1275 N.ar    1  UNL1       -0.2101
     23 C           6.0945   -0.4924   -0.5357 C.ar    1  UNL1        0.0930
     24 C           7.1860   -1.3112   -0.7173 C.ar    1  UNL1       -0.0341
     25 C           8.3960   -0.8314   -1.1279 C.ar    1  UNL1       -0.0596
     26 C           8.5760    0.5159   -1.3813 C.ar    1  UNL1       -0.0596
     27 C           7.4930    1.3552   -1.2051 C.ar    1  UNL1       -0.0342
     28 C           6.2674    0.8344   -0.7840 C.ar    1  UNL1        0.0894
     29 N           5.2835    1.7149   -0.6418 N.ar    1  UNL1       -0.2482
     30 C           4.0730    1.2962   -0.2403 C.ar    1  UNL1        0.0898
     31 H           1.5149    0.9830    0.5220 H       1  UNL1        0.0750
     32 H           0.9408   -1.3976    2.2659 H       1  UNL1        0.0317
     33 H           1.5530    0.2650    2.8393 H       1  UNL1        0.0317
     34 H          -0.9673    0.0199    2.7693 H       1  UNL1        0.0465
     35 H          -0.3448    1.2789    1.5619 H       1  UNL1        0.0465
     36 H           0.3040   -0.1192   -1.0279 H       1  UNL1        0.0500
     37 H           0.6654   -1.7794   -0.3022 H       1  UNL1        0.0500
     38 H          -2.6589   -4.5620   -0.2580 H       1  UNL1        0.1048
     39 H          -6.3059   -1.6537   -0.9574 H       1  UNL1        0.0677
     40 H          -7.6998   -0.5963   -2.0066 H       1  UNL1        0.0660
     41 H          -8.3754   -0.3564   -0.3001 H       1  UNL1        0.0660
     42 H          -8.7887    0.7776   -1.5941 H       1  UNL1        0.0660
     43 H          -3.3467    2.9362    1.4154 H       1  UNL1        0.0660
     44 H          -3.9717    4.3167    0.3922 H       1  UNL1        0.0660
     45 H          -2.8578    3.0592   -0.3733 H       1  UNL1        0.0660
     46 H          -2.4920    1.1736    0.4711 H       1  UNL1        0.0663
     47 H           7.0475   -2.3711   -0.5188 H       1  UNL1        0.0639
     48 H           9.2233   -1.5182   -1.2556 H       1  UNL1        0.0618
     49 H           9.5560    0.8399   -1.7041 H       1  UNL1        0.0618
     50 H           7.6865    2.3945   -1.4159 H       1  UNL1        0.0639
     51 H           3.2019    1.8848   -0.0855 H       1  UNL1        0.0884
@<TRIPOS>BOND
     1     1     2    1
     2     2     3    1
     3     3     4    1
     4     4     5    1
     5     4     6    1
     6     6     7   ar
     7     7     8   ar
     8     8     9   ar
     9     9    10   ar
    10    10    11   ar
    11    11    12   ar
    12    12    13    1
    13    13    14    1
    14    12    15   ar
    15    15    16    1
    16    16    17    1
    17    15    18   ar
    18    18    19   ar
    19     1    20    1
    20    20    21    1
    21    21    22   ar
    22    22    23   ar
    23    23    24   ar
    24    24    25   ar
    25    25    26   ar
    26    26    27   ar
    27    27    28   ar
    28    28    29   ar
    29    29    30   ar
    30     5     1    1
    31    19     6   ar
    32    30    21   ar
    33    19    10   ar
    34    28    23   ar
    35     1    31    1
    36     2    32    1
    37     2    33    1
    38     3    34    1
    39     3    35    1
    40     5    36    1
    41     5    37    1
    42     8    38    1
    43    11    39    1
    44    14    40    1
    45    14    41    1
    46    14    42    1
    47    17    43    1
    48    17    44    1
    49    17    45    1
    50    18    46    1
    51    24    47    1
    52    25    48    1
    53    26    49    1
    54    27    50    1
    55    30    51    1
