@<TRIPOS>MOLECULE
*****
 31 33 0 0 0
SMALL
GASTEIGER

@<TRIPOS>ATOM
      1 N          -4.7941    1.3809    0.0320 N.pl3   1  UNL1       -0.3413
      2 C          -3.9534    0.3852   -0.5450 C.ar    1  UNL1        0.1487
      3 C          -2.6700    0.3247   -0.0217 C.ar    1  UNL1        0.1474
      4 N          -2.0225    1.0229    0.9437 N.ar    1  UNL1       -0.2306
      5 C          -0.7696    0.5504    1.0568 C.ar    1  UNL1        0.1003
      6 N          -0.5881   -0.4537    0.1729 N.ar    1  UNL1       -0.2878
      7 C1*         0.6576   -1.2065    0.0132 C.3     1  UNL1        0.1408
      8 C2*         1.4903   -0.6737   -1.1353 C.3     1  UNL1        0.0213
      9 C3*         2.3244    0.3487   -0.3792 C.3     1  UNL1        0.0876
     10 O3*         3.4741    0.6342   -1.1026 O.3     1  UNL1       -0.3890
     11 C4*         2.5740   -0.4320    0.8808 C.3     1  UNL1        0.1100
     12 C5*         3.0178    0.4194    2.0364 C.3     1  UNL1        0.0729
     13 O5*         4.1569    1.1490    1.8306 O.3     1  UNL1       -0.3924
     14 O4*         1.4172   -1.1443    1.1523 O.3     1  UNL1       -0.3484
     15 C          -1.7581   -0.5917   -0.4901 C.ar    1  UNL1        0.1688
     16 N          -2.1213   -1.4367   -1.4677 N.ar    1  UNL1       -0.1976
     17 C          -3.3712   -1.3686   -1.9686 C.ar    1  UNL1        0.2264
     18 CL         -3.9597   -2.4149   -3.2420 Cl      1  UNL1       -0.0409
     19 N          -4.2888   -0.4727   -1.5224 N.ar    1  UNL1       -0.2006
     20 H          -4.7935    2.4086    0.0522 H       1  UNL1        0.1438
     21 H          -5.5274    0.7902    0.5060 H       1  UNL1        0.1438
     22 H          -0.0883    0.9802    1.7791 H       1  UNL1        0.1030
     23 H1*         0.4186   -2.2840   -0.2120 H       1  UNL1        0.0840
     24 H2*1        2.1320   -1.4946   -1.5229 H       1  UNL1        0.0335
     25 H2*2        0.8723   -0.2048   -1.9184 H       1  UNL1        0.0335
     26 H3*         1.6753    1.2313   -0.2211 H       1  UNL1        0.0621
     27 H3*         3.3226    1.5025   -1.5617 H       1  UNL1        0.2099
     28 H4*         3.3747   -1.1702    0.6687 H       1  UNL1        0.0646
     29 H5*1        3.1624   -0.2662    2.8998 H       1  UNL1        0.0584
     30 H5*2        2.2333    1.1292    2.3691 H       1  UNL1        0.0584
     31 H5*         4.4025    1.3571    0.9168 H       1  UNL1        0.2095
@<TRIPOS>BOND
     1     1     2    1
     2     2     3   ar
     3     3     4   ar
     4     4     5   ar
     5     5     6   ar
     6     6     7    1
     7     7     8    1
     8     8     9    1
     9     9    10    1
    10     9    11    1
    11    11    12    1
    12    12    13    1
    13    11    14    1
    14     6    15   ar
    15    15    16   ar
    16    16    17   ar
    17    17    18    1
    18    17    19   ar
    19    19     2   ar
    20    15     3   ar
    21    14     7    1
    22     1    20    1
    23     1    21    1
    24     5    22    1
    25     7    23    1
    26     8    24    1
    27     8    25    1
    28     9    26    1
    29    10    27    1
    30    11    28    1
    31    12    29    1
    32    12    30    1
    33    13    31    1
