@<TRIPOS>MOLECULE
*****
 37 40 0 0 0
SMALL
GASTEIGER

@<TRIPOS>ATOM
      1 C           3.0030    1.2389    1.0161 C.3     1  UNL1       -0.0390
      2 C           3.4797    0.1449    0.1497 C.ar    1  UNL1       -0.0399
      3 C           4.8646   -0.0254   -0.0336 C.ar    1  UNL1       -0.0401
      4 C           5.3142   -1.0424   -0.8286 C.ar    1  UNL1        0.0278
      5 N           4.4288   -1.8552   -1.4164 N.ar    1  UNL1       -0.2626
      6 C           3.0780   -1.6990   -1.2453 C.ar    1  UNL1        0.0355
      7 C           2.5857   -0.6887   -0.4539 C.ar    1  UNL1        0.0032
      8 C           1.1571   -0.5077   -0.2715 C.ar    1  UNL1       -0.0131
      9 C           0.3376   -1.5501    0.0468 C.ar    1  UNL1       -0.0166
     10 C          -1.0405   -1.4185    0.2212 C.ar    1  UNL1        0.1480
     11 F          -1.6734   -2.5254    0.5112 F       1  UNL1       -0.2033
     12 C          -1.5927   -0.1766    0.0638 C.ar    1  UNL1        0.0877
     13 C          -0.7942    0.9138   -0.2607 C.ar    1  UNL1       -0.0197
     14 C           0.5629    0.7184   -0.4203 C.ar    1  UNL1       -0.0486
     15 C          -1.3086    2.2932   -0.4369 C.3     1  UNL1       -0.0187
     16 C          -2.7618    2.4641   -0.3486 C.3     1  UNL1        0.0118
     17 C          -3.4884    1.2501    0.0243 C.ar    1  UNL1        0.1383
     18 N          -4.8366    1.1685    0.2414 N.ar    1  UNL1       -0.1340
     19 N          -5.1232   -0.0557    0.5417 N.ar    1  UNL1       -0.1343
     20 C          -3.9794   -0.8283    0.5351 C.ar    1  UNL1        0.1349
     21 C          -4.0200   -2.2601    0.8548 C.3     1  UNL1       -0.0041
     22 N          -3.0016    0.0107    0.2133 N.ar    1  UNL1       -0.2801
     23 H           3.7340    1.3222    1.8815 H       1  UNL1        0.0278
     24 H           2.0393    1.0752    1.4948 H       1  UNL1        0.0278
     25 H           3.1090    2.2487    0.5218 H       1  UNL1        0.0278
     26 H           5.5528    0.6559    0.4611 H       1  UNL1        0.0635
     27 H           6.3861   -1.2159   -1.0024 H       1  UNL1        0.0829
     28 H           2.4311   -2.4060   -1.7612 H       1  UNL1        0.0836
     29 H           0.7776   -2.5411    0.1730 H       1  UNL1        0.0653
     30 H           1.1601    1.5885   -0.6769 H       1  UNL1        0.0627
     31 H          -0.8736    2.7294   -1.3728 H       1  UNL1        0.0318
     32 H          -0.8201    2.8757    0.4106 H       1  UNL1        0.0318
     33 H          -2.9889    3.2857    0.3984 H       1  UNL1        0.0347
     34 H          -3.1255    2.8093   -1.3671 H       1  UNL1        0.0347
     35 H          -5.1243   -2.5028    1.1446 H       1  UNL1        0.0308
     36 H          -3.5533   -2.5358    1.8395 H       1  UNL1        0.0308
     37 H          -3.8954   -2.9586    0.0267 H       1  UNL1        0.0308
@<TRIPOS>BOND
     1     1     2    1
     2     2     3   ar
     3     3     4   ar
     4     4     5   ar
     5     5     6   ar
     6     6     7   ar
     7     7     8    1
     8     8     9   ar
     9     9    10   ar
    10    10    11    1
    11    10    12   ar
    12    12    13   ar
    13    13    14   ar
    14    13    15    1
    15    15    16    1
    16    16    17    1
    17    17    18   ar
    18    18    19   ar
    19    19    20   ar
    20    20    21    1
    21    20    22   ar
    22     7     2   ar
    23    14     8   ar
    24    22    17   ar
    25    22    12    1
    26     1    23    1
    27     1    24    1
    28     1    25    1
    29     3    26    1
    30     4    27    1
    31     6    28    1
    32     9    29    1
    33    14    30    1
    34    15    31    1
    35    15    32    1
    36    16    33    1
    37    16    34    1
    38    21    35    1
    39    21    36    1
    40    21    37    1
