
     RDKit          3D

 45 46  0  0  0  0  0  0  0  0999 V2000
    6.7785   -0.3580   -1.1951 C   0  0  0  0  0  0  0  0  0  0  0  0
    5.8691    0.2445   -2.2694 C   0  0  0  0  0  0  0  0  0  0  0  0
    4.7149    0.7247   -1.5765 O   0  0  0  0  0  0  0  0  0  0  0  0
    3.9596   -0.1931   -0.8622 C   0  0  0  0  0  0  0  0  0  0  0  0
    4.3090   -1.4143   -0.8437 O   0  0  0  0  0  0  0  0  0  0  0  0
    2.7791    0.2405   -0.1416 C   0  0  0  0  0  0  0  0  0  0  0  0
    2.3193    1.5020   -0.0927 N   0  0  0  0  0  0  0  0  0  0  0  0
    1.2085    1.4730    0.6786 C   0  0  0  0  0  0  0  0  0  0  0  0
    0.3872    2.6691    0.9927 C   0  0  0  0  0  0  0  0  0  0  0  0
    0.9650    0.2078    1.1146 C   0  0  0  0  0  0  0  0  0  0  0  0
   -0.1349   -0.2785    1.9735 C   0  0  0  0  0  0  0  0  0  0  0  0
   -1.4340   -0.4079    1.2672 C   0  0  0  0  0  0  0  0  0  0  0  0
   -2.3778    0.5958    1.2302 C   0  0  0  0  0  0  0  0  0  0  0  0
   -3.5805    0.5107    0.5882 C   0  0  0  0  0  0  0  0  0  0  0  0
   -3.8910   -0.6635   -0.0801 C   0  0  0  0  0  0  0  0  0  0  0  0
   -5.1099   -0.7965   -0.7513 O   0  0  0  0  0  0  0  0  0  0  0  0
   -6.0150    0.2886   -0.7334 C   0  0  0  0  0  0  0  0  0  0  0  0
   -7.2720    0.0123   -1.4852 C   0  0  0  0  0  0  0  0  0  0  0  0
   -2.9721   -1.6985   -0.0692 C   0  0  0  0  0  0  0  0  0  0  0  0
   -1.7662   -1.5781    0.5898 C   0  0  0  0  0  0  0  0  0  0  0  0
    1.9590   -0.5944    0.6002 C   0  0  0  0  0  0  0  0  0  0  0  0
    2.1311   -2.0724    0.7944 C   0  0  0  0  0  0  0  0  0  0  0  0
    6.6526   -1.4564   -1.2301 H   0  0  0  0  0  0  0  0  0  0  0  0
    6.5043    0.0007   -0.1934 H   0  0  0  0  0  0  0  0  0  0  0  0
    7.8275   -0.1203   -1.4700 H   0  0  0  0  0  0  0  0  0  0  0  0
    5.5336   -0.5403   -2.9705 H   0  0  0  0  0  0  0  0  0  0  0  0
    6.4087    1.0657   -2.7598 H   0  0  0  0  0  0  0  0  0  0  0  0
    2.7310    2.3592   -0.5584 H   0  0  0  0  0  0  0  0  0  0  0  0
   -0.5031    2.6144    0.3049 H   0  0  0  0  0  0  0  0  0  0  0  0
   -0.0317    2.6496    2.0121 H   0  0  0  0  0  0  0  0  0  0  0  0
    0.9606    3.6051    0.8509 H   0  0  0  0  0  0  0  0  0  0  0  0
    0.0770   -1.2364    2.4435 H   0  0  0  0  0  0  0  0  0  0  0  0
   -0.2771    0.4808    2.7923 H   0  0  0  0  0  0  0  0  0  0  0  0
   -2.1466    1.5163    1.7503 H   0  0  0  0  0  0  0  0  0  0  0  0
   -4.3125    1.3261    0.5759 H   0  0  0  0  0  0  0  0  0  0  0  0
   -6.2612    0.4771    0.3325 H   0  0  0  0  0  0  0  0  0  0  0  0
   -5.5280    1.2420   -1.0913 H   0  0  0  0  0  0  0  0  0  0  0  0
   -7.5280    0.9313   -2.0825 H   0  0  0  0  0  0  0  0  0  0  0  0
   -7.1812   -0.8222   -2.2021 H   0  0  0  0  0  0  0  0  0  0  0  0
   -8.1078   -0.1665   -0.7818 H   0  0  0  0  0  0  0  0  0  0  0  0
   -3.2218   -2.6196   -0.5965 H   0  0  0  0  0  0  0  0  0  0  0  0
   -1.0578   -2.4206    0.5787 H   0  0  0  0  0  0  0  0  0  0  0  0
    3.1415   -2.2277    1.2503 H   0  0  0  0  0  0  0  0  0  0  0  0
    2.0941   -2.6100   -0.1779 H   0  0  0  0  0  0  0  0  0  0  0  0
    1.3990   -2.4621    1.5241 H   0  0  0  0  0  0  0  0  0  0  0  0
  1  2  1  0
  2  3  1  0
  3  4  1  0
  4  5  2  0
  4  6  1  0
  6  7  1  0
  7  8  1  0
  8  9  1  0
  8 10  2  0
 10 11  1  0
 11 12  1  0
 12 13  2  0
 13 14  1  0
 14 15  2  0
 15 16  1  0
 16 17  1  0
 17 18  1  0
 15 19  1  0
 19 20  2  0
 10 21  1  0
 21 22  1  0
 21  6  2  0
 20 12  1  0
  1 23  1  0
  1 24  1  0
  1 25  1  0
  2 26  1  0
  2 27  1  0
  7 28  1  0
  9 29  1  0
  9 30  1  0
  9 31  1  0
 11 32  1  0
 11 33  1  0
 13 34  1  0
 14 35  1  0
 17 36  1  0
 17 37  1  0
 18 38  1  0
 18 39  1  0
 18 40  1  0
 19 41  1  0
 20 42  1  0
 22 43  1  0
 22 44  1  0
 22 45  1  0
M  END
$$$$
