@<TRIPOS>MOLECULE
*****
 45 46 0 0 0
SMALL
GASTEIGER

@<TRIPOS>ATOM
      1 C           6.7785   -0.3580   -1.1951 C.3     1  UNL1       -0.0306
      2 C           5.8691    0.2445   -2.2694 C.3     1  UNL1        0.0900
      3 O           4.7149    0.7247   -1.5765 O.3     1  UNL1       -0.4604
      4 C           3.9596   -0.1931   -0.8622 C.2     1  UNL1        0.3559
      5 O           4.3090   -1.4143   -0.8437 O.2     1  UNL1       -0.2433
      6 C           2.7791    0.2405   -0.1416 C.ar    1  UNL1        0.1278
      7 N           2.3193    1.5020   -0.0927 N.ar    1  UNL1       -0.3526
      8 C           1.2085    1.4730    0.6786 C.ar    1  UNL1        0.0172
      9 C           0.3872    2.6691    0.9927 C.3     1  UNL1       -0.0242
     10 C           0.9650    0.2078    1.1146 C.ar    1  UNL1       -0.0191
     11 C          -0.1349   -0.2785    1.9735 C.3     1  UNL1       -0.0005
     12 C          -1.4340   -0.4079    1.2672 C.ar    1  UNL1       -0.0428
     13 C          -2.3778    0.5958    1.2302 C.ar    1  UNL1       -0.0548
     14 C          -3.5805    0.5107    0.5882 C.ar    1  UNL1       -0.0197
     15 C          -3.8910   -0.6635   -0.0801 C.ar    1  UNL1        0.1205
     16 O          -5.1099   -0.7965   -0.7513 O.3     1  UNL1       -0.4922
     17 C          -6.0150    0.2886   -0.7334 C.3     1  UNL1        0.0868
     18 C          -7.2720    0.0123   -1.4852 C.3     1  UNL1       -0.0307
     19 C          -2.9721   -1.6985   -0.0692 C.ar    1  UNL1       -0.0197
     20 C          -1.7662   -1.5781    0.5898 C.ar    1  UNL1       -0.0548
     21 C           1.9590   -0.5944    0.6002 C.ar    1  UNL1       -0.0150
     22 C           2.1311   -2.0724    0.7944 C.3     1  UNL1       -0.0372
     23 H           6.6526   -1.4564   -1.2301 H       1  UNL1        0.0262
     24 H           6.5043    0.0007   -0.1934 H       1  UNL1        0.0262
     25 H           7.8275   -0.1203   -1.4700 H       1  UNL1        0.0262
     26 H           5.5336   -0.5403   -2.9705 H       1  UNL1        0.0695
     27 H           6.4087    1.0657   -2.7598 H       1  UNL1        0.0695
     28 H           2.7310    2.3592   -0.5584 H       1  UNL1        0.1658
     29 H          -0.5031    2.6144    0.3049 H       1  UNL1        0.0292
     30 H          -0.0317    2.6496    2.0121 H       1  UNL1        0.0292
     31 H           0.9606    3.6051    0.8509 H       1  UNL1        0.0292
     32 H           0.0770   -1.2364    2.4435 H       1  UNL1        0.0362
     33 H          -0.2771    0.4808    2.7923 H       1  UNL1        0.0362
     34 H          -2.1466    1.5163    1.7503 H       1  UNL1        0.0622
     35 H          -4.3125    1.3261    0.5759 H       1  UNL1        0.0654
     36 H          -6.2612    0.4771    0.3325 H       1  UNL1        0.0694
     37 H          -5.5280    1.2420   -1.0913 H       1  UNL1        0.0694
     38 H          -7.5280    0.9313   -2.0825 H       1  UNL1        0.0262
     39 H          -7.1812   -0.8222   -2.2021 H       1  UNL1        0.0262
     40 H          -8.1078   -0.1665   -0.7818 H       1  UNL1        0.0262
     41 H          -3.2218   -2.6196   -0.5965 H       1  UNL1        0.0654
     42 H          -1.0578   -2.4206    0.5787 H       1  UNL1        0.0622
     43 H           3.1415   -2.2277    1.2503 H       1  UNL1        0.0278
     44 H           2.0941   -2.6100   -0.1779 H       1  UNL1        0.0278
     45 H           1.3990   -2.4621    1.5241 H       1  UNL1        0.0278
@<TRIPOS>BOND
     1     1     2    1
     2     2     3    1
     3     3     4    1
     4     4     5    2
     5     4     6    1
     6     6     7   ar
     7     7     8   ar
     8     8     9    1
     9     8    10   ar
    10    10    11    1
    11    11    12    1
    12    12    13   ar
    13    13    14   ar
    14    14    15   ar
    15    15    16    1
    16    16    17    1
    17    17    18    1
    18    15    19   ar
    19    19    20   ar
    20    10    21   ar
    21    21    22    1
    22    21     6   ar
    23    20    12   ar
    24     1    23    1
    25     1    24    1
    26     1    25    1
    27     2    26    1
    28     2    27    1
    29     7    28    1
    30     9    29    1
    31     9    30    1
    32     9    31    1
    33    11    32    1
    34    11    33    1
    35    13    34    1
    36    14    35    1
    37    17    36    1
    38    17    37    1
    39    18    38    1
    40    18    39    1
    41    18    40    1
    42    19    41    1
    43    20    42    1
    44    22    43    1
    45    22    44    1
    46    22    45    1
