@<TRIPOS>MOLECULE
*****
 69 74 0 0 0
SMALL
GASTEIGER

@<TRIPOS>ATOM
      1 N           7.0145    3.5515   -0.3876 N.am    1  UNL1       -0.3253
      2 C           8.1621    2.7473   -0.2605 C.2     1  UNL1        0.2416
      3 O           9.3120    3.1938   -0.4887 O.2     1  UNL1       -0.2704
      4 C           8.0510    1.3442    0.1474 C.ar    1  UNL1        0.0372
      5 C           9.1482    0.5343    0.2793 C.ar    1  UNL1       -0.0477
      6 C           8.9898   -0.7796    0.6661 C.ar    1  UNL1       -0.0371
      7 C           7.7521   -1.3251    0.9314 C.ar    1  UNL1        0.0468
      8 N           7.3247   -2.5559    1.3187 N.ar    1  UNL1       -0.3604
      9 C           5.9913   -2.5517    1.4366 C.ar    1  UNL1        0.0060
     10 C           5.5681   -1.2816    1.1141 C.ar    1  UNL1       -0.0201
     11 C           4.1772   -0.8160    1.1064 C.3     1  UNL1        0.0032
     12 CA          3.6138   -0.6927   -0.2885 C.3     1  UNL1        0.1245
     13 N           2.2554   -0.2379   -0.2969 N.am    1  UNL1       -0.2981
     14 C           1.1574   -1.0829   -0.0644 C.2     1  UNL1        0.2448
     15 O           1.3686   -2.3155    0.1764 O.2     1  UNL1       -0.2702
     16 C          -0.2409   -0.6442   -0.0782 C.ar    1  UNL1        0.0388
     17 C          -1.2424   -1.5735    0.1650 C.ar    1  UNL1       -0.0476
     18 C          -2.5826   -1.2616    0.1742 C.ar    1  UNL1       -0.0353
     19 C          -2.9684    0.0194   -0.0654 C.ar    1  UNL1        0.0694
     20 C          -1.9787    0.9620   -0.3107 C.ar    1  UNL1        0.0904
     21 C          -0.6398    0.6446   -0.3187 C.ar    1  UNL1       -0.0221
     22 N          -2.6741    2.1176   -0.5079 N.ar    1  UNL1       -0.2274
     23 C          -3.9682    1.8787   -0.3891 C.ar    1  UNL1        0.1451
     24 C          -5.0066    2.9143   -0.5431 C.ar    1  UNL1        0.0551
     25 C          -5.9082    3.3665    0.3988 C.ar    1  UNL1       -0.0132
     26 C          -6.6801    4.3423   -0.2112 C.ar    1  UNL1        0.0924
     27 O          -6.2723    4.4698   -1.4363 O.2     1  UNL1       -0.4703
     28 C          -5.2680    3.6354   -1.6895 C.ar    1  UNL1        0.1023
     29 N          -4.1953    0.5809   -0.1130 N.ar    1  UNL1       -0.3204
     30 C          -5.4557   -0.0275    0.0793 C.3     1  UNL1        0.0365
     31 C          -5.7251   -0.5885    1.4343 C.3     1  UNL1       -0.0320
     32 C          -7.2595   -0.7036    1.5468 C.3     1  UNL1       -0.0512
     33 C          -7.7619   -1.5436    0.4138 C.3     1  UNL1       -0.0529
     34 C          -6.6460   -2.1973   -0.3700 C.3     1  UNL1       -0.0512
     35 C          -5.7767   -1.1138   -0.9435 C.3     1  UNL1       -0.0320
     36 C           3.8498   -1.9186   -1.1101 C.2     1  UNL1        0.3256
     37 O           4.9796   -2.4824   -1.1313 O.2     1  UNL1       -0.2489
     38 OXT         2.8476   -2.4705   -1.8711 O.3     1  UNL1       -0.4793
     39 C           6.6597   -0.4961    0.7937 C.ar    1  UNL1        0.0036
     40 C           6.8054    0.8166    0.4084 C.ar    1  UNL1       -0.0402
     41 H           6.7860    4.1482   -1.2142 H       1  UNL1        0.1453
     42 H           6.3265    3.5632    0.3995 H       1  UNL1        0.1453
     43 H          10.1332    0.9256    0.0804 H       1  UNL1        0.0626
     44 H           9.8595   -1.4386    0.7754 H       1  UNL1        0.0638
     45 H           7.9533   -3.3725    1.4942 H       1  UNL1        0.1653
     46 H           5.3861   -3.4200    1.7369 H       1  UNL1        0.0810
     47 H           3.5325   -1.5716    1.6210 H       1  UNL1        0.0337
     48 H           4.0268    0.1200    1.6830 H       1  UNL1        0.0337
     49 HA          4.1806    0.1043   -0.8883 H       1  UNL1        0.0618
     50 H           2.0045    0.7854   -0.4827 H       1  UNL1        0.1498
     51 H          -0.9835   -2.6185    0.3636 H       1  UNL1        0.0626
     52 H          -3.3449   -2.0018    0.3661 H       1  UNL1        0.0639
     53 H           0.1036    1.3946   -0.5115 H       1  UNL1        0.0647
     54 H          -5.9620    2.9972    1.4084 H       1  UNL1        0.0656
     55 H          -7.4779    4.8906    0.2657 H       1  UNL1        0.1029
     56 H          -4.7450    3.5424   -2.6436 H       1  UNL1        0.1036
     57 H          -6.2540    0.7577   -0.0877 H       1  UNL1        0.0528
     58 H          -5.3879   -1.6391    1.5506 H       1  UNL1        0.0285
     59 H          -5.4383    0.0586    2.2726 H       1  UNL1        0.0285
     60 H          -7.4867   -1.2284    2.4958 H       1  UNL1        0.0266
     61 H          -7.6808    0.3217    1.5555 H       1  UNL1        0.0266
     62 H          -8.2704   -0.8416   -0.3057 H       1  UNL1        0.0265
     63 H          -8.5026   -2.3211    0.7391 H       1  UNL1        0.0265
     64 H          -6.1088   -2.9686    0.1834 H       1  UNL1        0.0266
     65 H          -7.1306   -2.7177   -1.2403 H       1  UNL1        0.0266
     66 H          -4.8537   -1.5129   -1.4257 H       1  UNL1        0.0285
     67 H          -6.3585   -0.6754   -1.8072 H       1  UNL1        0.0285
     68 HXT         2.9782   -3.2201   -2.5476 H       1  UNL1        0.2951
     69 H           5.9368    1.4788    0.2980 H       1  UNL1        0.0632
@<TRIPOS>BOND
     1     1     2   am
     2     2     3    2
     3     2     4    1
     4     4     5   ar
     5     5     6   ar
     6     6     7   ar
     7     7     8   ar
     8     8     9   ar
     9     9    10   ar
    10    10    11    1
    11    11    12    1
    12    12    13    1
    13    13    14   am
    14    14    15    2
    15    14    16    1
    16    16    17   ar
    17    17    18   ar
    18    18    19   ar
    19    19    20   ar
    20    20    21   ar
    21    20    22   ar
    22    22    23   ar
    23    23    24    1
    24    24    25   ar
    25    25    26   ar
    26    26    27   ar
    27    27    28   ar
    28    23    29   ar
    29    29    30    1
    30    30    31    1
    31    31    32    1
    32    32    33    1
    33    33    34    1
    34    34    35    1
    35    12    36    1
    36    36    37    2
    37    36    38    1
    38    10    39   ar
    39    39    40   ar
    40    40     4   ar
    41    39     7   ar
    42    21    16   ar
    43    28    24   ar
    44    35    30    1
    45    29    19   ar
    46     1    41    1
    47     1    42    1
    48     5    43    1
    49     6    44    1
    50     8    45    1
    51     9    46    1
    52    11    47    1
    53    11    48    1
    54    12    49    1
    55    13    50    1
    56    17    51    1
    57    18    52    1
    58    21    53    1
    59    25    54    1
    60    26    55    1
    61    28    56    1
    62    30    57    1
    63    31    58    1
    64    31    59    1
    65    32    60    1
    66    32    61    1
    67    33    62    1
    68    33    63    1
    69    34    64    1
    70    34    65    1
    71    35    66    1
    72    35    67    1
    73    38    68    1
    74    40    69    1
