
     RDKit          3D

 69 74  0  0  0  0  0  0  0  0999 V2000
    7.0145    3.5515   -0.3876 N   0  0  0  0  0  0  0  0  0  0  0  0
    8.1621    2.7473   -0.2605 C   0  0  0  0  0  0  0  0  0  0  0  0
    9.3120    3.1938   -0.4887 O   0  0  0  0  0  0  0  0  0  0  0  0
    8.0510    1.3442    0.1474 C   0  0  0  0  0  0  0  0  0  0  0  0
    9.1482    0.5343    0.2793 C   0  0  0  0  0  0  0  0  0  0  0  0
    8.9898   -0.7796    0.6661 C   0  0  0  0  0  0  0  0  0  0  0  0
    7.7521   -1.3251    0.9314 C   0  0  0  0  0  0  0  0  0  0  0  0
    7.3247   -2.5559    1.3187 N   0  0  0  0  0  0  0  0  0  0  0  0
    5.9913   -2.5517    1.4366 C   0  0  0  0  0  0  0  0  0  0  0  0
    5.5681   -1.2816    1.1141 C   0  0  0  0  0  0  0  0  0  0  0  0
    4.1772   -0.8160    1.1064 C   0  0  0  0  0  0  0  0  0  0  0  0
    3.6138   -0.6927   -0.2885 C   0  0  2  0  0  0  0  0  0  0  0  0
    2.2554   -0.2379   -0.2969 N   0  0  0  0  0  0  0  0  0  0  0  0
    1.1574   -1.0829   -0.0644 C   0  0  0  0  0  0  0  0  0  0  0  0
    1.3686   -2.3155    0.1764 O   0  0  0  0  0  0  0  0  0  0  0  0
   -0.2409   -0.6442   -0.0782 C   0  0  0  0  0  0  0  0  0  0  0  0
   -1.2424   -1.5735    0.1650 C   0  0  0  0  0  0  0  0  0  0  0  0
   -2.5826   -1.2616    0.1742 C   0  0  0  0  0  0  0  0  0  0  0  0
   -2.9684    0.0194   -0.0654 C   0  0  0  0  0  0  0  0  0  0  0  0
   -1.9787    0.9620   -0.3107 C   0  0  0  0  0  0  0  0  0  0  0  0
   -0.6398    0.6446   -0.3187 C   0  0  0  0  0  0  0  0  0  0  0  0
   -2.6741    2.1176   -0.5079 N   0  0  0  0  0  0  0  0  0  0  0  0
   -3.9682    1.8787   -0.3891 C   0  0  0  0  0  0  0  0  0  0  0  0
   -5.0066    2.9143   -0.5431 C   0  0  0  0  0  0  0  0  0  0  0  0
   -5.9082    3.3665    0.3988 C   0  0  0  0  0  0  0  0  0  0  0  0
   -6.6801    4.3423   -0.2112 C   0  0  0  0  0  0  0  0  0  0  0  0
   -6.2723    4.4698   -1.4363 O   0  0  0  0  0  0  0  0  0  0  0  0
   -5.2680    3.6354   -1.6895 C   0  0  0  0  0  0  0  0  0  0  0  0
   -4.1953    0.5809   -0.1130 N   0  0  0  0  0  0  0  0  0  0  0  0
   -5.4557   -0.0275    0.0793 C   0  0  0  0  0  0  0  0  0  0  0  0
   -5.7251   -0.5885    1.4343 C   0  0  0  0  0  0  0  0  0  0  0  0
   -7.2595   -0.7036    1.5468 C   0  0  0  0  0  0  0  0  0  0  0  0
   -7.7619   -1.5436    0.4138 C   0  0  0  0  0  0  0  0  0  0  0  0
   -6.6460   -2.1973   -0.3700 C   0  0  0  0  0  0  0  0  0  0  0  0
   -5.7767   -1.1138   -0.9435 C   0  0  0  0  0  0  0  0  0  0  0  0
    3.8498   -1.9186   -1.1101 C   0  0  0  0  0  0  0  0  0  0  0  0
    4.9796   -2.4824   -1.1313 O   0  0  0  0  0  0  0  0  0  0  0  0
    2.8476   -2.4705   -1.8711 O   0  0  0  0  0  0  0  0  0  0  0  0
    6.6597   -0.4961    0.7937 C   0  0  0  0  0  0  0  0  0  0  0  0
    6.8054    0.8166    0.4084 C   0  0  0  0  0  0  0  0  0  0  0  0
    6.7860    4.1482   -1.2142 H   0  0  0  0  0  0  0  0  0  0  0  0
    6.3265    3.5632    0.3995 H   0  0  0  0  0  0  0  0  0  0  0  0
   10.1332    0.9256    0.0804 H   0  0  0  0  0  0  0  0  0  0  0  0
    9.8595   -1.4386    0.7754 H   0  0  0  0  0  0  0  0  0  0  0  0
    7.9533   -3.3725    1.4942 H   0  0  0  0  0  0  0  0  0  0  0  0
    5.3861   -3.4200    1.7369 H   0  0  0  0  0  0  0  0  0  0  0  0
    3.5325   -1.5716    1.6210 H   0  0  0  0  0  0  0  0  0  0  0  0
    4.0268    0.1200    1.6830 H   0  0  0  0  0  0  0  0  0  0  0  0
    4.1806    0.1043   -0.8883 H   0  0  0  0  0  0  0  0  0  0  0  0
    2.0045    0.7854   -0.4827 H   0  0  0  0  0  0  0  0  0  0  0  0
   -0.9835   -2.6185    0.3636 H   0  0  0  0  0  0  0  0  0  0  0  0
   -3.3449   -2.0018    0.3661 H   0  0  0  0  0  0  0  0  0  0  0  0
    0.1036    1.3946   -0.5115 H   0  0  0  0  0  0  0  0  0  0  0  0
   -5.9620    2.9972    1.4084 H   0  0  0  0  0  0  0  0  0  0  0  0
   -7.4779    4.8906    0.2657 H   0  0  0  0  0  0  0  0  0  0  0  0
   -4.7450    3.5424   -2.6436 H   0  0  0  0  0  0  0  0  0  0  0  0
   -6.2540    0.7577   -0.0877 H   0  0  0  0  0  0  0  0  0  0  0  0
   -5.3879   -1.6391    1.5506 H   0  0  0  0  0  0  0  0  0  0  0  0
   -5.4383    0.0586    2.2726 H   0  0  0  0  0  0  0  0  0  0  0  0
   -7.4867   -1.2284    2.4958 H   0  0  0  0  0  0  0  0  0  0  0  0
   -7.6808    0.3217    1.5555 H   0  0  0  0  0  0  0  0  0  0  0  0
   -8.2704   -0.8416   -0.3057 H   0  0  0  0  0  0  0  0  0  0  0  0
   -8.5026   -2.3211    0.7391 H   0  0  0  0  0  0  0  0  0  0  0  0
   -6.1088   -2.9686    0.1834 H   0  0  0  0  0  0  0  0  0  0  0  0
   -7.1306   -2.7177   -1.2403 H   0  0  0  0  0  0  0  0  0  0  0  0
   -4.8537   -1.5129   -1.4257 H   0  0  0  0  0  0  0  0  0  0  0  0
   -6.3585   -0.6754   -1.8072 H   0  0  0  0  0  0  0  0  0  0  0  0
    2.9782   -3.2201   -2.5476 H   0  0  0  0  0  0  0  0  0  0  0  0
    5.9368    1.4788    0.2980 H   0  0  0  0  0  0  0  0  0  0  0  0
  1  2  1  0
  2  3  2  0
  2  4  1  0
  4  5  2  0
  5  6  1  0
  6  7  2  0
  7  8  1  0
  8  9  1  0
  9 10  2  0
 10 11  1  0
 11 12  1  0
 12 13  1  0
 13 14  1  0
 14 15  2  0
 14 16  1  0
 16 17  2  0
 17 18  1  0
 18 19  2  0
 19 20  1  0
 20 21  2  0
 20 22  1  0
 22 23  2  0
 23 24  1  0
 24 25  1  0
 25 26  2  0
 26 27  1  0
 27 28  1  0
 23 29  1  0
 29 30  1  0
 30 31  1  0
 31 32  1  0
 32 33  1  0
 33 34  1  0
 34 35  1  0
 12 36  1  0
 36 37  2  0
 36 38  1  0
 10 39  1  0
 39 40  2  0
 40  4  1  0
 39  7  1  0
 21 16  1  0
 28 24  2  0
 35 30  1  0
 29 19  1  0
  1 41  1  0
  1 42  1  0
  5 43  1  0
  6 44  1  0
  8 45  1  0
  9 46  1  0
 11 47  1  0
 11 48  1  0
 12 49  1  6
 13 50  1  0
 17 51  1  0
 18 52  1  0
 21 53  1  0
 25 54  1  0
 26 55  1  0
 28 56  1  0
 30 57  1  0
 31 58  1  0
 31 59  1  0
 32 60  1  0
 32 61  1  0
 33 62  1  0
 33 63  1  0
 34 64  1  0
 34 65  1  0
 35 66  1  0
 35 67  1  0
 38 68  1  0
 40 69  1  0
M  END
$$$$
