@<TRIPOS>MOLECULE
*****
 106 107 0 0 0
SMALL
GASTEIGER

@<TRIPOS>ATOM
      1 O           4.9256   -1.9870    6.6301 O.3     1  UNL1       -0.4711
      2 AL          4.0467   -1.4817    5.0999 Al      1  UNL1        0.9372
      3 O           5.0754   -0.7483    3.7471 O.3     1  UNL1       -0.4711
      4 O           2.4383   -2.2286    4.6097 O.3     1  UNL1       -0.2883
      5 S           1.1294   -1.3412    5.1278 S.O2    1  UNL1        0.1860
      6 O           0.3594   -2.1976    6.1146 O.2     1  UNL1       -0.1203
      7 O           1.6263   -0.1471    5.8859 O.2     1  UNL1       -0.1203
      8 O           0.1149   -0.8908    3.8576 O.3     1  UNL1       -0.2150
      9 C           0.0753   -1.9694    2.9695 C.3     1  UNL1        0.1076
     10 C          -0.8287   -1.6519    1.7744 C.3     1  UNL1        0.1183
     11 O          -0.4180   -0.5743    1.0681 O.3     1  UNL1       -0.3401
     12 C          -0.0542   -0.7685   -0.2544 C.3     1  UNL1        0.1940
     13 O           0.8058    0.2189   -0.5656 O.3     1  UNL1       -0.3121
     14 C           0.5744    1.1248   -1.5147 C.3     1  UNL1        0.2325
     15 C           0.4200    0.6657   -2.9255 C.3     1  UNL1        0.1354
     16 O          -0.6133   -0.2095   -3.1553 O.3     1  UNL1       -0.2122
     17 S          -0.6377   -0.6145   -4.7840 S.O2    1  UNL1        0.1861
     18 O           0.7367   -1.0968   -5.1772 O.2     1  UNL1       -0.1203
     19 O          -1.6669   -1.6572   -5.0947 O.2     1  UNL1       -0.1203
     20 O          -0.9665    0.7409   -5.7394 O.3     1  UNL1       -0.2883
     21 AL         -2.4447    0.4829   -6.7750 Al      1  UNL1        0.9372
     22 O          -3.1664   -1.1808   -6.9052 O.3     1  UNL1       -0.4711
     23 O          -2.9088    1.7854   -7.9654 O.3     1  UNL1       -0.4711
     24 O           1.7210    1.9599   -1.5068 O.3     1  UNL1       -0.3099
     25 C           1.6287    2.5932   -0.2677 C.3     1  UNL1        0.2224
     26 O           2.1062    1.7196    0.6936 O.3     1  UNL1       -0.1828
     27 S           3.4101    2.3627    1.5329 S.O2    1  UNL1        0.1884
     28 O           4.6833    1.9430    0.8728 O.2     1  UNL1       -0.1203
     29 O           3.2793    3.8648    1.6140 O.2     1  UNL1       -0.1203
     30 O           3.4409    1.8091    3.1183 O.3     1  UNL1       -0.2883
     31 AL          2.8039    3.0901    4.2758 Al      1  UNL1        0.9372
     32 O           1.0246    3.5416    4.2066 O.3     1  UNL1       -0.4711
     33 O           3.6997    3.3738    5.8429 O.3     1  UNL1       -0.4711
     34 C           0.1423    2.9021   -0.0614 C.3     1  UNL1        0.1758
     35 O          -0.0174    4.2562   -0.1844 O.3     1  UNL1       -0.2063
     36 S          -0.7097    5.0452    1.0798 S.O2    1  UNL1        0.1864
     37 O          -1.4251    6.2569    0.5279 O.2     1  UNL1       -0.1203
     38 O           0.3792    5.5999    1.9747 O.2     1  UNL1       -0.1203
     39 O          -1.8192    4.1687    1.9517 O.3     1  UNL1       -0.2883
     40 AL         -2.7022    5.3678    3.0564 Al      1  UNL1        0.9372
     41 O          -3.1078    4.9359    4.8113 O.3     1  UNL1       -0.4711
     42 O          -2.7825    7.1560    2.6208 O.3     1  UNL1       -0.4711
     43 C          -0.4356    2.1936   -1.2424 C.3     1  UNL1        0.1787
     44 O          -1.7269    1.7655   -1.1042 O.3     1  UNL1       -0.2059
     45 S          -2.7279    2.4386   -2.2808 S.O2    1  UNL1        0.1864
     46 O          -3.8191    3.2201   -1.6207 O.2     1  UNL1       -0.1203
     47 O          -1.9674    3.3686   -3.1890 O.2     1  UNL1       -0.1203
     48 O          -3.3847    1.2484   -3.2679 O.3     1  UNL1       -0.2883
     49 AL         -4.7417    0.4439   -2.2940 Al      1  UNL1        0.9372
     50 O          -4.2568   -0.1944   -0.6303 O.3     1  UNL1       -0.4711
     51 O          -6.5004    0.8743   -2.6595 O.3     1  UNL1       -0.4711
     52 C           0.6245   -2.1124   -0.4311 C.3     1  UNL1        0.1711
     53 O           1.1445   -2.2842   -1.6868 O.3     1  UNL1       -0.2064
     54 S           2.8088   -2.6056   -1.6121 S.O2    1  UNL1        0.1864
     55 O           3.4168   -1.4284   -0.8789 O.2     1  UNL1       -0.1203
     56 O           3.3685   -2.7978   -2.9723 O.2     1  UNL1       -0.1203
     57 O           3.0084   -3.9427   -0.6302 O.3     1  UNL1       -0.2883
     58 AL          3.9272   -5.2380   -1.5264 Al      1  UNL1        0.9372
     59 O           5.0314   -4.7986   -2.9238 O.3     1  UNL1       -0.4711
     60 O           3.3216   -6.9849   -1.4181 O.3     1  UNL1       -0.4711
     61 C          -0.4630   -3.1436   -0.2347 C.3     1  UNL1        0.1536
     62 O           0.0434   -4.4381   -0.3184 O.3     1  UNL1       -0.2087
     63 S          -0.6130   -5.2479   -1.6205 S.O2    1  UNL1        0.1863
     64 O          -1.7225   -6.1679   -1.1911 O.2     1  UNL1       -0.1203
     65 O           0.4510   -6.0841   -2.2468 O.2     1  UNL1       -0.1203
     66 O          -1.1672   -4.1609   -2.7887 O.3     1  UNL1       -0.2883
     67 AL         -2.7479   -4.7585   -3.5044 Al      1  UNL1        0.9372
     68 O          -3.0508   -4.4803   -5.2821 O.3     1  UNL1       -0.4711
     69 O          -4.1479   -5.2180   -2.4233 O.3     1  UNL1       -0.4711
     70 C          -1.1969   -2.8824    1.0279 C.3     1  UNL1        0.1490
     71 O          -2.5834   -2.9982    0.8069 O.3     1  UNL1       -0.2089
     72 S          -3.2180   -4.3124    1.6242 S.O2    1  UNL1        0.1863
     73 O          -4.1313   -5.0880    0.6976 O.2     1  UNL1       -0.1203
     74 O          -2.1415   -5.2789    2.0559 O.2     1  UNL1       -0.1203
     75 O          -4.1198   -3.8400    2.9581 O.3     1  UNL1       -0.2883
     76 AL         -5.1020   -2.3493    2.6507 Al      1  UNL1        0.9372
     77 O          -6.4379   -2.3886    1.3676 O.3     1  UNL1       -0.4711
     78 O          -5.2997   -1.1316    4.0136 O.3     1  UNL1       -0.4711
     79 H           5.8534   -2.2468    6.4080 H       1  UNL1        0.1687
     80 H           5.4353    0.1298    4.0043 H       1  UNL1        0.1687
     81 H          -0.3365   -2.8115    3.5632 H       1  UNL1        0.0611
     82 H           1.0894   -2.2926    2.6564 H       1  UNL1        0.0611
     83 H          -1.7917   -1.3204    2.2705 H       1  UNL1        0.0648
     84 H          -0.9994   -0.8334   -0.8256 H       1  UNL1        0.0939
     85 H           1.3917    0.3154   -3.3749 H       1  UNL1        0.0640
     86 H           0.1935    1.5906   -3.5306 H       1  UNL1        0.0640
     87 H          -4.0067   -1.2896   -6.3917 H       1  UNL1        0.1687
     88 H          -3.0784    2.6671   -7.5444 H       1  UNL1        0.1687
     89 H           2.2336    3.5354   -0.2590 H       1  UNL1        0.0962
     90 H           0.4732    2.8659    4.6444 H       1  UNL1        0.1687
     91 H           3.1793    3.0850    6.6272 H       1  UNL1        0.1687
     92 H          -0.2193    2.4780    0.8941 H       1  UNL1        0.0702
     93 H          -3.7189    4.1539    4.7920 H       1  UNL1        0.1687
     94 H          -2.1533    7.6992    3.1765 H       1  UNL1        0.1687
     95 H          -0.4021    2.8833   -2.1127 H       1  UNL1        0.0705
     96 H          -3.5446    0.3753   -0.2276 H       1  UNL1        0.1687
     97 H          -7.0555    0.0684   -2.7518 H       1  UNL1        0.1687
     98 H           1.4564   -2.2335    0.2878 H       1  UNL1        0.0700
     99 H           4.6337   -5.2112   -3.7397 H       1  UNL1        0.1687
    100 H           3.3160   -7.3740   -2.3283 H       1  UNL1        0.1687
    101 H          -1.1758   -3.0230   -1.0904 H       1  UNL1        0.0677
    102 H          -3.6292   -3.6777   -5.3945 H       1  UNL1        0.1687
    103 H          -4.6264   -4.4129   -2.1058 H       1  UNL1        0.1687
    104 H          -0.9680   -3.7522    1.7122 H       1  UNL1        0.0676
    105 H          -6.0573   -1.9195    0.5684 H       1  UNL1        0.1687
    106 H          -5.0550   -0.2359    3.6160 H       1  UNL1        0.1687
@<TRIPOS>BOND
     1     1     2    1
     2     2     3    1
     3     2     4    1
     4     4     5    1
     5     5     6    2
     6     5     7    2
     7     5     8    1
     8     8     9    1
     9     9    10    1
    10    10    11    1
    11    11    12    1
    12    12    13    1
    13    14    13    1
    14    14    15    1
    15    15    16    1
    16    16    17    1
    17    17    18    2
    18    17    19    2
    19    17    20    1
    20    20    21    1
    21    21    22    1
    22    21    23    1
    23    14    24    1
    24    24    25    1
    25    25    26    1
    26    26    27    1
    27    27    28    2
    28    27    29    2
    29    27    30    1
    30    30    31    1
    31    31    32    1
    32    31    33    1
    33    25    34    1
    34    34    35    1
    35    35    36    1
    36    36    37    2
    37    36    38    2
    38    36    39    1
    39    39    40    1
    40    40    41    1
    41    40    42    1
    42    34    43    1
    43    43    44    1
    44    44    45    1
    45    45    46    2
    46    45    47    2
    47    45    48    1
    48    48    49    1
    49    49    50    1
    50    49    51    1
    51    12    52    1
    52    52    53    1
    53    53    54    1
    54    54    55    2
    55    54    56    2
    56    54    57    1
    57    57    58    1
    58    58    59    1
    59    58    60    1
    60    52    61    1
    61    61    62    1
    62    62    63    1
    63    63    64    2
    64    63    65    2
    65    63    66    1
    66    66    67    1
    67    67    68    1
    68    67    69    1
    69    61    70    1
    70    70    71    1
    71    71    72    1
    72    72    73    2
    73    72    74    2
    74    72    75    1
    75    75    76    1
    76    76    77    1
    77    76    78    1
    78    70    10    1
    79    43    14    1
    80     1    79    1
    81     3    80    1
    82     9    81    1
    83     9    82    1
    84    10    83    1
    85    12    84    1
    86    15    85    1
    87    15    86    1
    88    22    87    1
    89    23    88    1
    90    25    89    1
    91    32    90    1
    92    33    91    1
    93    34    92    1
    94    41    93    1
    95    42    94    1
    96    43    95    1
    97    50    96    1
    98    51    97    1
    99    52    98    1
   100    59    99    1
   101    60   100    1
   102    61   101    1
   103    68   102    1
   104    69   103    1
   105    70   104    1
   106    77   105    1
   107    78   106    1
