@<TRIPOS>MOLECULE
*****
 51 53 0 0 0
SMALL
GASTEIGER

@<TRIPOS>ATOM
      1 O           2.7728    0.8895    0.1309 O.2     1  UNL1       -0.2680
      2 C           1.5450    1.0664    0.4514 C.2     1  UNL1        0.2686
      3 N           1.1673    2.2855    1.0414 N.am    1  UNL1       -0.1904
      4 O           2.1395    3.2326    1.2467 O.3     1  UNL1       -0.2773
      5 C           1.5461    4.3641    1.8330 C.3     1  UNL1        0.0963
      6 C           2.5640    5.4356    2.1093 C.3     1  UNL1        0.0698
      7 O           3.2065    5.8673    0.9560 O.3     1  UNL1       -0.3927
      8 C           0.6294   -0.0400    0.1675 C.ar    1  UNL1        0.0631
      9 C          -0.7350    0.1174    0.4114 C.ar    1  UNL1       -0.0401
     10 C          -1.6640   -0.8742    0.1306 C.ar    1  UNL1        0.0112
     11 C          -3.1178   -0.7194    0.3829 C.3     1  UNL1        0.0697
     12 N          -3.8822   -0.4677   -0.7936 N.am    1  UNL1       -0.1765
     13 O          -4.3813   -1.5167   -1.4819 O.3     1  UNL1       -0.2769
     14 C          -4.7538   -1.1500   -2.7778 C.3     1  UNL1        0.0740
     15 C          -5.8289   -0.0938   -2.6334 C.3     1  UNL1       -0.0189
     16 C          -5.0970    1.2080   -2.2877 C.3     1  UNL1        0.0283
     17 C          -4.1018    0.8691   -1.2147 C.2     1  UNL1        0.2386
     18 O          -3.4785    1.8389   -0.7155 O.2     1  UNL1       -0.2735
     19 C          -1.1864   -2.0482   -0.4100 C.ar    1  UNL1        0.1650
     20 F          -2.0677   -3.0245   -0.6919 F       1  UNL1       -0.2021
     21 C           0.1719   -2.2038   -0.6516 C.ar    1  UNL1        0.1804
     22 F           0.6480   -3.3556   -1.1835 F       1  UNL1       -0.2005
     23 C           1.0956   -1.2181   -0.3716 C.ar    1  UNL1        0.0823
     24 N           2.4980   -1.4334   -0.6027 N.pl3   1  UNL1       -0.3094
     25 C           3.2976   -2.2972    0.1528 C.ar    1  UNL1        0.0671
     26 C           3.9455   -3.3200   -0.5192 C.ar    1  UNL1       -0.0368
     27 C           4.7493   -4.2324    0.1267 C.ar    1  UNL1       -0.0467
     28 C           4.9155   -4.1208    1.5072 C.ar    1  UNL1        0.0162
     29 I           6.1504   -5.5163    2.5231 I       1  UNL1       -0.0437
     30 C           4.2753   -3.1122    2.1642 C.ar    1  UNL1       -0.0115
     31 C           3.4585   -2.1856    1.5068 C.ar    1  UNL1        0.1454
     32 F           2.8539   -1.2222    2.2456 F       1  UNL1       -0.2035
     33 H           0.1872    2.4438    1.3045 H       1  UNL1        0.1828
     34 H           0.7281    4.7397    1.1960 H       1  UNL1        0.0606
     35 H           1.1042    4.0507    2.7936 H       1  UNL1        0.0606
     36 H           2.0031    6.3180    2.5323 H       1  UNL1        0.0581
     37 H           3.2573    5.1223    2.9093 H       1  UNL1        0.0581
     38 H           2.9969    6.8285    0.7577 H       1  UNL1        0.2095
     39 H          -1.1426    1.0262    0.8344 H       1  UNL1        0.0630
     40 H          -3.5160   -1.6350    0.9105 H       1  UNL1        0.0540
     41 H          -3.2051    0.0939    1.1563 H       1  UNL1        0.0540
     42 H          -5.1445   -2.0446   -3.2688 H       1  UNL1        0.0584
     43 H          -3.8633   -0.7102   -3.3039 H       1  UNL1        0.0584
     44 H          -6.4882   -0.3419   -1.7803 H       1  UNL1        0.0293
     45 H          -6.4310    0.0380   -3.5516 H       1  UNL1        0.0293
     46 H          -4.5411    1.4941   -3.2014 H       1  UNL1        0.0360
     47 H          -5.7971    1.9890   -1.9605 H       1  UNL1        0.0360
     48 H           2.9911   -0.9175   -1.3929 H       1  UNL1        0.1523
     49 H           3.8512   -3.4559   -1.6042 H       1  UNL1        0.0637
     50 H           5.2738   -5.0449   -0.3526 H       1  UNL1        0.0628
     51 H           4.4001   -3.0169    3.2492 H       1  UNL1        0.0657
@<TRIPOS>BOND
     1     1     2    2
     2     2     3   am
     3     3     4    1
     4     4     5    1
     5     5     6    1
     6     6     7    1
     7     2     8    1
     8     8     9   ar
     9     9    10   ar
    10    10    11    1
    11    11    12    1
    12    12    13    1
    13    13    14    1
    14    14    15    1
    15    15    16    1
    16    16    17    1
    17    17    18    2
    18    10    19   ar
    19    19    20    1
    20    19    21   ar
    21    21    22    1
    22    21    23   ar
    23    23    24    1
    24    24    25    1
    25    25    26   ar
    26    26    27   ar
    27    27    28   ar
    28    28    29    1
    29    28    30   ar
    30    30    31   ar
    31    31    32    1
    32    23     8   ar
    33    31    25   ar
    34    17    12   am
    35     3    33    1
    36     5    34    1
    37     5    35    1
    38     6    36    1
    39     6    37    1
    40     7    38    1
    41     9    39    1
    42    11    40    1
    43    11    41    1
    44    14    42    1
    45    14    43    1
    46    15    44    1
    47    15    45    1
    48    16    46    1
    49    16    47    1
    50    24    48    1
    51    26    49    1
    52    27    50    1
    53    30    51    1
