@<TRIPOS>MOLECULE
*****
 56 60 0 0 0
SMALL
GASTEIGER

@<TRIPOS>ATOM
      1 C          -2.0913    2.3424    2.1221 C.3     1  UNL1        0.0058
      2 N          -1.7646    1.1945    1.2989 N.am    1  UNL1       -0.2715
      3 C          -2.7024    0.1750    0.9738 C.2     1  UNL1        0.3163
      4 O          -3.8312   -0.0339    1.5165 O.2     1  UNL1       -0.2516
      5 N          -2.1781   -0.6282   -0.1063 N.am    1  UNL1       -0.1922
      6 C          -2.8695   -1.7498   -0.6834 C.ar    1  UNL1        0.0482
      7 C          -3.7126   -1.5762   -1.7684 C.ar    1  UNL1       -0.0214
      8 C          -4.3783   -2.6545   -2.3144 C.ar    1  UNL1        0.0441
      9 CL         -5.4358   -2.4072   -3.6861 Cl      1  UNL1       -0.0834
     10 C          -4.2376   -3.9426   -1.8120 C.ar    1  UNL1       -0.0249
     11 C          -3.3967   -4.1179   -0.7298 C.ar    1  UNL1        0.0441
     12 CL         -3.1484   -5.7023   -0.0185 Cl      1  UNL1       -0.0834
     13 C          -2.7344   -3.0291   -0.1905 C.ar    1  UNL1       -0.0214
     14 C          -0.9120   -0.0731   -0.4208 C.2     1  UNL1        0.2533
     15 O          -0.2784   -0.3347   -1.4520 O.2     1  UNL1       -0.2723
     16 C          -0.5368    0.8170    0.6635 C.3     1  UNL1        0.1390
     17 C           0.3025   -0.0847    1.6121 C.3     1  UNL1        0.0443
     18 N           1.5455   -0.1227    0.8288 N.pl3   1  UNL1       -0.3120
     19 C           2.4904   -1.1710    0.8872 C.ar    1  UNL1        0.1213
     20 C           2.2160   -2.3216    1.6126 C.ar    1  UNL1       -0.0209
     21 C           3.1638   -3.3131    1.6465 C.ar    1  UNL1       -0.0431
     22 C           4.3749   -3.2011    0.9834 C.ar    1  UNL1        0.0770
     23 C           5.3586   -4.2751    1.0404 C.2     1  UNL1        0.3383
     24 O           5.1376   -5.3357    1.6972 O.2     1  UNL1       -0.2451
     25 O           6.5477   -4.1005    0.3514 O.3     1  UNL1       -0.4771
     26 C           4.6113   -2.0404    0.2721 C.ar    1  UNL1        0.0437
     27 N           3.6597   -1.0782    0.2551 N.ar    1  UNL1       -0.2395
     28 C           1.6585    1.0601   -0.0099 C.3     1  UNL1        0.0229
     29 C           0.4324    1.8838    0.4291 C.3     1  UNL1        0.0314
     30 C           0.1370    3.0104   -0.4011 C.ar    1  UNL1       -0.0401
     31 C           0.7604    4.2271   -0.1241 C.ar    1  UNL1       -0.0570
     32 C           0.5404    5.3739   -0.8581 C.ar    1  UNL1       -0.0441
     33 C          -0.3467    5.3260   -1.9324 C.ar    1  UNL1        0.0518
     34 C          -0.6066    6.4968   -2.7424 C.1     1  UNL1        0.0992
     35 N          -0.8212    7.4418   -3.4076 N.1     1  UNL1       -0.1909
     36 C          -0.9643    4.1550   -2.2211 C.ar    1  UNL1       -0.0441
     37 C          -0.7175    3.0048   -1.4514 C.ar    1  UNL1       -0.0570
     38 H          -2.7921    2.0117    2.9399 H       1  UNL1        0.0429
     39 H          -2.6008    3.1435    1.5691 H       1  UNL1        0.0429
     40 H          -1.1818    2.6747    2.6559 H       1  UNL1        0.0429
     41 H          -3.8169   -0.5644   -2.1571 H       1  UNL1        0.0651
     42 H          -4.7551   -4.8021   -2.2303 H       1  UNL1        0.0647
     43 H          -2.0724   -3.1697    0.6618 H       1  UNL1        0.0651
     44 H           0.4234    0.3833    2.5839 H       1  UNL1        0.0490
     45 H          -0.1832   -1.0770    1.6434 H       1  UNL1        0.0490
     46 H           1.2940   -2.4398    2.1354 H       1  UNL1        0.0652
     47 H           3.0176   -4.2521    2.1980 H       1  UNL1        0.0627
     48 H           7.2767   -4.7979    0.4281 H       1  UNL1        0.2954
     49 H           5.5282   -1.8745   -0.2704 H       1  UNL1        0.0838
     50 H           2.5764    1.6128    0.3190 H       1  UNL1        0.0471
     51 H           1.6709    0.8437   -1.0723 H       1  UNL1        0.0471
     52 H           0.7702    2.2236    1.4774 H       1  UNL1        0.0390
     53 H           1.4612    4.2975    0.7052 H       1  UNL1        0.0621
     54 H           1.0233    6.3177   -0.6396 H       1  UNL1        0.0630
     55 H          -1.6653    4.1143   -3.0654 H       1  UNL1        0.0630
     56 H          -1.2465    2.1399   -1.7426 H       1  UNL1        0.0621
@<TRIPOS>BOND
     1     1     2    1
     2     2     3   am
     3     3     4    2
     4     3     5   am
     5     5     6    1
     6     6     7   ar
     7     7     8   ar
     8     8     9    1
     9     8    10   ar
    10    10    11   ar
    11    11    12    1
    12    11    13   ar
    13     5    14   am
    14    14    15    2
    15    14    16    1
    16    16    17    1
    17    17    18    1
    18    18    19    1
    19    19    20   ar
    20    20    21   ar
    21    21    22   ar
    22    22    23    1
    23    23    24    2
    24    23    25    1
    25    22    26   ar
    26    26    27   ar
    27    18    28    1
    28    28    29    1
    29    29    30    1
    30    30    31   ar
    31    31    32   ar
    32    32    33   ar
    33    33    34    1
    34    34    35    3
    35    33    36   ar
    36    36    37   ar
    37    16     2    1
    38    27    19   ar
    39    37    30   ar
    40    13     6   ar
    41    29    16    1
    42     1    38    1
    43     1    39    1
    44     1    40    1
    45     7    41    1
    46    10    42    1
    47    13    43    1
    48    17    44    1
    49    17    45    1
    50    20    46    1
    51    21    47    1
    52    25    48    1
    53    26    49    1
    54    28    50    1
    55    28    51    1
    56    29    52    1
    57    31    53    1
    58    32    54    1
    59    36    55    1
    60    37    56    1
