
     RDKit          3D

 56 60  0  0  0  0  0  0  0  0999 V2000
   -2.0913    2.3424    2.1221 C   0  0  0  0  0  0  0  0  0  0  0  0
   -1.7646    1.1945    1.2989 N   0  0  0  0  0  0  0  0  0  0  0  0
   -2.7024    0.1750    0.9738 C   0  0  0  0  0  0  0  0  0  0  0  0
   -3.8312   -0.0339    1.5165 O   0  0  0  0  0  0  0  0  0  0  0  0
   -2.1781   -0.6282   -0.1063 N   0  0  0  0  0  0  0  0  0  0  0  0
   -2.8695   -1.7498   -0.6834 C   0  0  0  0  0  0  0  0  0  0  0  0
   -3.7126   -1.5762   -1.7684 C   0  0  0  0  0  0  0  0  0  0  0  0
   -4.3783   -2.6545   -2.3144 C   0  0  0  0  0  0  0  0  0  0  0  0
   -5.4358   -2.4072   -3.6861 Cl  0  0  0  0  0  0  0  0  0  0  0  0
   -4.2376   -3.9426   -1.8120 C   0  0  0  0  0  0  0  0  0  0  0  0
   -3.3967   -4.1179   -0.7298 C   0  0  0  0  0  0  0  0  0  0  0  0
   -3.1484   -5.7023   -0.0185 Cl  0  0  0  0  0  0  0  0  0  0  0  0
   -2.7344   -3.0291   -0.1905 C   0  0  0  0  0  0  0  0  0  0  0  0
   -0.9120   -0.0731   -0.4208 C   0  0  0  0  0  0  0  0  0  0  0  0
   -0.2784   -0.3347   -1.4520 O   0  0  0  0  0  0  0  0  0  0  0  0
   -0.5368    0.8170    0.6635 C   0  0  2  0  0  0  0  0  0  0  0  0
    0.3025   -0.0847    1.6121 C   0  0  0  0  0  0  0  0  0  0  0  0
    1.5455   -0.1227    0.8288 N   0  0  0  0  0  0  0  0  0  0  0  0
    2.4904   -1.1710    0.8872 C   0  0  0  0  0  0  0  0  0  0  0  0
    2.2160   -2.3216    1.6126 C   0  0  0  0  0  0  0  0  0  0  0  0
    3.1638   -3.3131    1.6465 C   0  0  0  0  0  0  0  0  0  0  0  0
    4.3749   -3.2011    0.9834 C   0  0  0  0  0  0  0  0  0  0  0  0
    5.3586   -4.2751    1.0404 C   0  0  0  0  0  0  0  0  0  0  0  0
    5.1376   -5.3357    1.6972 O   0  0  0  0  0  0  0  0  0  0  0  0
    6.5477   -4.1005    0.3514 O   0  0  0  0  0  0  0  0  0  0  0  0
    4.6113   -2.0404    0.2721 C   0  0  0  0  0  0  0  0  0  0  0  0
    3.6597   -1.0782    0.2551 N   0  0  0  0  0  0  0  0  0  0  0  0
    1.6585    1.0601   -0.0099 C   0  0  0  0  0  0  0  0  0  0  0  0
    0.4324    1.8838    0.4291 C   0  0  1  0  0  0  0  0  0  0  0  0
    0.1370    3.0104   -0.4011 C   0  0  0  0  0  0  0  0  0  0  0  0
    0.7604    4.2271   -0.1241 C   0  0  0  0  0  0  0  0  0  0  0  0
    0.5404    5.3739   -0.8581 C   0  0  0  0  0  0  0  0  0  0  0  0
   -0.3467    5.3260   -1.9324 C   0  0  0  0  0  0  0  0  0  0  0  0
   -0.6066    6.4968   -2.7424 C   0  0  0  0  0  0  0  0  0  0  0  0
   -0.8212    7.4418   -3.4076 N   0  0  0  0  0  0  0  0  0  0  0  0
   -0.9643    4.1550   -2.2211 C   0  0  0  0  0  0  0  0  0  0  0  0
   -0.7175    3.0048   -1.4514 C   0  0  0  0  0  0  0  0  0  0  0  0
   -2.7921    2.0117    2.9399 H   0  0  0  0  0  0  0  0  0  0  0  0
   -2.6008    3.1435    1.5691 H   0  0  0  0  0  0  0  0  0  0  0  0
   -1.1818    2.6747    2.6559 H   0  0  0  0  0  0  0  0  0  0  0  0
   -3.8169   -0.5644   -2.1571 H   0  0  0  0  0  0  0  0  0  0  0  0
   -4.7551   -4.8021   -2.2303 H   0  0  0  0  0  0  0  0  0  0  0  0
   -2.0724   -3.1697    0.6618 H   0  0  0  0  0  0  0  0  0  0  0  0
    0.4234    0.3833    2.5839 H   0  0  0  0  0  0  0  0  0  0  0  0
   -0.1832   -1.0770    1.6434 H   0  0  0  0  0  0  0  0  0  0  0  0
    1.2940   -2.4398    2.1354 H   0  0  0  0  0  0  0  0  0  0  0  0
    3.0176   -4.2521    2.1980 H   0  0  0  0  0  0  0  0  0  0  0  0
    7.2767   -4.7979    0.4281 H   0  0  0  0  0  0  0  0  0  0  0  0
    5.5282   -1.8745   -0.2704 H   0  0  0  0  0  0  0  0  0  0  0  0
    2.5764    1.6128    0.3190 H   0  0  0  0  0  0  0  0  0  0  0  0
    1.6709    0.8437   -1.0723 H   0  0  0  0  0  0  0  0  0  0  0  0
    0.7702    2.2236    1.4774 H   0  0  0  0  0  0  0  0  0  0  0  0
    1.4612    4.2975    0.7052 H   0  0  0  0  0  0  0  0  0  0  0  0
    1.0233    6.3177   -0.6396 H   0  0  0  0  0  0  0  0  0  0  0  0
   -1.6653    4.1143   -3.0654 H   0  0  0  0  0  0  0  0  0  0  0  0
   -1.2465    2.1399   -1.7426 H   0  0  0  0  0  0  0  0  0  0  0  0
  1  2  1  0
  2  3  1  0
  3  4  2  0
  3  5  1  0
  5  6  1  0
  6  7  2  0
  7  8  1  0
  8  9  1  0
  8 10  2  0
 10 11  1  0
 11 12  1  0
 11 13  2  0
  5 14  1  0
 14 15  2  0
 14 16  1  0
 16 17  1  0
 17 18  1  0
 18 19  1  0
 19 20  2  0
 20 21  1  0
 21 22  2  0
 22 23  1  0
 23 24  2  0
 23 25  1  0
 22 26  1  0
 26 27  2  0
 18 28  1  0
 28 29  1  0
 29 30  1  0
 30 31  2  0
 31 32  1  0
 32 33  2  0
 33 34  1  0
 34 35  3  0
 33 36  1  0
 36 37  2  0
 16  2  1  1
 27 19  1  0
 37 30  1  0
 13  6  1  0
 29 16  1  0
  1 38  1  0
  1 39  1  0
  1 40  1  0
  7 41  1  0
 10 42  1  0
 13 43  1  0
 17 44  1  0
 17 45  1  0
 20 46  1  0
 21 47  1  0
 25 48  1  0
 26 49  1  0
 28 50  1  0
 28 51  1  0
 29 52  1  1
 31 53  1  0
 32 54  1  0
 36 55  1  0
 37 56  1  0
M  END
$$$$
