
     RDKit          3D

 50 54  0  0  0  0  0  0  0  0999 V2000
   -1.4827    0.5133   -2.0428 O   0  0  0  0  0  0  0  0  0  0  0  0
   -1.1540    0.9568   -0.9134 C   0  0  0  0  0  0  0  0  0  0  0  0
   -2.2252    1.3378   -0.0582 N   0  0  0  0  0  0  0  0  0  0  0  0
   -3.5871    1.2202   -0.4664 C   0  0  0  0  0  0  0  0  0  0  0  0
   -4.6617    2.0855    0.0463 C   0  0  0  0  0  0  0  0  0  0  0  0
   -4.5573    0.6476    0.5519 C   0  0  0  0  0  0  0  0  0  0  0  0
   -5.5876   -0.3170    0.0812 C   0  0  0  0  0  0  0  0  0  0  0  0
   -6.0352   -1.3637    0.8616 C   0  0  0  0  0  0  0  0  0  0  0  0
   -7.0022   -2.2543    0.3968 C   0  0  0  0  0  0  0  0  0  0  0  0
   -7.5482   -2.1215   -0.8631 C   0  0  0  0  0  0  0  0  0  0  0  0
   -7.0914   -1.0710   -1.6317 C   0  0  0  0  0  0  0  0  0  0  0  0
   -6.1280   -0.1763   -1.1804 C   0  0  0  0  0  0  0  0  0  0  0  0
    0.2088    1.0672   -0.5231 N   0  0  0  0  0  0  0  0  0  0  0  0
    0.6306    1.5625    0.7431 C   0  0  0  0  0  0  0  0  0  0  0  0
    1.9013    0.7911    1.1239 C   0  0  0  0  0  0  0  0  0  0  0  0
    2.9892    1.2888    0.2042 C   0  0  0  0  0  0  0  0  0  0  0  0
    4.2124    0.4768    0.3928 C   0  0  0  0  0  0  0  0  0  0  0  0
    5.4025    0.8947    0.8449 N   0  0  0  0  0  0  0  0  0  0  0  0
    6.2735   -0.1283    0.8803 C   0  0  0  0  0  0  0  0  0  0  0  0
    7.5918   -0.3094    1.2379 C   0  0  0  0  0  0  0  0  0  0  0  0
    8.2148   -1.5432    1.1515 C   0  0  0  0  0  0  0  0  0  0  0  0
    7.4486   -2.5992    0.6854 C   0  0  0  0  0  0  0  0  0  0  0  0
    6.1332   -2.4648    0.3182 C   0  0  0  0  0  0  0  0  0  0  0  0
    5.5423   -1.2275    0.4151 C   0  0  0  0  0  0  0  0  0  0  0  0
    4.3180   -0.8202    0.1361 O   0  0  0  0  0  0  0  0  0  0  0  0
    2.5486    1.3276   -1.2363 C   0  0  0  0  0  0  0  0  0  0  0  0
    1.2277    0.6508   -1.4706 C   0  0  0  0  0  0  0  0  0  0  0  0
   -2.0338    1.7176    0.9015 H   0  0  0  0  0  0  0  0  0  0  0  0
   -3.7436    0.8139   -1.4892 H   0  0  0  0  0  0  0  0  0  0  0  0
   -5.5066    2.3397   -0.6257 H   0  0  0  0  0  0  0  0  0  0  0  0
   -4.5055    2.8305    0.8398 H   0  0  0  0  0  0  0  0  0  0  0  0
   -4.1606    0.4806    1.5752 H   0  0  0  0  0  0  0  0  0  0  0  0
   -5.6085   -1.4777    1.8625 H   0  0  0  0  0  0  0  0  0  0  0  0
   -7.3392   -3.0682    1.0250 H   0  0  0  0  0  0  0  0  0  0  0  0
   -8.3017   -2.8068   -1.2387 H   0  0  0  0  0  0  0  0  0  0  0  0
   -7.5215   -0.9638   -2.6283 H   0  0  0  0  0  0  0  0  0  0  0  0
   -5.7886    0.6350   -1.7996 H   0  0  0  0  0  0  0  0  0  0  0  0
    0.9725    2.6355    0.6555 H   0  0  0  0  0  0  0  0  0  0  0  0
   -0.1062    1.5333    1.5412 H   0  0  0  0  0  0  0  0  0  0  0  0
    2.2043    0.9792    2.1558 H   0  0  0  0  0  0  0  0  0  0  0  0
    1.6922   -0.2814    0.8992 H   0  0  0  0  0  0  0  0  0  0  0  0
    3.2163    2.3317    0.5055 H   0  0  0  0  0  0  0  0  0  0  0  0
    8.1557    0.5342    1.5957 H   0  0  0  0  0  0  0  0  0  0  0  0
    9.2636   -1.6670    1.4406 H   0  0  0  0  0  0  0  0  0  0  0  0
    7.9583   -3.5657    0.6242 H   0  0  0  0  0  0  0  0  0  0  0  0
    5.5862   -3.3181   -0.0367 H   0  0  0  0  0  0  0  0  0  0  0  0
    3.3102    0.7710   -1.8235 H   0  0  0  0  0  0  0  0  0  0  0  0
    2.5233    2.3570   -1.6491 H   0  0  0  0  0  0  0  0  0  0  0  0
    0.8645    1.0087   -2.4790 H   0  0  0  0  0  0  0  0  0  0  0  0
    1.2861   -0.4402   -1.5370 H   0  0  0  0  0  0  0  0  0  0  0  0
  1  2  2  0
  2  3  1  0
  3  4  1  0
  4  5  1  0
  5  6  1  0
  6  7  1  0
  7  8  2  0
  8  9  1  0
  9 10  2  0
 10 11  1  0
 11 12  2  0
  2 13  1  0
 13 14  1  0
 14 15  1  0
 15 16  1  0
 16 17  1  0
 17 18  2  0
 18 19  1  0
 19 20  2  0
 20 21  1  0
 21 22  2  0
 22 23  1  0
 23 24  2  0
 24 25  1  0
 16 26  1  0
 26 27  1  0
  6  4  1  0
 12  7  1  0
 27 13  1  0
 25 17  1  0
 24 19  1  0
  3 28  1  0
  4 29  1  0
  5 30  1  0
  5 31  1  0
  6 32  1  0
  8 33  1  0
  9 34  1  0
 10 35  1  0
 11 36  1  0
 12 37  1  0
 14 38  1  0
 14 39  1  0
 15 40  1  0
 15 41  1  0
 16 42  1  0
 20 43  1  0
 21 44  1  0
 22 45  1  0
 23 46  1  0
 26 47  1  0
 26 48  1  0
 27 49  1  0
 27 50  1  0
M  END
$$$$
