@<TRIPOS>MOLECULE
*****
 50 54 0 0 0
SMALL
GASTEIGER

@<TRIPOS>ATOM
      1 O          -1.4827    0.5133   -2.0428 O.2     1  UNL1       -0.2526
      2 C          -1.1540    0.9568   -0.9134 C.2     1  UNL1        0.3024
      3 N          -2.2252    1.3378   -0.0582 N.am    1  UNL1       -0.2958
      4 C          -3.5871    1.2202   -0.4664 C.3     1  UNL1        0.0320
      5 C          -4.6617    2.0855    0.0463 C.3     1  UNL1       -0.0254
      6 C          -4.5573    0.6476    0.5519 C.3     1  UNL1        0.0043
      7 C          -5.5876   -0.3170    0.0812 C.ar    1  UNL1       -0.0425
      8 C          -6.0352   -1.3637    0.8616 C.ar    1  UNL1       -0.0582
      9 C          -7.0022   -2.2543    0.3968 C.ar    1  UNL1       -0.0615
     10 C          -7.5482   -2.1215   -0.8631 C.ar    1  UNL1       -0.0617
     11 C          -7.0914   -1.0710   -1.6317 C.ar    1  UNL1       -0.0615
     12 C          -6.1280   -0.1763   -1.1804 C.ar    1  UNL1       -0.0582
     13 N           0.2088    1.0672   -0.5231 N.am    1  UNL1       -0.2856
     14 C           0.6306    1.5625    0.7431 C.3     1  UNL1        0.0168
     15 C           1.9013    0.7911    1.1239 C.3     1  UNL1       -0.0258
     16 C           2.9892    1.2888    0.2042 C.3     1  UNL1        0.0384
     17 C           4.2124    0.4768    0.3928 C.ar    1  UNL1        0.1999
     18 N           5.4025    0.8947    0.8449 N.ar    1  UNL1       -0.2130
     19 C           6.2735   -0.1283    0.8803 C.ar    1  UNL1        0.1095
     20 C           7.5918   -0.3094    1.2379 C.ar    1  UNL1       -0.0326
     21 C           8.2148   -1.5432    1.1515 C.ar    1  UNL1       -0.0595
     22 C           7.4486   -2.5992    0.6854 C.ar    1  UNL1       -0.0582
     23 C           6.1332   -2.4648    0.3182 C.ar    1  UNL1       -0.0172
     24 C           5.5423   -1.2275    0.4151 C.ar    1  UNL1        0.1553
     25 O           4.3180   -0.8202    0.1361 O.2     1  UNL1       -0.4394
     26 C           2.5486    1.3276   -1.2363 C.3     1  UNL1       -0.0258
     27 C           1.2277    0.6508   -1.4706 C.3     1  UNL1        0.0168
     28 H          -2.0338    1.7176    0.9015 H       1  UNL1        0.1505
     29 H          -3.7436    0.8139   -1.4892 H       1  UNL1        0.0505
     30 H          -5.5066    2.3397   -0.6257 H       1  UNL1        0.0290
     31 H          -4.5055    2.8305    0.8398 H       1  UNL1        0.0290
     32 H          -4.1606    0.4806    1.5752 H       1  UNL1        0.0367
     33 H          -5.6085   -1.4777    1.8625 H       1  UNL1        0.0620
     34 H          -7.3392   -3.0682    1.0250 H       1  UNL1        0.0618
     35 H          -8.3017   -2.8068   -1.2387 H       1  UNL1        0.0618
     36 H          -7.5215   -0.9638   -2.6283 H       1  UNL1        0.0618
     37 H          -5.7886    0.6350   -1.7996 H       1  UNL1        0.0620
     38 H           0.9725    2.6355    0.6555 H       1  UNL1        0.0465
     39 H          -0.1062    1.5333    1.5412 H       1  UNL1        0.0465
     40 H           2.2043    0.9792    2.1558 H       1  UNL1        0.0288
     41 H           1.6922   -0.2814    0.8992 H       1  UNL1        0.0288
     42 H           3.2163    2.3317    0.5055 H       1  UNL1        0.0396
     43 H           8.1557    0.5342    1.5957 H       1  UNL1        0.0640
     44 H           9.2636   -1.6670    1.4406 H       1  UNL1        0.0618
     45 H           7.9583   -3.5657    0.6242 H       1  UNL1        0.0619
     46 H           5.5862   -3.3181   -0.0367 H       1  UNL1        0.0655
     47 H           3.3102    0.7710   -1.8235 H       1  UNL1        0.0288
     48 H           2.5233    2.3570   -1.6491 H       1  UNL1        0.0288
     49 H           0.8645    1.0087   -2.4790 H       1  UNL1        0.0465
     50 H           1.2861   -0.4402   -1.5370 H       1  UNL1        0.0465
@<TRIPOS>BOND
     1     1     2    2
     2     2     3   am
     3     3     4    1
     4     4     5    1
     5     5     6    1
     6     6     7    1
     7     7     8   ar
     8     8     9   ar
     9     9    10   ar
    10    10    11   ar
    11    11    12   ar
    12     2    13   am
    13    13    14    1
    14    14    15    1
    15    15    16    1
    16    16    17    1
    17    17    18   ar
    18    18    19   ar
    19    19    20   ar
    20    20    21   ar
    21    21    22   ar
    22    22    23   ar
    23    23    24   ar
    24    24    25   ar
    25    16    26    1
    26    26    27    1
    27     6     4    1
    28    12     7   ar
    29    27    13    1
    30    25    17   ar
    31    24    19   ar
    32     3    28    1
    33     4    29    1
    34     5    30    1
    35     5    31    1
    36     6    32    1
    37     8    33    1
    38     9    34    1
    39    10    35    1
    40    11    36    1
    41    12    37    1
    42    14    38    1
    43    14    39    1
    44    15    40    1
    45    15    41    1
    46    16    42    1
    47    20    43    1
    48    21    44    1
    49    22    45    1
    50    23    46    1
    51    26    47    1
    52    26    48    1
    53    27    49    1
    54    27    50    1
