
     RDKit          3D

 43 45  0  0  0  0  0  0  0  0999 V2000
    1.9797    1.0074   -2.1776 N   0  0  0  0  0  0  0  0  0  0  0  0
    1.7143    0.9295   -0.7282 C   0  0  1  0  0  0  0  0  0  0  0  0
    0.2710    0.6067   -0.6102 C   0  0  0  0  0  0  0  0  0  0  0  0
   -0.3034    0.4646    0.7223 C   0  0  0  0  0  0  0  0  0  0  0  0
    0.3748    0.6124    1.7696 O   0  0  0  0  0  0  0  0  0  0  0  0
   -1.6929    0.1458    0.8055 N   0  0  0  0  0  0  0  0  0  0  0  0
   -2.5209   -0.0437   -0.3879 C   0  0  0  0  0  0  0  0  0  0  0  0
   -3.6700   -0.9423    0.0216 C   0  0  0  0  0  0  0  0  0  0  0  0
   -4.4941   -0.1109    0.9123 N   0  0  0  0  0  0  0  0  0  0  0  0
   -3.7634    0.3562    1.9679 C   0  0  0  0  0  0  0  0  0  0  0  0
   -2.3132    0.0056    2.1103 C   0  0  0  0  0  0  0  0  0  0  0  0
   -4.6611    1.0916    2.6712 N   0  0  0  0  0  0  0  0  0  0  0  0
   -5.8188    1.0481    2.0630 N   0  0  0  0  0  0  0  0  0  0  0  0
   -5.7613    0.3068    0.9579 C   0  0  0  0  0  0  0  0  0  0  0  0
   -6.7294   -0.0871   -0.0961 C   0  0  0  0  0  0  0  0  0  0  0  0
   -6.7024    0.8597   -1.1256 F   0  0  0  0  0  0  0  0  0  0  0  0
   -6.4978   -1.3582   -0.5777 F   0  0  0  0  0  0  0  0  0  0  0  0
   -7.9952   -0.0162    0.4511 F   0  0  0  0  0  0  0  0  0  0  0  0
    2.6335   -0.0911   -0.1976 C   0  0  0  0  0  0  0  0  0  0  0  0
    4.0525    0.0841   -0.3299 C   0  0  0  0  0  0  0  0  0  0  0  0
    4.7761   -1.0411    0.1003 C   0  0  0  0  0  0  0  0  0  0  0  0
    6.1642   -1.0613    0.0463 C   0  0  0  0  0  0  0  0  0  0  0  0
    6.9027   -2.1130    0.4460 F   0  0  0  0  0  0  0  0  0  0  0  0
    6.8381    0.0368   -0.4357 C   0  0  0  0  0  0  0  0  0  0  0  0
    8.1923    0.0458   -0.5001 F   0  0  0  0  0  0  0  0  0  0  0  0
    6.1742    1.1507   -0.8639 C   0  0  0  0  0  0  0  0  0  0  0  0
    4.7968    1.1183   -0.7887 C   0  0  0  0  0  0  0  0  0  0  0  0
    4.0940    2.1920   -1.1945 F   0  0  0  0  0  0  0  0  0  0  0  0
    1.3607    1.7058   -2.6220 H   0  0  0  0  0  0  0  0  0  0  0  0
    1.7623    0.0266   -2.5119 H   0  0  0  0  0  0  0  0  0  0  0  0
    1.8931    1.8975   -0.2194 H   0  0  0  0  0  0  0  0  0  0  0  0
   -0.3550    1.3469   -1.1530 H   0  0  0  0  0  0  0  0  0  0  0  0
    0.0292   -0.3654   -1.1387 H   0  0  0  0  0  0  0  0  0  0  0  0
   -2.9923    0.9281   -0.6639 H   0  0  0  0  0  0  0  0  0  0  0  0
   -2.0035   -0.5502   -1.2006 H   0  0  0  0  0  0  0  0  0  0  0  0
   -3.2663   -1.7452    0.6601 H   0  0  0  0  0  0  0  0  0  0  0  0
   -4.2150   -1.3182   -0.8397 H   0  0  0  0  0  0  0  0  0  0  0  0
   -2.2009   -1.0477    2.4241 H   0  0  0  0  0  0  0  0  0  0  0  0
   -1.8936    0.7428    2.8174 H   0  0  0  0  0  0  0  0  0  0  0  0
    2.4220   -0.1985    0.9036 H   0  0  0  0  0  0  0  0  0  0  0  0
    2.3749   -1.0562   -0.7297 H   0  0  0  0  0  0  0  0  0  0  0  0
    4.3558   -1.9551    0.4938 H   0  0  0  0  0  0  0  0  0  0  0  0
    6.6882    2.0361   -1.2516 H   0  0  0  0  0  0  0  0  0  0  0  0
  1  2  1  0
  2  3  1  0
  3  4  1  0
  4  5  2  0
  4  6  1  0
  6  7  1  0
  7  8  1  0
  8  9  1  0
  9 10  1  0
 10 11  1  0
 10 12  2  0
 12 13  1  0
 13 14  2  0
 14 15  1  0
 15 16  1  0
 15 17  1  0
 15 18  1  0
  2 19  1  0
 19 20  1  0
 20 21  2  0
 21 22  1  0
 22 23  1  0
 22 24  2  0
 24 25  1  0
 24 26  1  0
 26 27  2  0
 27 28  1  0
 11  6  1  0
 27 20  1  0
 14  9  1  0
  1 29  1  0
  1 30  1  0
  2 31  1  1
  3 32  1  0
  3 33  1  0
  7 34  1  0
  7 35  1  0
  8 36  1  0
  8 37  1  0
 11 38  1  0
 11 39  1  0
 19 40  1  0
 19 41  1  0
 21 42  1  0
 26 43  1  0
M  END
$$$$
