
     RDKit          3D

 46 46  0  0  0  0  0  0  0  0999 V2000
    6.2666   -0.6229    0.7003 C   0  0  0  0  0  0  0  0  0  0  0  0
    5.8919    1.0829    0.1386 S   0  0  0  0  0  0  0  0  0  0  0  0
    4.3893    1.7421    0.7882 C   0  0  0  0  0  0  0  0  0  0  0  0
    3.1017    1.4302    0.2109 C   0  0  0  0  0  0  0  0  0  0  0  0
    2.5987    0.0584   -0.0547 C   0  0  1  0  0  0  0  0  0  0  0  0
    1.1666    0.2050   -0.4601 N   0  0  0  0  0  0  0  0  0  0  0  0
    0.2078   -0.5166    0.2534 C   0  0  0  0  0  0  0  0  0  0  0  0
    0.5479   -1.2559    1.1957 O   0  0  0  0  0  0  0  0  0  0  0  0
   -1.2162   -0.4052   -0.1080 C   0  0  1  0  0  0  0  0  0  0  0  0
   -2.0306   -1.3071    0.7425 C   0  0  0  0  0  0  0  0  0  0  0  0
   -1.5957   -2.7024    0.5279 C   0  0  0  0  0  0  0  0  0  0  0  0
   -0.7061   -2.9482   -0.3155 O   0  0  0  0  0  0  0  0  0  0  0  0
   -2.1593   -3.7864    1.2544 N   0  0  0  0  0  0  0  0  0  0  0  0
   -1.7178   -5.0540    1.0136 O   0  0  0  0  0  0  0  0  0  0  0  0
   -1.5825    1.0538    0.0213 C   0  0  0  0  0  0  0  0  0  0  0  0
   -2.9706    1.3563   -0.3016 C   0  0  0  0  0  0  0  0  0  0  0  0
   -3.9375    1.3217    0.6710 C   0  0  0  0  0  0  0  0  0  0  0  0
   -5.2434    1.6154    0.3296 C   0  0  0  0  0  0  0  0  0  0  0  0
   -5.6122    1.9437   -0.9593 C   0  0  0  0  0  0  0  0  0  0  0  0
   -4.6465    1.9784   -1.9316 C   0  0  0  0  0  0  0  0  0  0  0  0
   -3.3223    1.6816   -1.5906 C   0  0  0  0  0  0  0  0  0  0  0  0
    3.1975   -0.4218   -1.3515 C   0  0  0  0  0  0  0  0  0  0  0  0
    4.3823   -0.6591   -1.4782 O   0  0  0  0  0  0  0  0  0  0  0  0
    2.3294   -0.5957   -2.4477 O   0  0  0  0  0  0  0  0  0  0  0  0
    6.7534   -1.1630   -0.1218 H   0  0  0  0  0  0  0  0  0  0  0  0
    6.9330   -0.4995    1.5896 H   0  0  0  0  0  0  0  0  0  0  0  0
    5.3405   -1.1224    1.0528 H   0  0  0  0  0  0  0  0  0  0  0  0
    4.5394    2.9020    0.7967 H   0  0  0  0  0  0  0  0  0  0  0  0
    4.3793    1.5386    1.9352 H   0  0  0  0  0  0  0  0  0  0  0  0
    2.9690    2.0582   -0.7531 H   0  0  0  0  0  0  0  0  0  0  0  0
    2.2987    1.9598    0.8624 H   0  0  0  0  0  0  0  0  0  0  0  0
    2.7280   -0.6077    0.7780 H   0  0  0  0  0  0  0  0  0  0  0  0
    0.9745    0.8331   -1.2457 H   0  0  0  0  0  0  0  0  0  0  0  0
   -1.3032   -0.7413   -1.1665 H   0  0  0  0  0  0  0  0  0  0  0  0
   -3.1206   -1.2826    0.5030 H   0  0  0  0  0  0  0  0  0  0  0  0
   -1.8757   -1.1131    1.8457 H   0  0  0  0  0  0  0  0  0  0  0  0
   -2.8935   -3.6452    1.9602 H   0  0  0  0  0  0  0  0  0  0  0  0
   -1.7044   -5.1941    0.0191 H   0  0  0  0  0  0  0  0  0  0  0  0
   -1.3193    1.4072    1.0397 H   0  0  0  0  0  0  0  0  0  0  0  0
   -0.8671    1.6040   -0.6590 H   0  0  0  0  0  0  0  0  0  0  0  0
   -3.7143    1.0687    1.7140 H   0  0  0  0  0  0  0  0  0  0  0  0
   -6.0154    1.5903    1.0943 H   0  0  0  0  0  0  0  0  0  0  0  0
   -6.6556    2.1752   -1.2173 H   0  0  0  0  0  0  0  0  0  0  0  0
   -4.9411    2.2365   -2.9391 H   0  0  0  0  0  0  0  0  0  0  0  0
   -2.6117    1.7275   -2.4036 H   0  0  0  0  0  0  0  0  0  0  0  0
    2.7671   -0.9264   -3.3354 H   0  0  0  0  0  0  0  0  0  0  0  0
  1  2  1  0
  2  3  1  0
  3  4  1  0
  4  5  1  0
  5  6  1  0
  6  7  1  0
  7  8  2  0
  7  9  1  0
  9 10  1  0
 10 11  1  0
 11 12  2  0
 11 13  1  0
 13 14  1  0
  9 15  1  0
 15 16  1  0
 16 17  2  0
 17 18  1  0
 18 19  2  0
 19 20  1  0
 20 21  2  0
  5 22  1  0
 22 23  2  0
 22 24  1  0
 21 16  1  0
  1 25  1  0
  1 26  1  0
  1 27  1  0
  3 28  1  0
  3 29  1  0
  4 30  1  0
  4 31  1  0
  5 32  1  1
  6 33  1  0
  9 34  1  6
 10 35  1  0
 10 36  1  0
 13 37  1  0
 14 38  1  0
 15 39  1  0
 15 40  1  0
 17 41  1  0
 18 42  1  0
 19 43  1  0
 20 44  1  0
 21 45  1  0
 24 46  1  0
M  END
$$$$
