@<TRIPOS>MOLECULE
*****
 46 46 0 0 0
SMALL
GASTEIGER

@<TRIPOS>ATOM
      1 CE          6.2666   -0.6229    0.7003 C.3     1  MET1       -0.0181
      2 SD          5.8919    1.0829    0.1386 S.3     1  MET1       -0.1641
      3 CG          4.3893    1.7421    0.7882 C.3     1  MET1       -0.0044
      4 CB          3.1017    1.4302    0.2109 C.3     1  MET1       -0.0151
      5 CA          2.5987    0.0584   -0.0547 C.3     1  MET1        0.1210
      6 N           1.1666    0.2050   -0.4601 N.am    1  MET1       -0.3021
      7 C           0.2078   -0.5166    0.2534 C.2     0  UNK0        0.2175
      8 O           0.5479   -1.2559    1.1957 O.2     0  UNK0       -0.2755
      9 C          -1.2162   -0.4052   -0.1080 C.3     0  UNK0        0.0478
     10 C          -2.0306   -1.3071    0.7425 C.3     0  UNK0        0.0373
     11 C          -1.5957   -2.7024    0.5279 C.2     0  UNK0        0.2362
     12 O          -0.7061   -2.9482   -0.3155 O.2     0  UNK0       -0.2737
     13 N          -2.1593   -3.7864    1.2544 N.am    0  UNK0       -0.1975
     14 O          -1.7178   -5.0540    1.0136 O.3     0  UNK0       -0.2952
     15 C          -1.5825    1.0538    0.0213 C.3     0  UNK0       -0.0161
     16 C          -2.9706    1.3563   -0.3016 C.ar    0  UNK0       -0.0466
     17 C          -3.9375    1.3217    0.6710 C.ar    0  UNK0       -0.0586
     18 C          -5.2434    1.6154    0.3296 C.ar    0  UNK0       -0.0615
     19 C          -5.6122    1.9437   -0.9593 C.ar    0  UNK0       -0.0617
     20 C          -4.6465    1.9784   -1.9316 C.ar    0  UNK0       -0.0615
     21 C          -3.3223    1.6816   -1.5906 C.ar    0  UNK0       -0.0586
     22 C           3.1975   -0.4218   -1.3515 C.2     1  MET1        0.3253
     23 O           4.3823   -0.6591   -1.4782 O.2     1  MET1       -0.2489
     24 OXT         2.3294   -0.5957   -2.4477 O.3     1  MET1       -0.4793
     25 HE1         6.7534   -1.1630   -0.1218 H       1  MET1        0.0340
     26 HE2         6.9330   -0.4995    1.5896 H       1  MET1        0.0340
     27 HE3         5.3405   -1.1224    1.0528 H       1  MET1        0.0340
     28 HG1         4.5394    2.9020    0.7967 H       1  MET1        0.0377
     29 HG2         4.3793    1.5386    1.9352 H       1  MET1        0.0377
     30 HB1         2.9690    2.0582   -0.7531 H       1  MET1        0.0296
     31 HB2         2.2987    1.9598    0.8624 H       1  MET1        0.0296
     32 HA          2.7280   -0.6077    0.7780 H       1  MET1        0.0614
     33 H           0.9745    0.8331   -1.2457 H       1  MET1        0.1495
     34 H          -1.3032   -0.7413   -1.1665 H       0  UNK0        0.0402
     35 H          -3.1206   -1.2826    0.5030 H       0  UNK0        0.0366
     36 H          -1.8757   -1.1131    1.8457 H       0  UNK0        0.0366
     37 H          -2.8935   -3.6452    1.9602 H       0  UNK0        0.1822
     38 H          -1.7044   -5.1941    0.0191 H       0  UNK0        0.2414
     39 H          -1.3193    1.4072    1.0397 H       0  UNK0        0.0321
     40 H          -0.8671    1.6040   -0.6590 H       0  UNK0        0.0321
     41 H          -3.7143    1.0687    1.7140 H       0  UNK0        0.0620
     42 H          -6.0154    1.5903    1.0943 H       0  UNK0        0.0618
     43 H          -6.6556    2.1752   -1.2173 H       0  UNK0        0.0618
     44 H          -4.9411    2.2365   -2.9391 H       0  UNK0        0.0618
     45 H          -2.6117    1.7275   -2.4036 H       0  UNK0        0.0620
     46 HXT         2.7671   -0.9264   -3.3354 H       1  MET1        0.2951
@<TRIPOS>BOND
     1     1     2    1
     2     2     3    1
     3     3     4    1
     4     4     5    1
     5     5     6    1
     6     6     7   am
     7     7     8    2
     8     7     9    1
     9     9    10    1
    10    10    11    1
    11    11    12    2
    12    11    13   am
    13    13    14    1
    14     9    15    1
    15    15    16    1
    16    16    17   ar
    17    17    18   ar
    18    18    19   ar
    19    19    20   ar
    20    20    21   ar
    21     5    22    1
    22    22    23    2
    23    22    24    1
    24    21    16   ar
    25     1    25    1
    26     1    26    1
    27     1    27    1
    28     3    28    1
    29     3    29    1
    30     4    30    1
    31     4    31    1
    32     5    32    1
    33     6    33    1
    34     9    34    1
    35    10    35    1
    36    10    36    1
    37    13    37    1
    38    14    38    1
    39    15    39    1
    40    15    40    1
    41    17    41    1
    42    18    42    1
    43    19    43    1
    44    20    44    1
    45    21    45    1
    46    24    46    1
