@<TRIPOS>MOLECULE
*****
 70 73 0 0 0
SMALL
GASTEIGER

@<TRIPOS>ATOM
      1 C          -7.4727   -4.2966   -0.5121 C.3     1  UNL1       -0.0652
      2 C          -7.5755   -3.1837    0.5077 C.3     1  UNL1       -0.0545
      3 C          -6.6495   -2.0665    0.0566 C.3     1  UNL1       -0.0376
      4 C          -6.6927   -0.9116    1.0231 C.3     1  UNL1        0.0118
      5 N          -5.8167    0.1301    0.5795 N.pl3   1  UNL1       -0.3134
      6 C          -4.4118   -0.0426    0.4600 C.ar    1  UNL1        0.2169
      7 N          -3.8084   -1.1922    0.7721 N.ar    1  UNL1       -0.2221
      8 C          -2.4774   -1.3743    0.6660 C.ar    1  UNL1        0.0466
      9 C          -1.6747   -0.3221    0.2099 C.ar    1  UNL1        0.0948
     10 C          -0.2377   -0.5309    0.1036 C.2     1  UNL1        0.2530
     11 O           0.5813    0.3657   -0.2908 O.2     1  UNL1       -0.2697
     12 N           0.3967   -1.7586    0.4299 N.am    1  UNL1       -0.2814
     13 C           1.8321   -1.8783    0.2948 C.ar    1  UNL1        0.0338
     14 C           2.6573   -1.5642    1.3534 C.ar    1  UNL1       -0.0386
     15 C           4.0438   -1.6743    1.2380 C.ar    1  UNL1       -0.0336
     16 C           4.6186   -2.1022    0.0551 C.ar    1  UNL1        0.1056
     17 S           6.3508   -2.2536   -0.1339 S.O2    1  UNL1        0.0610
     18 O           6.6360   -3.3294   -1.1351 O.2     1  UNL1       -0.1528
     19 O           6.9093   -2.6560    1.1973 O.2     1  UNL1       -0.1528
     20 N           6.9669   -0.7836   -0.7160 N.3     1  UNL1       -0.1722
     21 C           6.7765    0.3450    0.1249 C.3     1  UNL1        0.0440
     22 C           7.9205    0.6996    1.0130 C.3     1  UNL1        0.0621
     23 O           9.1654    0.5753    0.4296 O.3     1  UNL1       -0.3771
     24 C           9.3285   -0.6387   -0.2323 C.3     1  UNL1        0.0621
     25 C           8.2752   -0.8483   -1.2740 C.3     1  UNL1        0.0440
     26 C           3.7877   -2.4172   -1.0066 C.ar    1  UNL1       -0.0336
     27 C           2.4170   -2.3038   -0.8789 C.ar    1  UNL1       -0.0386
     28 C          -2.2789    0.8651   -0.1149 C.ar    1  UNL1        0.1363
     29 N          -1.5589    1.9967   -0.5978 N.pl3   1  UNL1       -0.3253
     30 C          -2.2711    3.2384   -0.9084 C.3     1  UNL1        0.0261
     31 C          -2.9049    3.8174    0.3305 C.3     1  UNL1       -0.0109
     32 C          -3.6446    5.0830   -0.1039 C.3     1  UNL1        0.0493
     33 O          -2.7711    5.9762   -0.6735 O.3     1  UNL1       -0.3796
     34 C          -2.2025    5.4807   -1.8424 C.3     1  UNL1        0.0493
     35 C          -1.3513    4.2895   -1.4861 C.3     1  UNL1       -0.0109
     36 N          -3.6254    0.9510    0.0256 N.ar    1  UNL1       -0.1990
     37 H          -8.0774   -4.0192   -1.3830 H       1  UNL1        0.0230
     38 H          -6.4069   -4.3096   -0.8638 H       1  UNL1        0.0230
     39 H          -7.7620   -5.2784   -0.0829 H       1  UNL1        0.0230
     40 H          -8.6090   -2.8232    0.6444 H       1  UNL1        0.0263
     41 H          -7.2333   -3.5551    1.5029 H       1  UNL1        0.0263
     42 H          -6.9542   -1.7118   -0.9503 H       1  UNL1        0.0280
     43 H          -5.6244   -2.4489   -0.0274 H       1  UNL1        0.0280
     44 H          -6.3743   -1.3385    2.0158 H       1  UNL1        0.0462
     45 H          -7.7320   -0.5553    1.1762 H       1  UNL1        0.0462
     46 H          -6.2569    1.0556    0.3371 H       1  UNL1        0.1489
     47 H          -2.0282   -2.3290    0.9319 H       1  UNL1        0.0839
     48 H          -0.1558   -2.5626    0.7610 H       1  UNL1        0.1551
     49 H           2.2745   -1.2238    2.3055 H       1  UNL1        0.0637
     50 H           4.7041   -1.4296    2.0654 H       1  UNL1        0.0638
     51 H           5.8747    0.1991    0.7487 H       1  UNL1        0.0466
     52 H           6.5586    1.2457   -0.5149 H       1  UNL1        0.0466
     53 H           7.8337    0.1675    1.9832 H       1  UNL1        0.0573
     54 H           7.8104    1.7928    1.2781 H       1  UNL1        0.0573
     55 H          10.3141   -0.5944   -0.7442 H       1  UNL1        0.0573
     56 H           9.4017   -1.4916    0.4825 H       1  UNL1        0.0573
     57 H           8.3837   -0.0233   -2.0212 H       1  UNL1        0.0466
     58 H           8.4750   -1.8029   -1.7873 H       1  UNL1        0.0466
     59 H           4.2415   -2.7531   -1.9347 H       1  UNL1        0.0638
     60 H           1.8161   -2.5605   -1.7327 H       1  UNL1        0.0637
     61 H          -0.5494    2.0299   -0.7580 H       1  UNL1        0.1478
     62 H          -3.0900    3.0283   -1.6509 H       1  UNL1        0.0499
     63 H          -2.0636    4.1573    0.9882 H       1  UNL1        0.0305
     64 H          -3.5975    3.1512    0.8329 H       1  UNL1        0.0305
     65 H          -4.0777    5.5542    0.8055 H       1  UNL1        0.0560
     66 H          -4.4541    4.7503   -0.7864 H       1  UNL1        0.0560
     67 H          -2.9225    5.2034   -2.6111 H       1  UNL1        0.0560
     68 H          -1.5234    6.2641   -2.2305 H       1  UNL1        0.0560
     69 H          -0.6792    4.6084   -0.6391 H       1  UNL1        0.0305
     70 H          -0.7542    3.9184   -2.3425 H       1  UNL1        0.0305
@<TRIPOS>BOND
     1     1     2    1
     2     2     3    1
     3     3     4    1
     4     4     5    1
     5     5     6    1
     6     6     7   ar
     7     7     8   ar
     8     8     9   ar
     9     9    10    1
    10    10    11    2
    11    10    12   am
    12    12    13    1
    13    13    14   ar
    14    14    15   ar
    15    15    16   ar
    16    16    17    1
    17    17    18    2
    18    17    19    2
    19    17    20    1
    20    20    21    1
    21    21    22    1
    22    22    23    1
    23    23    24    1
    24    24    25    1
    25    16    26   ar
    26    26    27   ar
    27     9    28   ar
    28    28    29    1
    29    29    30    1
    30    30    31    1
    31    31    32    1
    32    32    33    1
    33    33    34    1
    34    34    35    1
    35    28    36   ar
    36    36     6   ar
    37    27    13   ar
    38    35    30    1
    39    25    20    1
    40     1    37    1
    41     1    38    1
    42     1    39    1
    43     2    40    1
    44     2    41    1
    45     3    42    1
    46     3    43    1
    47     4    44    1
    48     4    45    1
    49     5    46    1
    50     8    47    1
    51    12    48    1
    52    14    49    1
    53    15    50    1
    54    21    51    1
    55    21    52    1
    56    22    53    1
    57    22    54    1
    58    24    55    1
    59    24    56    1
    60    25    57    1
    61    25    58    1
    62    26    59    1
    63    27    60    1
    64    29    61    1
    65    30    62    1
    66    31    63    1
    67    31    64    1
    68    32    65    1
    69    32    66    1
    70    34    67    1
    71    34    68    1
    72    35    69    1
    73    35    70    1
