
     RDKit          3D

 70 73  0  0  0  0  0  0  0  0999 V2000
   -7.4727   -4.2966   -0.5121 C   0  0  0  0  0  0  0  0  0  0  0  0
   -7.5755   -3.1837    0.5077 C   0  0  0  0  0  0  0  0  0  0  0  0
   -6.6495   -2.0665    0.0566 C   0  0  0  0  0  0  0  0  0  0  0  0
   -6.6927   -0.9116    1.0231 C   0  0  0  0  0  0  0  0  0  0  0  0
   -5.8167    0.1301    0.5795 N   0  0  0  0  0  0  0  0  0  0  0  0
   -4.4118   -0.0426    0.4600 C   0  0  0  0  0  0  0  0  0  0  0  0
   -3.8084   -1.1922    0.7721 N   0  0  0  0  0  0  0  0  0  0  0  0
   -2.4774   -1.3743    0.6660 C   0  0  0  0  0  0  0  0  0  0  0  0
   -1.6747   -0.3221    0.2099 C   0  0  0  0  0  0  0  0  0  0  0  0
   -0.2377   -0.5309    0.1036 C   0  0  0  0  0  0  0  0  0  0  0  0
    0.5813    0.3657   -0.2908 O   0  0  0  0  0  0  0  0  0  0  0  0
    0.3967   -1.7586    0.4299 N   0  0  0  0  0  0  0  0  0  0  0  0
    1.8321   -1.8783    0.2948 C   0  0  0  0  0  0  0  0  0  0  0  0
    2.6573   -1.5642    1.3534 C   0  0  0  0  0  0  0  0  0  0  0  0
    4.0438   -1.6743    1.2380 C   0  0  0  0  0  0  0  0  0  0  0  0
    4.6186   -2.1022    0.0551 C   0  0  0  0  0  0  0  0  0  0  0  0
    6.3508   -2.2536   -0.1339 S   0  0  0  0  0  6  0  0  0  0  0  0
    6.6360   -3.3294   -1.1351 O   0  0  0  0  0  0  0  0  0  0  0  0
    6.9093   -2.6560    1.1973 O   0  0  0  0  0  0  0  0  0  0  0  0
    6.9669   -0.7836   -0.7160 N   0  0  0  0  0  0  0  0  0  0  0  0
    6.7765    0.3450    0.1249 C   0  0  0  0  0  0  0  0  0  0  0  0
    7.9205    0.6996    1.0130 C   0  0  0  0  0  0  0  0  0  0  0  0
    9.1654    0.5753    0.4296 O   0  0  0  0  0  0  0  0  0  0  0  0
    9.3285   -0.6387   -0.2323 C   0  0  0  0  0  0  0  0  0  0  0  0
    8.2752   -0.8483   -1.2740 C   0  0  0  0  0  0  0  0  0  0  0  0
    3.7877   -2.4172   -1.0066 C   0  0  0  0  0  0  0  0  0  0  0  0
    2.4170   -2.3038   -0.8789 C   0  0  0  0  0  0  0  0  0  0  0  0
   -2.2789    0.8651   -0.1149 C   0  0  0  0  0  0  0  0  0  0  0  0
   -1.5589    1.9967   -0.5978 N   0  0  0  0  0  0  0  0  0  0  0  0
   -2.2711    3.2384   -0.9084 C   0  0  0  0  0  0  0  0  0  0  0  0
   -2.9049    3.8174    0.3305 C   0  0  0  0  0  0  0  0  0  0  0  0
   -3.6446    5.0830   -0.1039 C   0  0  0  0  0  0  0  0  0  0  0  0
   -2.7711    5.9762   -0.6735 O   0  0  0  0  0  0  0  0  0  0  0  0
   -2.2025    5.4807   -1.8424 C   0  0  0  0  0  0  0  0  0  0  0  0
   -1.3513    4.2895   -1.4861 C   0  0  0  0  0  0  0  0  0  0  0  0
   -3.6254    0.9510    0.0256 N   0  0  0  0  0  0  0  0  0  0  0  0
   -8.0774   -4.0192   -1.3830 H   0  0  0  0  0  0  0  0  0  0  0  0
   -6.4069   -4.3096   -0.8638 H   0  0  0  0  0  0  0  0  0  0  0  0
   -7.7620   -5.2784   -0.0829 H   0  0  0  0  0  0  0  0  0  0  0  0
   -8.6090   -2.8232    0.6444 H   0  0  0  0  0  0  0  0  0  0  0  0
   -7.2333   -3.5551    1.5029 H   0  0  0  0  0  0  0  0  0  0  0  0
   -6.9542   -1.7118   -0.9503 H   0  0  0  0  0  0  0  0  0  0  0  0
   -5.6244   -2.4489   -0.0274 H   0  0  0  0  0  0  0  0  0  0  0  0
   -6.3743   -1.3385    2.0158 H   0  0  0  0  0  0  0  0  0  0  0  0
   -7.7320   -0.5553    1.1762 H   0  0  0  0  0  0  0  0  0  0  0  0
   -6.2569    1.0556    0.3371 H   0  0  0  0  0  0  0  0  0  0  0  0
   -2.0282   -2.3290    0.9319 H   0  0  0  0  0  0  0  0  0  0  0  0
   -0.1558   -2.5626    0.7610 H   0  0  0  0  0  0  0  0  0  0  0  0
    2.2745   -1.2238    2.3055 H   0  0  0  0  0  0  0  0  0  0  0  0
    4.7041   -1.4296    2.0654 H   0  0  0  0  0  0  0  0  0  0  0  0
    5.8747    0.1991    0.7487 H   0  0  0  0  0  0  0  0  0  0  0  0
    6.5586    1.2457   -0.5149 H   0  0  0  0  0  0  0  0  0  0  0  0
    7.8337    0.1675    1.9832 H   0  0  0  0  0  0  0  0  0  0  0  0
    7.8104    1.7928    1.2781 H   0  0  0  0  0  0  0  0  0  0  0  0
   10.3141   -0.5944   -0.7442 H   0  0  0  0  0  0  0  0  0  0  0  0
    9.4017   -1.4916    0.4825 H   0  0  0  0  0  0  0  0  0  0  0  0
    8.3837   -0.0233   -2.0212 H   0  0  0  0  0  0  0  0  0  0  0  0
    8.4750   -1.8029   -1.7873 H   0  0  0  0  0  0  0  0  0  0  0  0
    4.2415   -2.7531   -1.9347 H   0  0  0  0  0  0  0  0  0  0  0  0
    1.8161   -2.5605   -1.7327 H   0  0  0  0  0  0  0  0  0  0  0  0
   -0.5494    2.0299   -0.7580 H   0  0  0  0  0  0  0  0  0  0  0  0
   -3.0900    3.0283   -1.6509 H   0  0  0  0  0  0  0  0  0  0  0  0
   -2.0636    4.1573    0.9882 H   0  0  0  0  0  0  0  0  0  0  0  0
   -3.5975    3.1512    0.8329 H   0  0  0  0  0  0  0  0  0  0  0  0
   -4.0777    5.5542    0.8055 H   0  0  0  0  0  0  0  0  0  0  0  0
   -4.4541    4.7503   -0.7864 H   0  0  0  0  0  0  0  0  0  0  0  0
   -2.9225    5.2034   -2.6111 H   0  0  0  0  0  0  0  0  0  0  0  0
   -1.5234    6.2641   -2.2305 H   0  0  0  0  0  0  0  0  0  0  0  0
   -0.6792    4.6084   -0.6391 H   0  0  0  0  0  0  0  0  0  0  0  0
   -0.7542    3.9184   -2.3425 H   0  0  0  0  0  0  0  0  0  0  0  0
  1  2  1  0
  2  3  1  0
  3  4  1  0
  4  5  1  0
  5  6  1  0
  6  7  2  0
  7  8  1  0
  8  9  2  0
  9 10  1  0
 10 11  2  0
 10 12  1  0
 12 13  1  0
 13 14  2  0
 14 15  1  0
 15 16  2  0
 16 17  1  0
 17 18  2  0
 17 19  2  0
 17 20  1  0
 20 21  1  0
 21 22  1  0
 22 23  1  0
 23 24  1  0
 24 25  1  0
 16 26  1  0
 26 27  2  0
  9 28  1  0
 28 29  1  0
 29 30  1  0
 30 31  1  0
 31 32  1  0
 32 33  1  0
 33 34  1  0
 34 35  1  0
 28 36  2  0
 36  6  1  0
 27 13  1  0
 35 30  1  0
 25 20  1  0
  1 37  1  0
  1 38  1  0
  1 39  1  0
  2 40  1  0
  2 41  1  0
  3 42  1  0
  3 43  1  0
  4 44  1  0
  4 45  1  0
  5 46  1  0
  8 47  1  0
 12 48  1  0
 14 49  1  0
 15 50  1  0
 21 51  1  0
 21 52  1  0
 22 53  1  0
 22 54  1  0
 24 55  1  0
 24 56  1  0
 25 57  1  0
 25 58  1  0
 26 59  1  0
 27 60  1  0
 29 61  1  0
 30 62  1  0
 31 63  1  0
 31 64  1  0
 32 65  1  0
 32 66  1  0
 34 67  1  0
 34 68  1  0
 35 69  1  0
 35 70  1  0
M  END
$$$$
