@<TRIPOS>MOLECULE
*****
 70 73 0 0 0
SMALL
GASTEIGER

@<TRIPOS>ATOM
      1 C          -9.3368   -0.0391   -1.1475 C.3     1  UNL1        0.0365
      2 O          -8.9055   -1.3310   -1.0972 O.3     1  UNL1       -0.3814
      3 C          -8.0029   -1.6836   -0.1521 C.3     1  UNL1        0.0645
      4 C          -6.6822   -0.9817   -0.2220 C.3     1  UNL1        0.0552
      5 C          -5.8653   -1.4654    0.9765 C.3     1  UNL1       -0.0323
      6 C          -6.3642   -0.5123    2.0368 C.3     1  UNL1       -0.0370
      7 C          -6.5780    0.7748    1.3036 C.3     1  UNL1        0.0209
      8 N          -6.7783    0.4278   -0.0624 N.3     1  UNL1       -0.1713
      9 S          -5.7093    1.2874   -1.1211 S.O2    1  UNL1        0.0612
     10 O          -6.0359    0.8887   -2.5150 O.2     1  UNL1       -0.1528
     11 O          -5.9793    2.7513   -0.9388 O.2     1  UNL1       -0.1528
     12 C          -4.0416    0.9422   -0.8047 C.ar    1  UNL1        0.1063
     13 C          -3.2935    1.6860    0.0844 C.ar    1  UNL1       -0.0335
     14 C          -1.9647    1.4347    0.3566 C.ar    1  UNL1       -0.0377
     15 C          -1.3804    0.3660   -0.3203 C.ar    1  UNL1        0.0477
     16 C          -2.1005   -0.3975   -1.2158 C.ar    1  UNL1        0.0502
     17 C          -3.4387   -0.1101   -1.4613 C.ar    1  UNL1       -0.0226
     18 C          -1.2375   -1.4422   -1.7719 C.2     1  UNL1        0.2496
     19 O          -1.5849   -2.3069   -2.6165 O.2     1  UNL1       -0.2817
     20 C           0.0583   -1.2368   -1.1321 C.2     1  UNL1        0.2913
     21 O           1.0605   -1.9460   -1.3589 O.2     1  UNL1       -0.2661
     22 N          -0.0369   -0.1261   -0.2431 N.am    1  UNL1       -0.2641
     23 C           1.0607    0.3688    0.5651 C.3     1  UNL1        0.0202
     24 C           1.8223    1.4172   -0.2097 C.3     1  UNL1       -0.0367
     25 C           2.9766    1.9909    0.5407 C.3     1  UNL1       -0.0516
     26 C           3.9844    0.9545    0.9170 C.3     1  UNL1       -0.0530
     27 C           4.5523    0.2643   -0.3040 C.3     1  UNL1       -0.0531
     28 C           5.5633   -0.7775    0.0374 C.3     1  UNL1       -0.0531
     29 C           6.7518   -0.2204    0.7865 C.3     1  UNL1       -0.0530
     30 C           7.7473   -1.3212    1.1079 C.3     1  UNL1       -0.0506
     31 C           8.9432   -0.7805    1.8579 C.3     1  UNL1       -0.0244
     32 C           9.6594    0.2519    1.0644 C.3     1  UNL1        0.0821
     33 C          10.2505   -0.0449   -0.2620 C.3     1  UNL1        0.0743
     34 O          11.0716   -0.1003    0.8771 O.3     1  UNL1       -0.3717
     35 H          -9.7963    0.2340   -0.1568 H       1  UNL1        0.0523
     36 H          -8.5844    0.6877   -1.4772 H       1  UNL1        0.0523
     37 H         -10.1837   -0.0384   -1.9242 H       1  UNL1        0.0523
     38 H          -8.4718   -1.4638    0.8546 H       1  UNL1        0.0576
     39 H          -7.8612   -2.8083   -0.2112 H       1  UNL1        0.0576
     40 H          -6.1825   -1.2985   -1.1584 H       1  UNL1        0.0502
     41 H          -6.1422   -2.5230    1.1943 H       1  UNL1        0.0282
     42 H          -4.7915   -1.3257    0.8314 H       1  UNL1        0.0282
     43 H          -5.6131   -0.4205    2.8558 H       1  UNL1        0.0279
     44 H          -7.3231   -0.9140    2.4281 H       1  UNL1        0.0279
     45 H          -5.7055    1.4460    1.4528 H       1  UNL1        0.0444
     46 H          -7.5135    1.2228    1.7055 H       1  UNL1        0.0444
     47 H          -3.7323    2.5283    0.6253 H       1  UNL1        0.0638
     48 H          -1.3927    2.0220    1.0520 H       1  UNL1        0.0637
     49 H          -3.9686   -0.7367   -2.1741 H       1  UNL1        0.0645
     50 H           1.7580   -0.4720    0.7585 H       1  UNL1        0.0469
     51 H           0.6991    0.8041    1.5138 H       1  UNL1        0.0469
     52 H           2.1193    1.0329   -1.2065 H       1  UNL1        0.0280
     53 H           1.0972    2.2535   -0.4291 H       1  UNL1        0.0280
     54 H           3.3986    2.8151   -0.0639 H       1  UNL1        0.0266
     55 H           2.5788    2.4580    1.4670 H       1  UNL1        0.0266
     56 H           3.4961    0.2069    1.5731 H       1  UNL1        0.0265
     57 H           4.8055    1.3965    1.5192 H       1  UNL1        0.0265
     58 H           3.7326   -0.2271   -0.8654 H       1  UNL1        0.0265
     59 H           4.9906    1.0310   -0.9791 H       1  UNL1        0.0265
     60 H           5.0682   -1.5777    0.6161 H       1  UNL1        0.0265
     61 H           5.9262   -1.2266   -0.9030 H       1  UNL1        0.0265
     62 H           7.2788    0.5132    0.1578 H       1  UNL1        0.0265
     63 H           6.4846    0.2585    1.7321 H       1  UNL1        0.0265
     64 H           8.0633   -1.8923    0.2293 H       1  UNL1        0.0266
     65 H           7.2258   -2.0285    1.7899 H       1  UNL1        0.0266
     66 H           9.6045   -1.6459    2.0425 H       1  UNL1        0.0291
     67 H           8.6642   -0.3939    2.8605 H       1  UNL1        0.0291
     68 H           9.6233    1.3227    1.3639 H       1  UNL1        0.0619
     69 H          10.4693    0.8039   -0.9162 H       1  UNL1        0.0586
     70 H           9.9924   -1.0273   -0.7208 H       1  UNL1        0.0586
@<TRIPOS>BOND
     1     1     2    1
     2     2     3    1
     3     3     4    1
     4     4     5    1
     5     5     6    1
     6     6     7    1
     7     7     8    1
     8     8     9    1
     9     9    10    2
    10     9    11    2
    11     9    12    1
    12    12    13   ar
    13    13    14   ar
    14    14    15   ar
    15    15    16   ar
    16    16    17   ar
    17    16    18    1
    18    18    19    2
    19    18    20    1
    20    20    21    2
    21    20    22   am
    22    22    23    1
    23    23    24    1
    24    24    25    1
    25    25    26    1
    26    26    27    1
    27    27    28    1
    28    28    29    1
    29    29    30    1
    30    30    31    1
    31    31    32    1
    32    32    33    1
    33    33    34    1
    34     8     4    1
    35    17    12   ar
    36    34    32    1
    37    22    15    1
    38     1    35    1
    39     1    36    1
    40     1    37    1
    41     3    38    1
    42     3    39    1
    43     4    40    1
    44     5    41    1
    45     5    42    1
    46     6    43    1
    47     6    44    1
    48     7    45    1
    49     7    46    1
    50    13    47    1
    51    14    48    1
    52    17    49    1
    53    23    50    1
    54    23    51    1
    55    24    52    1
    56    24    53    1
    57    25    54    1
    58    25    55    1
    59    26    56    1
    60    26    57    1
    61    27    58    1
    62    27    59    1
    63    28    60    1
    64    28    61    1
    65    29    62    1
    66    29    63    1
    67    30    64    1
    68    30    65    1
    69    31    66    1
    70    31    67    1
    71    32    68    1
    72    33    69    1
    73    33    70    1
