
     RDKit          3D

 70 73  0  0  0  0  0  0  0  0999 V2000
   -9.3368   -0.0391   -1.1475 C   0  0  0  0  0  0  0  0  0  0  0  0
   -8.9055   -1.3310   -1.0972 O   0  0  0  0  0  0  0  0  0  0  0  0
   -8.0029   -1.6836   -0.1521 C   0  0  0  0  0  0  0  0  0  0  0  0
   -6.6822   -0.9817   -0.2220 C   0  0  2  0  0  0  0  0  0  0  0  0
   -5.8653   -1.4654    0.9765 C   0  0  0  0  0  0  0  0  0  0  0  0
   -6.3642   -0.5123    2.0368 C   0  0  0  0  0  0  0  0  0  0  0  0
   -6.5780    0.7748    1.3036 C   0  0  0  0  0  0  0  0  0  0  0  0
   -6.7783    0.4278   -0.0624 N   0  0  0  0  0  0  0  0  0  0  0  0
   -5.7093    1.2874   -1.1211 S   0  0  0  0  0  6  0  0  0  0  0  0
   -6.0359    0.8887   -2.5150 O   0  0  0  0  0  0  0  0  0  0  0  0
   -5.9793    2.7513   -0.9388 O   0  0  0  0  0  0  0  0  0  0  0  0
   -4.0416    0.9422   -0.8047 C   0  0  0  0  0  0  0  0  0  0  0  0
   -3.2935    1.6860    0.0844 C   0  0  0  0  0  0  0  0  0  0  0  0
   -1.9647    1.4347    0.3566 C   0  0  0  0  0  0  0  0  0  0  0  0
   -1.3804    0.3660   -0.3203 C   0  0  0  0  0  0  0  0  0  0  0  0
   -2.1005   -0.3975   -1.2158 C   0  0  0  0  0  0  0  0  0  0  0  0
   -3.4387   -0.1101   -1.4613 C   0  0  0  0  0  0  0  0  0  0  0  0
   -1.2375   -1.4422   -1.7719 C   0  0  0  0  0  0  0  0  0  0  0  0
   -1.5849   -2.3069   -2.6165 O   0  0  0  0  0  0  0  0  0  0  0  0
    0.0583   -1.2368   -1.1321 C   0  0  0  0  0  0  0  0  0  0  0  0
    1.0605   -1.9460   -1.3589 O   0  0  0  0  0  0  0  0  0  0  0  0
   -0.0369   -0.1261   -0.2431 N   0  0  0  0  0  0  0  0  0  0  0  0
    1.0607    0.3688    0.5651 C   0  0  0  0  0  0  0  0  0  0  0  0
    1.8223    1.4172   -0.2097 C   0  0  0  0  0  0  0  0  0  0  0  0
    2.9766    1.9909    0.5407 C   0  0  0  0  0  0  0  0  0  0  0  0
    3.9844    0.9545    0.9170 C   0  0  0  0  0  0  0  0  0  0  0  0
    4.5523    0.2643   -0.3040 C   0  0  0  0  0  0  0  0  0  0  0  0
    5.5633   -0.7775    0.0374 C   0  0  0  0  0  0  0  0  0  0  0  0
    6.7518   -0.2204    0.7865 C   0  0  0  0  0  0  0  0  0  0  0  0
    7.7473   -1.3212    1.1079 C   0  0  0  0  0  0  0  0  0  0  0  0
    8.9432   -0.7805    1.8579 C   0  0  0  0  0  0  0  0  0  0  0  0
    9.6594    0.2519    1.0644 C   0  0  0  0  0  0  0  0  0  0  0  0
   10.2505   -0.0449   -0.2620 C   0  0  0  0  0  0  0  0  0  0  0  0
   11.0716   -0.1003    0.8771 O   0  0  0  0  0  0  0  0  0  0  0  0
   -9.7963    0.2340   -0.1568 H   0  0  0  0  0  0  0  0  0  0  0  0
   -8.5844    0.6877   -1.4772 H   0  0  0  0  0  0  0  0  0  0  0  0
  -10.1837   -0.0384   -1.9242 H   0  0  0  0  0  0  0  0  0  0  0  0
   -8.4718   -1.4638    0.8546 H   0  0  0  0  0  0  0  0  0  0  0  0
   -7.8612   -2.8083   -0.2112 H   0  0  0  0  0  0  0  0  0  0  0  0
   -6.1825   -1.2985   -1.1584 H   0  0  0  0  0  0  0  0  0  0  0  0
   -6.1422   -2.5230    1.1943 H   0  0  0  0  0  0  0  0  0  0  0  0
   -4.7915   -1.3257    0.8314 H   0  0  0  0  0  0  0  0  0  0  0  0
   -5.6131   -0.4205    2.8558 H   0  0  0  0  0  0  0  0  0  0  0  0
   -7.3231   -0.9140    2.4281 H   0  0  0  0  0  0  0  0  0  0  0  0
   -5.7055    1.4460    1.4528 H   0  0  0  0  0  0  0  0  0  0  0  0
   -7.5135    1.2228    1.7055 H   0  0  0  0  0  0  0  0  0  0  0  0
   -3.7323    2.5283    0.6253 H   0  0  0  0  0  0  0  0  0  0  0  0
   -1.3927    2.0220    1.0520 H   0  0  0  0  0  0  0  0  0  0  0  0
   -3.9686   -0.7367   -2.1741 H   0  0  0  0  0  0  0  0  0  0  0  0
    1.7580   -0.4720    0.7585 H   0  0  0  0  0  0  0  0  0  0  0  0
    0.6991    0.8041    1.5138 H   0  0  0  0  0  0  0  0  0  0  0  0
    2.1193    1.0329   -1.2065 H   0  0  0  0  0  0  0  0  0  0  0  0
    1.0972    2.2535   -0.4291 H   0  0  0  0  0  0  0  0  0  0  0  0
    3.3986    2.8151   -0.0639 H   0  0  0  0  0  0  0  0  0  0  0  0
    2.5788    2.4580    1.4670 H   0  0  0  0  0  0  0  0  0  0  0  0
    3.4961    0.2069    1.5731 H   0  0  0  0  0  0  0  0  0  0  0  0
    4.8055    1.3965    1.5192 H   0  0  0  0  0  0  0  0  0  0  0  0
    3.7326   -0.2271   -0.8654 H   0  0  0  0  0  0  0  0  0  0  0  0
    4.9906    1.0310   -0.9791 H   0  0  0  0  0  0  0  0  0  0  0  0
    5.0682   -1.5777    0.6161 H   0  0  0  0  0  0  0  0  0  0  0  0
    5.9262   -1.2266   -0.9030 H   0  0  0  0  0  0  0  0  0  0  0  0
    7.2788    0.5132    0.1578 H   0  0  0  0  0  0  0  0  0  0  0  0
    6.4846    0.2585    1.7321 H   0  0  0  0  0  0  0  0  0  0  0  0
    8.0633   -1.8923    0.2293 H   0  0  0  0  0  0  0  0  0  0  0  0
    7.2258   -2.0285    1.7899 H   0  0  0  0  0  0  0  0  0  0  0  0
    9.6045   -1.6459    2.0425 H   0  0  0  0  0  0  0  0  0  0  0  0
    8.6642   -0.3939    2.8605 H   0  0  0  0  0  0  0  0  0  0  0  0
    9.6233    1.3227    1.3639 H   0  0  0  0  0  0  0  0  0  0  0  0
   10.4693    0.8039   -0.9162 H   0  0  0  0  0  0  0  0  0  0  0  0
    9.9924   -1.0273   -0.7208 H   0  0  0  0  0  0  0  0  0  0  0  0
  1  2  1  0
  2  3  1  0
  3  4  1  0
  4  5  1  0
  5  6  1  0
  6  7  1  0
  7  8  1  0
  8  9  1  0
  9 10  2  0
  9 11  2  0
  9 12  1  0
 12 13  2  0
 13 14  1  0
 14 15  2  0
 15 16  1  0
 16 17  2  0
 16 18  1  0
 18 19  2  0
 18 20  1  0
 20 21  2  0
 20 22  1  0
 22 23  1  0
 23 24  1  0
 24 25  1  0
 25 26  1  0
 26 27  1  0
 27 28  1  0
 28 29  1  0
 29 30  1  0
 30 31  1  0
 31 32  1  0
 32 33  1  0
 33 34  1  0
  8  4  1  0
 17 12  1  0
 34 32  1  0
 22 15  1  0
  1 35  1  0
  1 36  1  0
  1 37  1  0
  3 38  1  0
  3 39  1  0
  4 40  1  6
  5 41  1  0
  5 42  1  0
  6 43  1  0
  6 44  1  0
  7 45  1  0
  7 46  1  0
 13 47  1  0
 14 48  1  0
 17 49  1  0
 23 50  1  0
 23 51  1  0
 24 52  1  0
 24 53  1  0
 25 54  1  0
 25 55  1  0
 26 56  1  0
 26 57  1  0
 27 58  1  0
 27 59  1  0
 28 60  1  0
 28 61  1  0
 29 62  1  0
 29 63  1  0
 30 64  1  0
 30 65  1  0
 31 66  1  0
 31 67  1  0
 32 68  1  0
 33 69  1  0
 33 70  1  0
M  END
$$$$
