@<TRIPOS>MOLECULE
*****
 59 61 0 0 0
SMALL
GASTEIGER

@<TRIPOS>ATOM
      1 O           2.9505   -1.9419   -1.9040 O.2     1  UNL1       -0.2450
      2 C           3.6069   -1.5368   -0.9205 C.2     1  UNL1        0.3395
      3 O           3.2674   -0.3642   -0.3680 O.3     1  UNL1       -0.4573
      4 C           2.3175    0.5539   -0.6020 C.3     1  UNL1        0.1329
      5 C           0.8712    0.3122   -0.2863 C.3     1  UNL1        0.1710
      6 C           0.3024   -0.8420   -0.9974 C.3     1  UNL1        0.1329
      7 O          -1.1092   -0.9902   -0.7805 O.3     1  UNL1       -0.4573
      8 C          -1.6741   -1.1932    0.4599 C.2     1  UNL1        0.3395
      9 O          -0.8792   -1.2492    1.4462 O.2     1  UNL1       -0.2450
     10 C          -3.1044   -1.3423    0.6823 C.ar    1  UNL1        0.0661
     11 C          -3.9486   -1.2779   -0.4045 C.ar    1  UNL1       -0.0023
     12 C          -5.3174   -1.4085   -0.2885 C.ar    1  UNL1        0.1628
     13 O          -6.1266   -1.3366   -1.4115 O.3     1  UNL1       -0.5032
     14 C          -5.8658   -1.6087    0.9408 C.ar    1  UNL1        0.2006
     15 O          -7.2509   -1.7425    1.0725 O.3     1  UNL1       -0.5009
     16 C          -5.0598   -1.6796    2.0543 C.ar    1  UNL1        0.1628
     17 O          -5.6281   -1.8843    3.3067 O.3     1  UNL1       -0.5032
     18 C          -3.6727   -1.5448    1.9171 C.ar    1  UNL1       -0.0023
     19 O           0.1457    1.5102   -0.6969 O.3     1  UNL1       -0.4510
     20 C          -0.4841    2.2962    0.2534 C.2     1  UNL1        0.3399
     21 O          -0.4147    1.9577    1.4445 O.2     1  UNL1       -0.2449
     22 C          -1.2178    3.5050   -0.1470 C.ar    1  UNL1        0.0661
     23 C          -1.3120    3.9022   -1.4432 C.ar    1  UNL1       -0.0023
     24 C          -1.9975    5.0289   -1.8036 C.ar    1  UNL1        0.1628
     25 O          -2.0673    5.3962   -3.1395 O.3     1  UNL1       -0.5032
     26 C          -2.6241    5.8104   -0.8557 C.ar    1  UNL1        0.2006
     27 O          -3.3141    6.9484   -1.2382 O.3     1  UNL1       -0.5009
     28 C          -2.5247    5.4012    0.4612 C.ar    1  UNL1        0.1628
     29 O          -3.1321    6.1436    1.4573 O.3     1  UNL1       -0.5032
     30 C          -1.8339    4.2663    0.8209 C.ar    1  UNL1       -0.0023
     31 C           4.7124   -2.3866   -0.4404 C.ar    1  UNL1        0.0661
     32 C           5.4922   -2.0417    0.6232 C.ar    1  UNL1       -0.0023
     33 C           6.5061   -2.8963    1.0057 C.ar    1  UNL1        0.1628
     34 O           7.3164   -2.5732    2.0839 O.3     1  UNL1       -0.5032
     35 C           6.7626   -4.0845    0.3562 C.ar    1  UNL1        0.2006
     36 O           7.7788   -4.9534    0.7300 O.3     1  UNL1       -0.5009
     37 C           5.9684   -4.4281   -0.7213 C.ar    1  UNL1        0.1628
     38 O           6.2121   -5.6246   -1.3904 O.3     1  UNL1       -0.5032
     39 C           4.9495   -3.5617   -1.0999 C.ar    1  UNL1       -0.0023
     40 H           2.3943    1.0112   -1.6677 H       1  UNL1        0.0736
     41 H           2.6199    1.4941   -0.0025 H       1  UNL1        0.0736
     42 H           0.7608    0.2667    0.8233 H       1  UNL1        0.0803
     43 H           0.8000   -1.7688   -0.5740 H       1  UNL1        0.0736
     44 H           0.5202   -0.8108   -2.0638 H       1  UNL1        0.0736
     45 H          -3.5529   -1.1212   -1.3897 H       1  UNL1        0.0663
     46 H          -6.3386   -2.1507   -1.9755 H       1  UNL1        0.2923
     47 H          -7.7514   -2.3962    0.4605 H       1  UNL1        0.2924
     48 H          -6.5299   -1.4643    3.5411 H       1  UNL1        0.2923
     49 H          -3.0301   -1.5967    2.7679 H       1  UNL1        0.0663
     50 H          -0.8132    3.2807   -2.2007 H       1  UNL1        0.0663
     51 H          -2.4004    6.3109   -3.4378 H       1  UNL1        0.2923
     52 H          -3.1403    7.7921   -0.7022 H       1  UNL1        0.2924
     53 H          -2.6318    6.7926    2.0495 H       1  UNL1        0.2923
     54 H          -1.7608    3.9535    1.8508 H       1  UNL1        0.0663
     55 H           5.2910   -1.1132    1.1301 H       1  UNL1        0.0663
     56 H           7.7908   -1.6999    2.0621 H       1  UNL1        0.2923
     57 H           8.7262   -4.8927    0.4018 H       1  UNL1        0.2924
     58 H           6.0898   -6.5335   -0.9294 H       1  UNL1        0.2923
     59 H           4.3554   -3.8934   -1.9632 H       1  UNL1        0.0663
@<TRIPOS>BOND
     1     1     2    2
     2     2     3    1
     3     3     4    1
     4     4     5    1
     5     5     6    1
     6     6     7    1
     7     7     8    1
     8     8     9    2
     9     8    10    1
    10    10    11   ar
    11    11    12   ar
    12    12    13    1
    13    12    14   ar
    14    14    15    1
    15    14    16   ar
    16    16    17    1
    17    16    18   ar
    18     5    19    1
    19    19    20    1
    20    20    21    2
    21    20    22    1
    22    22    23   ar
    23    23    24   ar
    24    24    25    1
    25    24    26   ar
    26    26    27    1
    27    26    28   ar
    28    28    29    1
    29    28    30   ar
    30     2    31    1
    31    31    32   ar
    32    32    33   ar
    33    33    34    1
    34    33    35   ar
    35    35    36    1
    36    35    37   ar
    37    37    38    1
    38    37    39   ar
    39    18    10   ar
    40    30    22   ar
    41    39    31   ar
    42     4    40    1
    43     4    41    1
    44     5    42    1
    45     6    43    1
    46     6    44    1
    47    11    45    1
    48    13    46    1
    49    15    47    1
    50    17    48    1
    51    18    49    1
    52    23    50    1
    53    25    51    1
    54    27    52    1
    55    29    53    1
    56    30    54    1
    57    32    55    1
    58    34    56    1
    59    36    57    1
    60    38    58    1
    61    39    59    1
