
     RDKit          3D

 59 61  0  0  0  0  0  0  0  0999 V2000
    2.9505   -1.9419   -1.9040 O   0  0  0  0  0  0  0  0  0  0  0  0
    3.6069   -1.5368   -0.9205 C   0  0  0  0  0  0  0  0  0  0  0  0
    3.2674   -0.3642   -0.3680 O   0  0  0  0  0  0  0  0  0  0  0  0
    2.3175    0.5539   -0.6020 C   0  0  0  0  0  0  0  0  0  0  0  0
    0.8712    0.3122   -0.2863 C   0  0  0  0  0  0  0  0  0  0  0  0
    0.3024   -0.8420   -0.9974 C   0  0  0  0  0  0  0  0  0  0  0  0
   -1.1092   -0.9902   -0.7805 O   0  0  0  0  0  0  0  0  0  0  0  0
   -1.6741   -1.1932    0.4599 C   0  0  0  0  0  0  0  0  0  0  0  0
   -0.8792   -1.2492    1.4462 O   0  0  0  0  0  0  0  0  0  0  0  0
   -3.1044   -1.3423    0.6823 C   0  0  0  0  0  0  0  0  0  0  0  0
   -3.9486   -1.2779   -0.4045 C   0  0  0  0  0  0  0  0  0  0  0  0
   -5.3174   -1.4085   -0.2885 C   0  0  0  0  0  0  0  0  0  0  0  0
   -6.1266   -1.3366   -1.4115 O   0  0  0  0  0  0  0  0  0  0  0  0
   -5.8658   -1.6087    0.9408 C   0  0  0  0  0  0  0  0  0  0  0  0
   -7.2509   -1.7425    1.0725 O   0  0  0  0  0  0  0  0  0  0  0  0
   -5.0598   -1.6796    2.0543 C   0  0  0  0  0  0  0  0  0  0  0  0
   -5.6281   -1.8843    3.3067 O   0  0  0  0  0  0  0  0  0  0  0  0
   -3.6727   -1.5448    1.9171 C   0  0  0  0  0  0  0  0  0  0  0  0
    0.1457    1.5102   -0.6969 O   0  0  0  0  0  0  0  0  0  0  0  0
   -0.4841    2.2962    0.2534 C   0  0  0  0  0  0  0  0  0  0  0  0
   -0.4147    1.9577    1.4445 O   0  0  0  0  0  0  0  0  0  0  0  0
   -1.2178    3.5050   -0.1470 C   0  0  0  0  0  0  0  0  0  0  0  0
   -1.3120    3.9022   -1.4432 C   0  0  0  0  0  0  0  0  0  0  0  0
   -1.9975    5.0289   -1.8036 C   0  0  0  0  0  0  0  0  0  0  0  0
   -2.0673    5.3962   -3.1395 O   0  0  0  0  0  0  0  0  0  0  0  0
   -2.6241    5.8104   -0.8557 C   0  0  0  0  0  0  0  0  0  0  0  0
   -3.3141    6.9484   -1.2382 O   0  0  0  0  0  0  0  0  0  0  0  0
   -2.5247    5.4012    0.4612 C   0  0  0  0  0  0  0  0  0  0  0  0
   -3.1321    6.1436    1.4573 O   0  0  0  0  0  0  0  0  0  0  0  0
   -1.8339    4.2663    0.8209 C   0  0  0  0  0  0  0  0  0  0  0  0
    4.7124   -2.3866   -0.4404 C   0  0  0  0  0  0  0  0  0  0  0  0
    5.4922   -2.0417    0.6232 C   0  0  0  0  0  0  0  0  0  0  0  0
    6.5061   -2.8963    1.0057 C   0  0  0  0  0  0  0  0  0  0  0  0
    7.3164   -2.5732    2.0839 O   0  0  0  0  0  0  0  0  0  0  0  0
    6.7626   -4.0845    0.3562 C   0  0  0  0  0  0  0  0  0  0  0  0
    7.7788   -4.9534    0.7300 O   0  0  0  0  0  0  0  0  0  0  0  0
    5.9684   -4.4281   -0.7213 C   0  0  0  0  0  0  0  0  0  0  0  0
    6.2121   -5.6246   -1.3904 O   0  0  0  0  0  0  0  0  0  0  0  0
    4.9495   -3.5617   -1.0999 C   0  0  0  0  0  0  0  0  0  0  0  0
    2.3943    1.0112   -1.6677 H   0  0  0  0  0  0  0  0  0  0  0  0
    2.6199    1.4941   -0.0025 H   0  0  0  0  0  0  0  0  0  0  0  0
    0.7608    0.2667    0.8233 H   0  0  0  0  0  0  0  0  0  0  0  0
    0.8000   -1.7688   -0.5740 H   0  0  0  0  0  0  0  0  0  0  0  0
    0.5202   -0.8108   -2.0638 H   0  0  0  0  0  0  0  0  0  0  0  0
   -3.5529   -1.1212   -1.3897 H   0  0  0  0  0  0  0  0  0  0  0  0
   -6.3386   -2.1507   -1.9755 H   0  0  0  0  0  0  0  0  0  0  0  0
   -7.7514   -2.3962    0.4605 H   0  0  0  0  0  0  0  0  0  0  0  0
   -6.5299   -1.4643    3.5411 H   0  0  0  0  0  0  0  0  0  0  0  0
   -3.0301   -1.5967    2.7679 H   0  0  0  0  0  0  0  0  0  0  0  0
   -0.8132    3.2807   -2.2007 H   0  0  0  0  0  0  0  0  0  0  0  0
   -2.4004    6.3109   -3.4378 H   0  0  0  0  0  0  0  0  0  0  0  0
   -3.1403    7.7921   -0.7022 H   0  0  0  0  0  0  0  0  0  0  0  0
   -2.6318    6.7926    2.0495 H   0  0  0  0  0  0  0  0  0  0  0  0
   -1.7608    3.9535    1.8508 H   0  0  0  0  0  0  0  0  0  0  0  0
    5.2910   -1.1132    1.1301 H   0  0  0  0  0  0  0  0  0  0  0  0
    7.7908   -1.6999    2.0621 H   0  0  0  0  0  0  0  0  0  0  0  0
    8.7262   -4.8927    0.4018 H   0  0  0  0  0  0  0  0  0  0  0  0
    6.0898   -6.5335   -0.9294 H   0  0  0  0  0  0  0  0  0  0  0  0
    4.3554   -3.8934   -1.9632 H   0  0  0  0  0  0  0  0  0  0  0  0
  1  2  2  0
  2  3  1  0
  3  4  1  0
  4  5  1  0
  5  6  1  0
  6  7  1  0
  7  8  1  0
  8  9  2  0
  8 10  1  0
 10 11  2  0
 11 12  1  0
 12 13  1  0
 12 14  2  0
 14 15  1  0
 14 16  1  0
 16 17  1  0
 16 18  2  0
  5 19  1  0
 19 20  1  0
 20 21  2  0
 20 22  1  0
 22 23  2  0
 23 24  1  0
 24 25  1  0
 24 26  2  0
 26 27  1  0
 26 28  1  0
 28 29  1  0
 28 30  2  0
  2 31  1  0
 31 32  2  0
 32 33  1  0
 33 34  1  0
 33 35  2  0
 35 36  1  0
 35 37  1  0
 37 38  1  0
 37 39  2  0
 18 10  1  0
 30 22  1  0
 39 31  1  0
  4 40  1  0
  4 41  1  0
  5 42  1  0
  6 43  1  0
  6 44  1  0
 11 45  1  0
 13 46  1  0
 15 47  1  0
 17 48  1  0
 18 49  1  0
 23 50  1  0
 25 51  1  0
 27 52  1  0
 29 53  1  0
 30 54  1  0
 32 55  1  0
 34 56  1  0
 36 57  1  0
 38 58  1  0
 39 59  1  0
M  END
$$$$
