@<TRIPOS>MOLECULE
*****
 56 61 0 0 0
SMALL
GASTEIGER

@<TRIPOS>ATOM
      1 C          -3.4115    2.1601    2.3128 C.3     1  UNL1       -0.0598
      2 C          -3.6439    1.9431    0.8351 C.3     1  UNL1       -0.0111
      3 C          -3.1786    0.5650    0.4868 C.ar    1  UNL1        0.0688
      4 N          -3.9718   -0.4972    0.2618 N.ar    1  UNL1       -0.1749
      5 N          -3.2658   -1.5769   -0.0238 N.ar    1  UNL1       -0.2556
      6 C          -3.7843   -2.9201   -0.3267 C.3     1  UNL1        0.0537
      7 C          -5.1411   -3.2567    0.2860 C.3     1  UNL1       -0.0285
      8 C          -3.8800   -3.7944    0.8977 C.3     1  UNL1       -0.0285
      9 C          -1.9667   -1.2274    0.0112 C.ar    1  UNL1        0.1297
     10 C          -1.8986    0.1114    0.3297 C.ar    1  UNL1        0.0307
     11 C          -0.4848    0.5705    0.3834 C.3     1  UNL1        0.0854
     12 C          -0.2548    1.7189   -0.5222 C.ar    1  UNL1       -0.0221
     13 C          -0.0637    2.9988   -0.0217 C.ar    1  UNL1       -0.0551
     14 C           0.1481    4.1077   -0.8081 C.ar    1  UNL1       -0.0431
     15 C           0.1739    3.9492   -2.1762 C.ar    1  UNL1        0.0410
     16 CL          0.4459    5.3717   -3.1818 Cl      1  UNL1       -0.0835
     17 C          -0.0105    2.6996   -2.7253 C.ar    1  UNL1       -0.0431
     18 C          -0.2218    1.6031   -1.8980 C.ar    1  UNL1       -0.0551
     19 N           0.3014   -0.5925    0.0836 N.am    1  UNL1       -0.2530
     20 C           1.7094   -0.6500    0.0372 C.ar    1  UNL1        0.0577
     21 C           2.4243   -0.9280    1.2082 C.ar    1  UNL1        0.0067
     22 C           3.7933   -1.0005    1.2189 C.ar    1  UNL1        0.1663
     23 O           4.4259   -1.2779    2.4053 O.3     1  UNL1       -0.4913
     24 C           3.7383   -1.4902    3.6106 C.3     1  UNL1        0.0790
     25 C           4.4992   -0.7993    0.0671 C.ar    1  UNL1        0.2032
     26 N           5.8200   -0.8169   -0.1763 N.ar    1  UNL1       -0.1256
     27 N           5.9582   -0.5581   -1.4658 N.ar    1  UNL1       -0.1339
     28 C           4.7533   -0.3785   -2.0371 C.ar    1  UNL1        0.1348
     29 C           4.4383   -0.0727   -3.4411 C.3     1  UNL1       -0.0041
     30 N           3.8182   -0.5297   -1.0710 N.ar    1  UNL1       -0.2819
     31 C           2.4712   -0.4579   -1.0848 C.ar    1  UNL1        0.0346
     32 C          -0.5848   -1.6667   -0.1431 C.2     1  UNL1        0.2700
     33 O          -0.2941   -2.8750   -0.4436 O.2     1  UNL1       -0.2679
     34 H          -4.0334    1.3967    2.8424 H       1  UNL1        0.0233
     35 H          -3.6537    3.1833    2.6324 H       1  UNL1        0.0233
     36 H          -2.3563    1.8841    2.5161 H       1  UNL1        0.0233
     37 H          -4.7259    2.0102    0.6453 H       1  UNL1        0.0326
     38 H          -3.1551    2.7051    0.2035 H       1  UNL1        0.0326
     39 H          -3.4987   -3.3951   -1.2723 H       1  UNL1        0.0545
     40 H          -5.7565   -4.0259   -0.2372 H       1  UNL1        0.0286
     41 H          -5.6600   -2.4255    0.8169 H       1  UNL1        0.0286
     42 H          -3.6528   -4.8830    0.7910 H       1  UNL1        0.0286
     43 H          -3.6296   -3.3744    1.8921 H       1  UNL1        0.0286
     44 H          -0.2087    0.9096    1.4113 H       1  UNL1        0.0606
     45 H          -0.0798    3.1474    1.0515 H       1  UNL1        0.0621
     46 H           0.2959    5.1071   -0.3737 H       1  UNL1        0.0632
     47 H           0.0146    2.5980   -3.8187 H       1  UNL1        0.0632
     48 H          -0.3635    0.6362   -2.3536 H       1  UNL1        0.0621
     49 H           1.8587   -1.0886    2.1285 H       1  UNL1        0.0674
     50 H           4.4328   -1.8102    4.4124 H       1  UNL1        0.0660
     51 H           2.9626   -2.2752    3.4606 H       1  UNL1        0.0660
     52 H           3.1880   -0.5616    3.8546 H       1  UNL1        0.0660
     53 H           4.1877   -0.9785   -4.0317 H       1  UNL1        0.0308
     54 H           3.6297    0.6963   -3.5345 H       1  UNL1        0.0308
     55 H           5.3580    0.3530   -3.9012 H       1  UNL1        0.0308
     56 H           1.9840   -0.2414   -2.0243 H       1  UNL1        0.0833
@<TRIPOS>BOND
     1     1     2    1
     2     2     3    1
     3     3     4   ar
     4     4     5   ar
     5     5     6    1
     6     6     7    1
     7     7     8    1
     8     5     9   ar
     9     9    10   ar
    10    10    11    1
    11    11    12    1
    12    12    13   ar
    13    13    14   ar
    14    14    15   ar
    15    15    16    1
    16    15    17   ar
    17    17    18   ar
    18    11    19    1
    19    19    20    1
    20    20    21   ar
    21    21    22   ar
    22    22    23    1
    23    23    24    1
    24    22    25   ar
    25    25    26   ar
    26    26    27   ar
    27    27    28   ar
    28    28    29    1
    29    28    30   ar
    30    30    31   ar
    31    19    32   am
    32    32    33    2
    33    10     3   ar
    34    18    12   ar
    35    31    20   ar
    36     8     6    1
    37    32     9    1
    38    30    25   ar
    39     1    34    1
    40     1    35    1
    41     1    36    1
    42     2    37    1
    43     2    38    1
    44     6    39    1
    45     7    40    1
    46     7    41    1
    47     8    42    1
    48     8    43    1
    49    11    44    1
    50    13    45    1
    51    14    46    1
    52    17    47    1
    53    18    48    1
    54    21    49    1
    55    24    50    1
    56    24    51    1
    57    24    52    1
    58    29    53    1
    59    29    54    1
    60    29    55    1
    61    31    56    1
