@<TRIPOS>MOLECULE
*****
 83 87 0 0 0
SMALL
GASTEIGER

@<TRIPOS>ATOM
      1 C          -2.4765   -6.1327   -0.2818 C.3     1  UNL1        0.0374
      2 O          -3.4080   -5.3858    0.4290 O.3     1  UNL1       -0.3709
      3 C          -2.7589   -4.5268    1.2699 C.3     1  UNL1        0.1311
      4 C          -3.0897   -4.8272    2.6925 C.3     1  UNL1       -0.0301
      5 C          -3.0535   -3.0896    0.9442 C.2     1  UNL1        0.2419
      6 O          -3.7842   -2.8195   -0.0264 O.2     1  UNL1       -0.2730
      7 N          -2.5269   -2.0273    1.7060 N.am    1  UNL1       -0.3075
      8 C          -2.7846   -0.6149    1.4140 C.3     1  UNL1        0.0542
      9 C          -3.6990   -0.0327    2.4387 C.3     1  UNL1       -0.0066
     10 C          -3.9959    1.3840    2.2235 C.ar    1  UNL1       -0.0418
     11 C          -3.3097    2.3937    2.8619 C.ar    1  UNL1       -0.0548
     12 C          -3.6224    3.7155    2.6247 C.ar    1  UNL1       -0.0159
     13 C          -4.6260    4.0670    1.7457 C.ar    1  UNL1        0.1662
     14 C          -5.3060    3.0624    1.1133 C.ar    1  UNL1        0.1665
     15 C          -4.9948    1.7389    1.3496 C.ar    1  UNL1       -0.0129
     16 O          -6.2683    3.6698    0.2792 O.3     1  UNL1       -0.4526
     17 C          -6.0250    5.0561    0.2058 C.3     1  UNL1        0.2332
     18 O          -5.1554    5.2758    1.3128 O.3     1  UNL1       -0.4526
     19 C          -1.4874    0.1484    1.3065 C.3     1  UNL1        0.0862
     20 O          -1.7635    1.4452    0.9505 O.3     1  UNL1       -0.3887
     21 C          -0.4765   -0.5745    0.5043 C.3     1  UNL1        0.0243
     22 N           0.8540   -0.1727    0.4387 N.3     1  UNL1       -0.3065
     23 C           1.2067    0.9867   -0.2242 C.3     1  UNL1        0.0416
     24 C           1.2169    2.2994    0.4914 C.3     1  UNL1        0.0069
     25 C           1.2038    3.4107   -0.5220 C.3     1  UNL1        0.1140
     26 C           1.5844    4.7701    0.0345 C.3     1  UNL1       -0.0127
     27 C           0.0760    5.0218    0.1883 C.3     1  UNL1       -0.0458
     28 C          -0.0998    3.9890   -0.9324 C.3     1  UNL1       -0.0127
     29 O           2.0976    3.1109   -1.5969 O.3     1  UNL1       -0.4695
     30 C           2.9574    2.0252   -1.5523 C.ar    1  UNL1        0.2200
     31 N           4.1685    2.0202   -2.1521 N.ar    1  UNL1       -0.2208
     32 C           4.9778    0.9454   -2.0860 C.ar    1  UNL1        0.0346
     33 C           4.6414   -0.2079   -1.4159 C.ar    1  UNL1       -0.0282
     34 C           5.5220   -1.3863   -1.3290 C.3     1  UNL1       -0.0213
     35 C           5.3612   -2.3867   -2.4290 C.3     1  UNL1       -0.0337
     36 C           5.6301   -1.8357   -3.7963 C.3     1  UNL1       -0.0598
     37 C           4.0191   -3.0770   -2.4081 C.3     1  UNL1       -0.0598
     38 C           6.4107   -3.4822   -2.1782 C.3     1  UNL1       -0.0598
     39 C           3.3851   -0.1916   -0.7985 C.ar    1  UNL1       -0.0474
     40 C           2.5742    0.9043   -0.8733 C.ar    1  UNL1        0.0314
     41 H          -2.9770   -6.8444   -0.9789 H       1  UNL1        0.0524
     42 H          -1.7261   -6.6158    0.3702 H       1  UNL1        0.0524
     43 H          -1.8975   -5.4520   -0.9666 H       1  UNL1        0.0524
     44 H          -1.6458   -4.6865    1.1460 H       1  UNL1        0.0690
     45 H          -3.7161   -4.0307    3.1579 H       1  UNL1        0.0259
     46 H          -3.7020   -5.7478    2.7403 H       1  UNL1        0.0259
     47 H          -2.1767   -4.9986    3.3191 H       1  UNL1        0.0259
     48 H          -1.9202   -2.2426    2.5205 H       1  UNL1        0.1491
     49 H          -3.3221   -0.5940    0.4503 H       1  UNL1        0.0527
     50 H          -4.6952   -0.5645    2.3879 H       1  UNL1        0.0332
     51 H          -3.2726   -0.1546    3.4706 H       1  UNL1        0.0332
     52 H          -2.5150    2.1468    3.5593 H       1  UNL1        0.0621
     53 H          -3.0790    4.5190    3.1293 H       1  UNL1        0.0655
     54 H          -5.5817    0.9893    0.8078 H       1  UNL1        0.0658
     55 H          -6.9589    5.6271    0.3784 H       1  UNL1        0.1166
     56 H          -5.5390    5.3783   -0.7298 H       1  UNL1        0.1166
     57 H          -1.0471    0.1551    2.3785 H       1  UNL1        0.0624
     58 H          -2.3255    1.5472    0.1678 H       1  UNL1        0.2099
     59 H          -0.5240   -1.6758    0.8343 H       1  UNL1        0.0450
     60 H          -0.8855   -0.6638   -0.5785 H       1  UNL1        0.0450
     61 H           1.2734   -0.2785    1.4147 H       1  UNL1        0.1226
     62 H           0.5372    1.1701   -1.1351 H       1  UNL1        0.0513
     63 H           0.5619    2.4303    1.3338 H       1  UNL1        0.0322
     64 H           2.2708    2.4003    0.9701 H       1  UNL1        0.0322
     65 H           2.1493    4.7797    0.9647 H       1  UNL1        0.0304
     66 H           1.9719    5.4333   -0.7656 H       1  UNL1        0.0304
     67 H          -0.2342    6.0355   -0.0755 H       1  UNL1        0.0268
     68 H          -0.2307    4.6537    1.1893 H       1  UNL1        0.0268
     69 H          -1.0014    3.3898   -0.7293 H       1  UNL1        0.0304
     70 H          -0.1069    4.5104   -1.9216 H       1  UNL1        0.0304
     71 H           5.9298    1.0033   -2.5831 H       1  UNL1        0.0833
     72 H           6.6017   -1.1067   -1.2083 H       1  UNL1        0.0319
     73 H           5.2820   -1.9330   -0.3703 H       1  UNL1        0.0319
     74 H           6.5624   -1.2024   -3.7800 H       1  UNL1        0.0235
     75 H           5.8963   -2.6897   -4.4706 H       1  UNL1        0.0235
     76 H           4.7818   -1.3253   -4.2524 H       1  UNL1        0.0235
     77 H           3.2512   -2.3140   -2.6864 H       1  UNL1        0.0235
     78 H           3.8258   -3.5377   -1.4278 H       1  UNL1        0.0235
     79 H           4.0201   -3.8609   -3.2003 H       1  UNL1        0.0235
     80 H           6.1208   -3.9873   -1.2465 H       1  UNL1        0.0235
     81 H           6.3991   -4.2430   -2.9800 H       1  UNL1        0.0235
     82 H           7.4081   -3.0228   -2.0087 H       1  UNL1        0.0235
     83 H           3.0616   -1.0666   -0.2559 H       1  UNL1        0.0626
@<TRIPOS>BOND
     1     1     2    1
     2     2     3    1
     3     3     4    1
     4     3     5    1
     5     5     6    2
     6     5     7   am
     7     7     8    1
     8     8     9    1
     9     9    10    1
    10    10    11   ar
    11    11    12   ar
    12    12    13   ar
    13    13    14   ar
    14    14    15   ar
    15    14    16    1
    16    16    17    1
    17    17    18    1
    18     8    19    1
    19    19    20    1
    20    19    21    1
    21    21    22    1
    22    22    23    1
    23    23    24    1
    24    24    25    1
    25    25    26    1
    26    26    27    1
    27    27    28    1
    28    25    29    1
    29    29    30    1
    30    30    31   ar
    31    31    32   ar
    32    32    33   ar
    33    33    34    1
    34    34    35    1
    35    35    36    1
    36    35    37    1
    37    35    38    1
    38    33    39   ar
    39    39    40   ar
    40    15    10   ar
    41    40    23    1
    42    18    13    1
    43    28    25    1
    44    40    30   ar
    45     1    41    1
    46     1    42    1
    47     1    43    1
    48     3    44    1
    49     4    45    1
    50     4    46    1
    51     4    47    1
    52     7    48    1
    53     8    49    1
    54     9    50    1
    55     9    51    1
    56    11    52    1
    57    12    53    1
    58    15    54    1
    59    17    55    1
    60    17    56    1
    61    19    57    1
    62    20    58    1
    63    21    59    1
    64    21    60    1
    65    22    61    1
    66    23    62    1
    67    24    63    1
    68    24    64    1
    69    26    65    1
    70    26    66    1
    71    27    67    1
    72    27    68    1
    73    28    69    1
    74    28    70    1
    75    32    71    1
    76    34    72    1
    77    34    73    1
    78    36    74    1
    79    36    75    1
    80    36    76    1
    81    37    77    1
    82    37    78    1
    83    37    79    1
    84    38    80    1
    85    38    81    1
    86    38    82    1
    87    39    83    1
