@<TRIPOS>MOLECULE
*****
 54 57 0 0 0
SMALL
GASTEIGER

@<TRIPOS>ATOM
      1 C          -5.2541    1.8078    0.1033 C.3     1  UNL1       -0.0325
      2 C          -3.8813    1.7148   -0.3766 C.ar    1  UNL1        0.0397
      3 C          -3.1760    0.5472   -0.2826 C.ar    1  UNL1        0.1421
      4 O          -1.9350    0.6002   -0.7084 O.2     1  UNL1       -0.4535
      5 C          -1.3819    1.6731   -1.1950 C.ar    1  UNL1        0.1532
      6 C          -2.0126    2.8823   -1.3274 C.ar    1  UNL1        0.0651
      7 C          -1.4605    4.0301   -1.8343 C.ar    1  UNL1       -0.0473
      8 C          -0.1587    3.9524   -2.2437 C.ar    1  UNL1       -0.0601
      9 C           0.5290    2.7633   -2.1362 C.ar    1  UNL1       -0.0441
     10 C          -0.0515    1.6060   -1.6175 C.ar    1  UNL1        0.1018
     11 C           0.7880    0.4208   -1.5725 C.2     1  UNL1        0.3428
     12 O           1.9764    0.4449   -1.9722 O.2     1  UNL1       -0.2448
     13 O           0.5384   -0.8284   -1.1501 O.3     1  UNL1       -0.4598
     14 C           1.2571   -1.9876   -1.0561 C.3     1  UNL1        0.1054
     15 C           2.3230   -2.1973   -0.0648 C.3     1  UNL1        0.0332
     16 N           3.4055   -1.2504   -0.0849 N.3     1  UNL1       -0.2991
     17 C           4.6045   -1.9500    0.5097 C.3     1  UNL1       -0.0010
     18 C           5.5492   -1.0132    1.1517 C.3     1  UNL1       -0.0402
     19 C           5.4816    0.3926    0.6560 C.3     1  UNL1       -0.0507
     20 C           4.0710    0.9406    0.6438 C.3     1  UNL1       -0.0402
     21 C           3.1227   -0.1769    0.9177 C.3     1  UNL1       -0.0010
     22 C          -3.2994    2.8616   -0.8942 C.ar    1  UNL1        0.1960
     23 O          -3.9658    3.9438   -0.9789 O.2     1  UNL1       -0.2867
     24 C          -3.6228   -0.7218    0.2254 C.ar    1  UNL1        0.0177
     25 C          -2.6625   -1.6889    0.4904 C.ar    1  UNL1       -0.0511
     26 C          -2.9001   -2.9578    0.9449 C.ar    1  UNL1       -0.0611
     27 C          -4.1886   -3.3678    1.1783 C.ar    1  UNL1       -0.0617
     28 C          -5.1979   -2.4751    0.9420 C.ar    1  UNL1       -0.0611
     29 C          -4.8620   -1.2289    0.4875 C.ar    1  UNL1       -0.0511
     30 H          -6.0433    1.4474   -0.5511 H       1  UNL1        0.0280
     31 H          -5.4943    2.9199    0.2140 H       1  UNL1        0.0280
     32 H          -5.3950    1.4320    1.1370 H       1  UNL1        0.0280
     33 H          -2.0336    4.9451   -1.9029 H       1  UNL1        0.0626
     34 H           0.3441    4.8323   -2.6587 H       1  UNL1        0.0618
     35 H           1.5726    2.7458   -2.4768 H       1  UNL1        0.0627
     36 H           0.5218   -2.8823   -0.9168 H       1  UNL1        0.0710
     37 H           1.6476   -2.2958   -2.1154 H       1  UNL1        0.0710
     38 H           2.7620   -3.2501   -0.1427 H       1  UNL1        0.0460
     39 H           1.8468   -2.2332    0.9726 H       1  UNL1        0.0460
     40 H           4.2218   -2.6717    1.2410 H       1  UNL1        0.0427
     41 H           5.0727   -2.4804   -0.3257 H       1  UNL1        0.0427
     42 H           5.5223   -1.0507    2.2711 H       1  UNL1        0.0278
     43 H           6.5942   -1.3695    0.9121 H       1  UNL1        0.0278
     44 H           5.9420    0.5165   -0.3360 H       1  UNL1        0.0266
     45 H           6.1021    1.0106    1.3551 H       1  UNL1        0.0266
     46 H           3.8792    1.3531   -0.3606 H       1  UNL1        0.0278
     47 H           3.9749    1.7380    1.4284 H       1  UNL1        0.0278
     48 H           3.2667   -0.6106    1.9381 H       1  UNL1        0.0427
     49 H           2.0756    0.0724    0.8303 H       1  UNL1        0.0427
     50 H          -1.5972   -1.4986    0.3535 H       1  UNL1        0.0625
     51 H          -2.1213   -3.6765    1.1390 H       1  UNL1        0.0618
     52 H          -4.3928   -4.3564    1.5346 H       1  UNL1        0.0618
     53 H          -6.2032   -2.7778    1.1184 H       1  UNL1        0.0618
     54 H          -5.7016   -0.5974    0.2966 H       1  UNL1        0.0625
@<TRIPOS>BOND
     1     1     2    1
     2     2     3   ar
     3     3     4   ar
     4     4     5   ar
     5     5     6   ar
     6     6     7   ar
     7     7     8   ar
     8     8     9   ar
     9     9    10   ar
    10    10    11    1
    11    11    12    2
    12    11    13    1
    13    13    14    1
    14    14    15    1
    15    15    16    1
    16    16    17    1
    17    17    18    1
    18    18    19    1
    19    19    20    1
    20    20    21    1
    21     6    22   ar
    22    22    23    2
    23     3    24    1
    24    24    25   ar
    25    25    26   ar
    26    26    27   ar
    27    27    28   ar
    28    28    29   ar
    29    22     2   ar
    30    29    24   ar
    31    10     5   ar
    32    21    16    1
    33     1    30    1
    34     1    31    1
    35     1    32    1
    36     7    33    1
    37     8    34    1
    38     9    35    1
    39    14    36    1
    40    14    37    1
    41    15    38    1
    42    15    39    1
    43    17    40    1
    44    17    41    1
    45    18    42    1
    46    18    43    1
    47    19    44    1
    48    19    45    1
    49    20    46    1
    50    20    47    1
    51    21    48    1
    52    21    49    1
    53    25    50    1
    54    26    51    1
    55    27    52    1
    56    28    53    1
    57    29    54    1
