@<TRIPOS>MOLECULE
*****
 36 38 0 0 0
SMALL
GASTEIGER

@<TRIPOS>ATOM
      1 N           5.6225    1.0280   -1.3144 N.pl3   1  UNL1       -0.3580
      2 C           4.5094    0.6066   -0.5342 C.ar    1  UNL1        0.0247
      3 C           3.7371    1.5078    0.1704 C.ar    1  UNL1       -0.0392
      4 C           2.6656    1.0582    0.9152 C.ar    1  UNL1       -0.0333
      5 C           2.3275   -0.2998    0.9839 C.ar    1  UNL1        0.1087
      6 C           3.1023   -1.1953    0.2787 C.ar    1  UNL1       -0.0333
      7 C           4.1686   -0.7283   -0.4602 C.ar    1  UNL1       -0.0392
      8 S           0.9342   -0.5654    2.0068 S.O2    1  UNL1        0.0735
      9 O           1.0506   -1.9679    2.5824 O.2     1  UNL1       -0.1499
     10 O           0.9734    0.3463    3.2146 O.2     1  UNL1       -0.1499
     11 N          -0.5567   -0.3580    1.1997 N.pl3   1  UNL1       -0.1994
     12 C          -1.0082   -1.1223    0.0929 C.ar    1  UNL1        0.1413
     13 C          -0.4080   -2.1680   -0.5742 C.ar    1  UNL1       -0.0006
     14 C          -1.1879   -2.6381   -1.6083 C.ar    1  UNL1        0.0517
     15 N          -2.2801   -1.8375   -1.5400 N.ar    1  UNL1       -0.1730
     16 N          -2.1707   -0.9759   -0.5679 N.ar    1  UNL1       -0.2173
     17 C          -3.1984   -0.0283   -0.3017 C.ar    1  UNL1        0.0675
     18 C          -2.9744    1.1710   -0.9292 C.ar    1  UNL1       -0.0362
     19 C          -3.8604    2.2352   -0.7998 C.ar    1  UNL1       -0.0598
     20 C          -4.9841    2.0519   -0.0147 C.ar    1  UNL1       -0.0616
     21 C          -5.2241    0.8350    0.6301 C.ar    1  UNL1       -0.0598
     22 C          -4.3244   -0.1998    0.4801 C.ar    1  UNL1       -0.0362
     23 H           6.4652    0.4711   -1.0187 H       1  UNL1        0.1423
     24 H           6.6268    0.7460   -1.3482 H       1  UNL1        0.1423
     25 H           4.0299    2.5430    0.0916 H       1  UNL1        0.0636
     26 H           2.1441    1.8824    1.4206 H       1  UNL1        0.0638
     27 H           2.7660   -2.1996    0.4004 H       1  UNL1        0.0638
     28 H           4.7125   -1.4992   -0.9749 H       1  UNL1        0.0636
     29 H          -1.2178    0.4049    1.5408 H       1  UNL1        0.1752
     30 H           0.5533   -2.5969   -0.3448 H       1  UNL1        0.0668
     31 H          -1.0054   -3.4365   -2.3107 H       1  UNL1        0.0848
     32 H          -2.1148    1.4122   -1.5706 H       1  UNL1        0.0639
     33 H          -3.7001    3.2013   -1.2926 H       1  UNL1        0.0618
     34 H          -5.6944    2.8522    0.1104 H       1  UNL1        0.0618
     35 H          -6.0788    0.6498    1.2458 H       1  UNL1        0.0618
     36 H          -4.4003   -1.1861    0.9276 H       1  UNL1        0.0639
@<TRIPOS>BOND
     1     1     2    1
     2     2     3   ar
     3     3     4   ar
     4     4     5   ar
     5     5     6   ar
     6     6     7   ar
     7     5     8    1
     8     8     9    2
     9     8    10    2
    10     8    11    1
    11    11    12    1
    12    12    13   ar
    13    13    14   ar
    14    14    15   ar
    15    15    16   ar
    16    16    17    1
    17    17    18   ar
    18    18    19   ar
    19    19    20   ar
    20    20    21   ar
    21    21    22   ar
    22     7     2   ar
    23    16    12   ar
    24    22    17   ar
    25     1    23    1
    26     1    24    1
    27     3    25    1
    28     4    26    1
    29     6    27    1
    30     7    28    1
    31    11    29    1
    32    13    30    1
    33    14    31    1
    34    18    32    1
    35    19    33    1
    36    20    34    1
    37    21    35    1
    38    22    36    1
