@<TRIPOS>MOLECULE
*****
 46 49 0 0 0
SMALL
GASTEIGER

@<TRIPOS>ATOM
      1 C           3.8957   -1.2726    0.0836 C.3     1  UNL1        0.0103
      2 N           3.9773    0.0776    0.5985 N.3     1  UNL1       -0.1666
      3 C           5.3037    0.3720    0.9700 C.3     1  UNL1        0.0327
      4 C           5.9423    1.6879    1.0377 C.3     1  UNL1       -0.0342
      5 C           6.2022    0.8476   -0.1812 C.3     1  UNL1       -0.0342
      6 S           3.1455    1.1387   -0.4006 S.O2    1  UNL1        0.0973
      7 O           3.8270    2.4617   -0.6447 O.2     1  UNL1       -0.1411
      8 O           3.0795    0.5005   -1.7896 O.2     1  UNL1       -0.1411
      9 N           1.4801    1.3840    0.0302 N.3     1  UNL1       -0.1766
     10 C           0.8278    0.1256   -0.0737 C.3     1  UNL1        0.0332
     11 C          -0.0238   -0.2598    1.1480 C.3     1  UNL1       -0.0171
     12 C          -0.9153   -0.9763    0.1231 C.3     1  UNL1        0.0275
     13 N          -2.3242   -0.9919    0.4885 N.pl3   1  UNL1       -0.3145
     14 C          -2.6522   -1.6066    1.7317 C.3     1  UNL1        0.0023
     15 C          -3.2256   -0.4225   -0.4152 C.ar    1  UNL1        0.1337
     16 N          -2.8057    0.0007   -1.6560 N.ar    1  UNL1       -0.2200
     17 C          -3.5748    0.5336   -2.5771 C.ar    1  UNL1        0.1204
     18 N          -4.8778    0.6952   -2.3277 N.ar    1  UNL1       -0.2178
     19 C          -5.3961    0.3254   -1.1680 C.ar    1  UNL1        0.1432
     20 N          -6.6551    0.4034   -0.7258 N.ar    1  UNL1       -0.3457
     21 C          -6.6815   -0.0958    0.5147 C.ar    1  UNL1        0.0042
     22 C          -5.3831   -0.5024    0.8600 C.ar    1  UNL1       -0.0318
     23 C          -4.5855   -0.2340   -0.2024 C.ar    1  UNL1        0.0585
     24 C          -0.5174    0.1565   -0.8189 C.3     1  UNL1       -0.0171
     25 H           4.9104   -1.7704    0.1368 H       1  UNL1        0.0408
     26 H           3.6449   -1.2696   -0.9967 H       1  UNL1        0.0408
     27 H           3.1938   -1.8902    0.6970 H       1  UNL1        0.0408
     28 H           5.7458   -0.4290    1.6412 H       1  UNL1        0.0480
     29 H           5.4365    2.6502    0.9976 H       1  UNL1        0.0281
     30 H           6.8618    1.7541    1.6954 H       1  UNL1        0.0281
     31 H           5.7346    1.1975   -1.1014 H       1  UNL1        0.0281
     32 H           7.1555    0.2910   -0.2888 H       1  UNL1        0.0281
     33 H           1.0906    2.0804   -0.6326 H       1  UNL1        0.1494
     34 H           1.3971   -0.7514   -0.3850 H       1  UNL1        0.0479
     35 H           0.4893   -0.9289    1.8485 H       1  UNL1        0.0299
     36 H          -0.4883    0.6455    1.5479 H       1  UNL1        0.0299
     37 H          -0.4881   -1.9233   -0.2164 H       1  UNL1        0.0501
     38 H          -3.3782   -2.4681    1.6395 H       1  UNL1        0.0428
     39 H          -1.7438   -2.1489    2.1738 H       1  UNL1        0.0428
     40 H          -2.9146   -0.9045    2.5541 H       1  UNL1        0.0428
     41 H          -3.1189    0.8329   -3.5334 H       1  UNL1        0.1048
     42 H          -7.5107    0.7798   -1.2202 H       1  UNL1        0.1668
     43 H          -7.5342   -0.1902    1.1761 H       1  UNL1        0.0807
     44 H          -5.0787   -0.9378    1.7863 H       1  UNL1        0.0640
     45 H          -0.4398   -0.1013   -1.8729 H       1  UNL1        0.0299
     46 H          -1.0281    1.1335   -0.5765 H       1  UNL1        0.0299
@<TRIPOS>BOND
     1     1     2    1
     2     2     3    1
     3     3     4    1
     4     4     5    1
     5     2     6    1
     6     6     7    2
     7     6     8    2
     8     6     9    1
     9     9    10    1
    10    10    11    1
    11    11    12    1
    12    12    13    1
    13    13    14    1
    14    13    15    1
    15    15    16   ar
    16    16    17   ar
    17    17    18   ar
    18    18    19   ar
    19    19    20   ar
    20    20    21   ar
    21    21    22   ar
    22    22    23   ar
    23    12    24    1
    24     5     3    1
    25    24    10    1
    26    23    15   ar
    27    23    19   ar
    28     1    25    1
    29     1    26    1
    30     1    27    1
    31     3    28    1
    32     4    29    1
    33     4    30    1
    34     5    31    1
    35     5    32    1
    36     9    33    1
    37    10    34    1
    38    11    35    1
    39    11    36    1
    40    12    37    1
    41    14    38    1
    42    14    39    1
    43    14    40    1
    44    17    41    1
    45    20    42    1
    46    21    43    1
    47    22    44    1
    48    24    45    1
    49    24    46    1
