
     RDKit          3D

 46 49  0  0  0  0  0  0  0  0999 V2000
    3.8957   -1.2726    0.0836 C   0  0  0  0  0  0  0  0  0  0  0  0
    3.9773    0.0776    0.5985 N   0  0  0  0  0  0  0  0  0  0  0  0
    5.3037    0.3720    0.9700 C   0  0  0  0  0  0  0  0  0  0  0  0
    5.9423    1.6879    1.0377 C   0  0  0  0  0  0  0  0  0  0  0  0
    6.2022    0.8476   -0.1812 C   0  0  0  0  0  0  0  0  0  0  0  0
    3.1455    1.1387   -0.4006 S   0  0  0  0  0  6  0  0  0  0  0  0
    3.8270    2.4617   -0.6447 O   0  0  0  0  0  0  0  0  0  0  0  0
    3.0795    0.5005   -1.7896 O   0  0  0  0  0  0  0  0  0  0  0  0
    1.4801    1.3840    0.0302 N   0  0  0  0  0  0  0  0  0  0  0  0
    0.8278    0.1256   -0.0737 C   0  0  1  0  0  0  0  0  0  0  0  0
   -0.0238   -0.2598    1.1480 C   0  0  0  0  0  0  0  0  0  0  0  0
   -0.9153   -0.9763    0.1231 C   0  0  1  0  0  0  0  0  0  0  0  0
   -2.3242   -0.9919    0.4885 N   0  0  0  0  0  0  0  0  0  0  0  0
   -2.6522   -1.6066    1.7317 C   0  0  0  0  0  0  0  0  0  0  0  0
   -3.2256   -0.4225   -0.4152 C   0  0  0  0  0  0  0  0  0  0  0  0
   -2.8057    0.0007   -1.6560 N   0  0  0  0  0  0  0  0  0  0  0  0
   -3.5748    0.5336   -2.5771 C   0  0  0  0  0  0  0  0  0  0  0  0
   -4.8778    0.6952   -2.3277 N   0  0  0  0  0  0  0  0  0  0  0  0
   -5.3961    0.3254   -1.1680 C   0  0  0  0  0  0  0  0  0  0  0  0
   -6.6551    0.4034   -0.7258 N   0  0  0  0  0  0  0  0  0  0  0  0
   -6.6815   -0.0958    0.5147 C   0  0  0  0  0  0  0  0  0  0  0  0
   -5.3831   -0.5024    0.8600 C   0  0  0  0  0  0  0  0  0  0  0  0
   -4.5855   -0.2340   -0.2024 C   0  0  0  0  0  0  0  0  0  0  0  0
   -0.5174    0.1565   -0.8189 C   0  0  0  0  0  0  0  0  0  0  0  0
    4.9104   -1.7704    0.1368 H   0  0  0  0  0  0  0  0  0  0  0  0
    3.6449   -1.2696   -0.9967 H   0  0  0  0  0  0  0  0  0  0  0  0
    3.1938   -1.8902    0.6970 H   0  0  0  0  0  0  0  0  0  0  0  0
    5.7458   -0.4290    1.6412 H   0  0  0  0  0  0  0  0  0  0  0  0
    5.4365    2.6502    0.9976 H   0  0  0  0  0  0  0  0  0  0  0  0
    6.8618    1.7541    1.6954 H   0  0  0  0  0  0  0  0  0  0  0  0
    5.7346    1.1975   -1.1014 H   0  0  0  0  0  0  0  0  0  0  0  0
    7.1555    0.2910   -0.2888 H   0  0  0  0  0  0  0  0  0  0  0  0
    1.0906    2.0804   -0.6326 H   0  0  0  0  0  0  0  0  0  0  0  0
    1.3971   -0.7514   -0.3850 H   0  0  0  0  0  0  0  0  0  0  0  0
    0.4893   -0.9289    1.8485 H   0  0  0  0  0  0  0  0  0  0  0  0
   -0.4883    0.6455    1.5479 H   0  0  0  0  0  0  0  0  0  0  0  0
   -0.4881   -1.9233   -0.2164 H   0  0  0  0  0  0  0  0  0  0  0  0
   -3.3782   -2.4681    1.6395 H   0  0  0  0  0  0  0  0  0  0  0  0
   -1.7438   -2.1489    2.1738 H   0  0  0  0  0  0  0  0  0  0  0  0
   -2.9146   -0.9045    2.5541 H   0  0  0  0  0  0  0  0  0  0  0  0
   -3.1189    0.8329   -3.5334 H   0  0  0  0  0  0  0  0  0  0  0  0
   -7.5107    0.7798   -1.2202 H   0  0  0  0  0  0  0  0  0  0  0  0
   -7.5342   -0.1902    1.1761 H   0  0  0  0  0  0  0  0  0  0  0  0
   -5.0787   -0.9378    1.7863 H   0  0  0  0  0  0  0  0  0  0  0  0
   -0.4398   -0.1013   -1.8729 H   0  0  0  0  0  0  0  0  0  0  0  0
   -1.0281    1.1335   -0.5765 H   0  0  0  0  0  0  0  0  0  0  0  0
  1  2  1  0
  2  3  1  0
  3  4  1  0
  4  5  1  0
  2  6  1  0
  6  7  2  0
  6  8  2  0
  6  9  1  0
  9 10  1  0
 10 11  1  0
 11 12  1  0
 12 13  1  0
 13 14  1  0
 13 15  1  0
 15 16  2  0
 16 17  1  0
 17 18  2  0
 18 19  1  0
 19 20  1  0
 20 21  1  0
 21 22  2  0
 22 23  1  0
 12 24  1  0
  5  3  1  0
 24 10  1  0
 23 15  1  0
 23 19  2  0
  1 25  1  0
  1 26  1  0
  1 27  1  0
  3 28  1  0
  4 29  1  0
  4 30  1  0
  5 31  1  0
  5 32  1  0
  9 33  1  0
 10 34  1  6
 11 35  1  0
 11 36  1  0
 12 37  1  6
 14 38  1  0
 14 39  1  0
 14 40  1  0
 17 41  1  0
 20 42  1  0
 21 43  1  0
 22 44  1  0
 24 45  1  0
 24 46  1  0
M  END
$$$$
