@<TRIPOS>MOLECULE
*****
 33 36 0 0 0
SMALL
GASTEIGER

@<TRIPOS>ATOM
      1 O           0.0794   -3.4580   -1.8587 O.2     1  UNL1       -0.2870
      2 C           0.1004   -2.3608   -1.2555 C.ar    1  UNL1        0.1931
      3 C           1.2911   -1.7475   -0.8643 C.ar    1  UNL1        0.0287
      4 C           1.3187   -0.5441   -0.2026 C.ar    1  UNL1        0.1392
      5 C           2.5916    0.0655    0.1903 C.ar    1  UNL1        0.0174
      6 C           2.5721    1.2833    0.8578 C.ar    1  UNL1       -0.0511
      7 C           3.7481    1.8872    1.2432 C.ar    1  UNL1       -0.0611
      8 C           4.9674    1.3017    0.9778 C.ar    1  UNL1       -0.0617
      9 C           5.0046    0.0946    0.3170 C.ar    1  UNL1       -0.0611
     10 C           3.8074   -0.4964   -0.0623 C.ar    1  UNL1       -0.0511
     11 O           0.1754    0.0600    0.0765 O.2     1  UNL1       -0.4540
     12 C          -0.9761   -0.4661   -0.2651 C.ar    1  UNL1        0.1469
     13 C          -1.0559   -1.6759   -0.9327 C.ar    1  UNL1        0.0646
     14 C          -2.2731   -2.2172   -1.2856 C.ar    1  UNL1       -0.0468
     15 C          -3.4053   -1.5081   -0.9484 C.ar    1  UNL1       -0.0531
     16 C          -3.3438   -0.2961   -0.2804 C.ar    1  UNL1       -0.0143
     17 C          -4.4896    0.4132    0.0563 C.ar    1  UNL1       -0.0539
     18 C          -4.4177    1.6210    0.7224 C.ar    1  UNL1       -0.0612
     19 C          -3.1913    2.1484    1.0681 C.ar    1  UNL1       -0.0611
     20 C          -2.0434    1.4561    0.7408 C.ar    1  UNL1       -0.0505
     21 C          -2.1312    0.2462    0.0729 C.ar    1  UNL1        0.0251
     22 H           2.1849   -2.3100   -1.1320 H       1  UNL1        0.0693
     23 H           1.6501    1.7876    1.0923 H       1  UNL1        0.0625
     24 H           3.7680    2.8433    1.7688 H       1  UNL1        0.0618
     25 H           5.9005    1.7881    1.2875 H       1  UNL1        0.0618
     26 H           5.9208   -0.4167    0.0784 H       1  UNL1        0.0618
     27 H           3.8814   -1.4441   -0.5791 H       1  UNL1        0.0625
     28 H          -2.2675   -3.1632   -1.8045 H       1  UNL1        0.0626
     29 H          -4.3600   -1.9128   -1.2143 H       1  UNL1        0.0624
     30 H          -5.4312   -0.0456   -0.2387 H       1  UNL1        0.0624
     31 H          -5.3341    2.1315    0.9606 H       1  UNL1        0.0618
     32 H          -3.1753    3.0963    1.5891 H       1  UNL1        0.0618
     33 H          -1.0661    1.8385    0.9956 H       1  UNL1        0.0625
@<TRIPOS>BOND
     1     1     2    2
     2     2     3   ar
     3     3     4   ar
     4     4     5    1
     5     5     6   ar
     6     6     7   ar
     7     7     8   ar
     8     8     9   ar
     9     9    10   ar
    10     4    11   ar
    11    11    12   ar
    12    12    13   ar
    13    13    14   ar
    14    14    15   ar
    15    15    16   ar
    16    16    17   ar
    17    17    18   ar
    18    18    19   ar
    19    19    20   ar
    20    20    21   ar
    21    13     2   ar
    22    21    16   ar
    23    10     5   ar
    24    21    12   ar
    25     3    22    1
    26     6    23    1
    27     7    24    1
    28     8    25    1
    29     9    26    1
    30    10    27    1
    31    14    28    1
    32    15    29    1
    33    17    30    1
    34    18    31    1
    35    19    32    1
    36    20    33    1
