
     RDKit          3D

 33 36  0  0  0  0  0  0  0  0999 V2000
    0.0794   -3.4580   -1.8587 O   0  0  0  0  0  0  0  0  0  0  0  0
    0.1004   -2.3608   -1.2555 C   0  0  0  0  0  0  0  0  0  0  0  0
    1.2911   -1.7475   -0.8643 C   0  0  0  0  0  0  0  0  0  0  0  0
    1.3187   -0.5441   -0.2026 C   0  0  0  0  0  0  0  0  0  0  0  0
    2.5916    0.0655    0.1903 C   0  0  0  0  0  0  0  0  0  0  0  0
    2.5721    1.2833    0.8578 C   0  0  0  0  0  0  0  0  0  0  0  0
    3.7481    1.8872    1.2432 C   0  0  0  0  0  0  0  0  0  0  0  0
    4.9674    1.3017    0.9778 C   0  0  0  0  0  0  0  0  0  0  0  0
    5.0046    0.0946    0.3170 C   0  0  0  0  0  0  0  0  0  0  0  0
    3.8074   -0.4964   -0.0623 C   0  0  0  0  0  0  0  0  0  0  0  0
    0.1754    0.0600    0.0765 O   0  0  0  0  0  0  0  0  0  0  0  0
   -0.9761   -0.4661   -0.2651 C   0  0  0  0  0  0  0  0  0  0  0  0
   -1.0559   -1.6759   -0.9327 C   0  0  0  0  0  0  0  0  0  0  0  0
   -2.2731   -2.2172   -1.2856 C   0  0  0  0  0  0  0  0  0  0  0  0
   -3.4053   -1.5081   -0.9484 C   0  0  0  0  0  0  0  0  0  0  0  0
   -3.3438   -0.2961   -0.2804 C   0  0  0  0  0  0  0  0  0  0  0  0
   -4.4896    0.4132    0.0563 C   0  0  0  0  0  0  0  0  0  0  0  0
   -4.4177    1.6210    0.7224 C   0  0  0  0  0  0  0  0  0  0  0  0
   -3.1913    2.1484    1.0681 C   0  0  0  0  0  0  0  0  0  0  0  0
   -2.0434    1.4561    0.7408 C   0  0  0  0  0  0  0  0  0  0  0  0
   -2.1312    0.2462    0.0729 C   0  0  0  0  0  0  0  0  0  0  0  0
    2.1849   -2.3100   -1.1320 H   0  0  0  0  0  0  0  0  0  0  0  0
    1.6501    1.7876    1.0923 H   0  0  0  0  0  0  0  0  0  0  0  0
    3.7680    2.8433    1.7688 H   0  0  0  0  0  0  0  0  0  0  0  0
    5.9005    1.7881    1.2875 H   0  0  0  0  0  0  0  0  0  0  0  0
    5.9208   -0.4167    0.0784 H   0  0  0  0  0  0  0  0  0  0  0  0
    3.8814   -1.4441   -0.5791 H   0  0  0  0  0  0  0  0  0  0  0  0
   -2.2675   -3.1632   -1.8045 H   0  0  0  0  0  0  0  0  0  0  0  0
   -4.3600   -1.9128   -1.2143 H   0  0  0  0  0  0  0  0  0  0  0  0
   -5.4312   -0.0456   -0.2387 H   0  0  0  0  0  0  0  0  0  0  0  0
   -5.3341    2.1315    0.9606 H   0  0  0  0  0  0  0  0  0  0  0  0
   -3.1753    3.0963    1.5891 H   0  0  0  0  0  0  0  0  0  0  0  0
   -1.0661    1.8385    0.9956 H   0  0  0  0  0  0  0  0  0  0  0  0
  1  2  2  0
  2  3  1  0
  3  4  2  0
  4  5  1  0
  5  6  2  0
  6  7  1  0
  7  8  2  0
  8  9  1  0
  9 10  2  0
  4 11  1  0
 11 12  1  0
 12 13  2  0
 13 14  1  0
 14 15  2  0
 15 16  1  0
 16 17  2  0
 17 18  1  0
 18 19  2  0
 19 20  1  0
 20 21  2  0
 13  2  1  0
 21 16  1  0
 10  5  1  0
 21 12  1  0
  3 22  1  0
  6 23  1  0
  7 24  1  0
  8 25  1  0
  9 26  1  0
 10 27  1  0
 14 28  1  0
 15 29  1  0
 17 30  1  0
 18 31  1  0
 19 32  1  0
 20 33  1  0
M  END
$$$$
