@<TRIPOS>MOLECULE
*****
 42 44 0 0 0
SMALL
GASTEIGER

@<TRIPOS>ATOM
      1 C          -1.4995   -1.8347   -0.0171 C.3     1  UNL1        0.0100
      2 N          -2.0830   -0.5108    0.0651 N.am    1  UNL1       -0.2549
      3 C          -1.2837    0.6311   -0.0723 C.2     1  UNL1        0.3437
      4 O          -1.8130    1.7753   -0.0071 O.2     1  UNL1       -0.2471
      5 N           0.1301    0.5836   -0.2862 N.ar    1  UNL1       -0.1571
      6 N           0.9026   -0.4715   -0.3802 N.ar    1  UNL1       -0.1403
      7 C           2.1799   -0.1210   -0.5838 C.ar    1  UNL1        0.1829
      8 C           3.3070   -1.0303   -0.7374 C.ar    1  UNL1        0.0210
      9 C           3.1240   -2.3434   -1.1113 C.ar    1  UNL1       -0.0496
     10 C           4.1720   -3.2276   -1.2653 C.ar    1  UNL1       -0.0427
     11 C           5.4581   -2.7970   -1.0403 C.ar    1  UNL1        0.0410
     12 CL          6.7883   -3.9427   -1.2422 Cl      1  UNL1       -0.0835
     13 C           5.6770   -1.4861   -0.6639 C.ar    1  UNL1       -0.0427
     14 C           4.5978   -0.6047   -0.5133 C.ar    1  UNL1       -0.0496
     15 N           2.1647    1.2227   -0.6123 N.ar    1  UNL1       -0.2003
     16 C           0.9107    1.6561   -0.4303 C.ar    1  UNL1        0.1965
     17 S           0.4130    3.3576   -0.3947 S.3     1  UNL1       -0.0769
     18 C           0.4952    3.9544    1.3130 C.3     1  UNL1        0.0965
     19 C           1.9388    3.9643    1.7550 C.3     1  UNL1        0.3992
     20 F           2.0830    4.4043    3.0399 F       1  UNL1       -0.1698
     21 F           2.6198    4.7995    0.8683 F       1  UNL1       -0.1698
     22 F           2.4441    2.6901    1.6029 F       1  UNL1       -0.1698
     23 C          -3.4836   -0.4187    0.2555 C.ar    1  UNL1        0.0377
     24 C          -4.1493   -1.4924    0.8705 C.ar    1  UNL1       -0.0402
     25 C          -5.5051   -1.4944    1.0526 C.ar    1  UNL1       -0.0600
     26 C          -6.2557   -0.4240    0.6292 C.ar    1  UNL1       -0.0616
     27 C          -5.6493    0.6517    0.0215 C.ar    1  UNL1       -0.0600
     28 C          -4.2725    0.6310   -0.1534 C.ar    1  UNL1       -0.0402
     29 H          -0.7873   -1.9239   -0.8899 H       1  UNL1        0.0433
     30 H          -0.9265   -2.0924    0.8931 H       1  UNL1        0.0433
     31 H          -2.2683   -2.6287   -0.2092 H       1  UNL1        0.0433
     32 H           2.1059   -2.6629   -1.2838 H       1  UNL1        0.0625
     33 H           3.9907   -4.2507   -1.5595 H       1  UNL1        0.0632
     34 H           6.6767   -1.1302   -0.4833 H       1  UNL1        0.0632
     35 H           4.7887    0.4176   -0.2180 H       1  UNL1        0.0625
     36 H           0.0452    4.9649    1.3276 H       1  UNL1        0.0469
     37 H          -0.1236    3.3138    2.0075 H       1  UNL1        0.0469
     38 H          -3.5613   -2.3292    1.2155 H       1  UNL1        0.0636
     39 H          -5.9398   -2.3663    1.5373 H       1  UNL1        0.0618
     40 H          -7.3310   -0.4334    0.7779 H       1  UNL1        0.0618
     41 H          -6.2426    1.5114   -0.3193 H       1  UNL1        0.0618
     42 H          -3.8381    1.4872   -0.6514 H       1  UNL1        0.0636
@<TRIPOS>BOND
     1     1     2    1
     2     2     3   am
     3     3     4    2
     4     3     5   am
     5     5     6   ar
     6     6     7   ar
     7     7     8    1
     8     8     9   ar
     9     9    10   ar
    10    10    11   ar
    11    11    12    1
    12    11    13   ar
    13    13    14   ar
    14     7    15   ar
    15    15    16   ar
    16    16    17    1
    17    17    18    1
    18    18    19    1
    19    19    20    1
    20    19    21    1
    21    19    22    1
    22     2    23    1
    23    23    24   ar
    24    24    25   ar
    25    25    26   ar
    26    26    27   ar
    27    27    28   ar
    28    16     5   ar
    29    28    23   ar
    30    14     8   ar
    31     1    29    1
    32     1    30    1
    33     1    31    1
    34     9    32    1
    35    10    33    1
    36    13    34    1
    37    14    35    1
    38    18    36    1
    39    18    37    1
    40    24    38    1
    41    25    39    1
    42    26    40    1
    43    27    41    1
    44    28    42    1
