
     RDKit          3D

 42 44  0  0  0  0  0  0  0  0999 V2000
   -1.4995   -1.8347   -0.0171 C   0  0  0  0  0  0  0  0  0  0  0  0
   -2.0830   -0.5108    0.0651 N   0  0  0  0  0  0  0  0  0  0  0  0
   -1.2837    0.6311   -0.0723 C   0  0  0  0  0  0  0  0  0  0  0  0
   -1.8130    1.7753   -0.0071 O   0  0  0  0  0  0  0  0  0  0  0  0
    0.1301    0.5836   -0.2862 N   0  0  0  0  0  0  0  0  0  0  0  0
    0.9026   -0.4715   -0.3802 N   0  0  0  0  0  0  0  0  0  0  0  0
    2.1799   -0.1210   -0.5838 C   0  0  0  0  0  0  0  0  0  0  0  0
    3.3070   -1.0303   -0.7374 C   0  0  0  0  0  0  0  0  0  0  0  0
    3.1240   -2.3434   -1.1113 C   0  0  0  0  0  0  0  0  0  0  0  0
    4.1720   -3.2276   -1.2653 C   0  0  0  0  0  0  0  0  0  0  0  0
    5.4581   -2.7970   -1.0403 C   0  0  0  0  0  0  0  0  0  0  0  0
    6.7883   -3.9427   -1.2422 Cl  0  0  0  0  0  0  0  0  0  0  0  0
    5.6770   -1.4861   -0.6639 C   0  0  0  0  0  0  0  0  0  0  0  0
    4.5978   -0.6047   -0.5133 C   0  0  0  0  0  0  0  0  0  0  0  0
    2.1647    1.2227   -0.6123 N   0  0  0  0  0  0  0  0  0  0  0  0
    0.9107    1.6561   -0.4303 C   0  0  0  0  0  0  0  0  0  0  0  0
    0.4130    3.3576   -0.3947 S   0  0  0  0  0  0  0  0  0  0  0  0
    0.4952    3.9544    1.3130 C   0  0  0  0  0  0  0  0  0  0  0  0
    1.9388    3.9643    1.7550 C   0  0  0  0  0  0  0  0  0  0  0  0
    2.0830    4.4043    3.0399 F   0  0  0  0  0  0  0  0  0  0  0  0
    2.6198    4.7995    0.8683 F   0  0  0  0  0  0  0  0  0  0  0  0
    2.4441    2.6901    1.6029 F   0  0  0  0  0  0  0  0  0  0  0  0
   -3.4836   -0.4187    0.2555 C   0  0  0  0  0  0  0  0  0  0  0  0
   -4.1493   -1.4924    0.8705 C   0  0  0  0  0  0  0  0  0  0  0  0
   -5.5051   -1.4944    1.0526 C   0  0  0  0  0  0  0  0  0  0  0  0
   -6.2557   -0.4240    0.6292 C   0  0  0  0  0  0  0  0  0  0  0  0
   -5.6493    0.6517    0.0215 C   0  0  0  0  0  0  0  0  0  0  0  0
   -4.2725    0.6310   -0.1534 C   0  0  0  0  0  0  0  0  0  0  0  0
   -0.7873   -1.9239   -0.8899 H   0  0  0  0  0  0  0  0  0  0  0  0
   -0.9265   -2.0924    0.8931 H   0  0  0  0  0  0  0  0  0  0  0  0
   -2.2683   -2.6287   -0.2092 H   0  0  0  0  0  0  0  0  0  0  0  0
    2.1059   -2.6629   -1.2838 H   0  0  0  0  0  0  0  0  0  0  0  0
    3.9907   -4.2507   -1.5595 H   0  0  0  0  0  0  0  0  0  0  0  0
    6.6767   -1.1302   -0.4833 H   0  0  0  0  0  0  0  0  0  0  0  0
    4.7887    0.4176   -0.2180 H   0  0  0  0  0  0  0  0  0  0  0  0
    0.0452    4.9649    1.3276 H   0  0  0  0  0  0  0  0  0  0  0  0
   -0.1236    3.3138    2.0075 H   0  0  0  0  0  0  0  0  0  0  0  0
   -3.5613   -2.3292    1.2155 H   0  0  0  0  0  0  0  0  0  0  0  0
   -5.9398   -2.3663    1.5373 H   0  0  0  0  0  0  0  0  0  0  0  0
   -7.3310   -0.4334    0.7779 H   0  0  0  0  0  0  0  0  0  0  0  0
   -6.2426    1.5114   -0.3193 H   0  0  0  0  0  0  0  0  0  0  0  0
   -3.8381    1.4872   -0.6514 H   0  0  0  0  0  0  0  0  0  0  0  0
  1  2  1  0
  2  3  1  0
  3  4  2  0
  3  5  1  0
  5  6  1  0
  6  7  2  0
  7  8  1  0
  8  9  2  0
  9 10  1  0
 10 11  2  0
 11 12  1  0
 11 13  1  0
 13 14  2  0
  7 15  1  0
 15 16  2  0
 16 17  1  0
 17 18  1  0
 18 19  1  0
 19 20  1  0
 19 21  1  0
 19 22  1  0
  2 23  1  0
 23 24  2  0
 24 25  1  0
 25 26  2  0
 26 27  1  0
 27 28  2  0
 16  5  1  0
 28 23  1  0
 14  8  1  0
  1 29  1  0
  1 30  1  0
  1 31  1  0
  9 32  1  0
 10 33  1  0
 13 34  1  0
 14 35  1  0
 18 36  1  0
 18 37  1  0
 24 38  1  0
 25 39  1  0
 26 40  1  0
 27 41  1  0
 28 42  1  0
M  END
$$$$
