
     RDKit          3D

 47 49  0  0  0  0  0  0  0  0999 V2000
   -3.8443    0.0068   -1.8589 C   0  0  0  0  0  0  0  0  0  0  0  0
   -3.7159   -0.0935   -0.3204 C   0  0  0  0  0  0  0  0  0  0  0  0
   -2.8938    1.0717    0.0656 C   0  0  0  0  0  0  0  0  0  0  0  0
   -3.5203    2.2554    0.4451 C   0  0  0  0  0  0  0  0  0  0  0  0
   -2.7926    3.3815    0.7105 C   0  0  0  0  0  0  0  0  0  0  0  0
   -3.4353    4.5293    1.0813 F   0  0  0  0  0  0  0  0  0  0  0  0
   -1.4201    3.4086    0.6188 C   0  0  0  0  0  0  0  0  0  0  0  0
   -0.6896    4.5903    0.8978 N   0  0  0  0  0  0  0  0  0  0  0  0
   -0.8262    2.2132    0.2404 C   0  0  0  0  0  0  0  0  0  0  0  0
    0.4822    2.0003    0.0838 N   0  0  0  0  0  0  0  0  0  0  0  0
    0.6218    0.7249   -0.2815 C   0  0  0  0  0  0  0  0  0  0  0  0
    1.9229    0.0799   -0.5708 C   0  0  0  0  0  0  0  0  0  0  0  0
    2.3795   -0.4822   -1.7341 C   0  0  0  0  0  0  0  0  0  0  0  0
    3.6387   -0.9471   -1.5109 C   0  0  0  0  0  0  0  0  0  0  0  0
    3.9288   -0.6529   -0.1918 C   0  0  0  0  0  0  0  0  0  0  0  0
    5.4759   -1.0513    0.6272 P   0  0  0  0  0  5  0  0  0  0  0  0
    5.3401   -2.3540    1.3907 O   0  0  0  0  0  0  0  0  0  0  0  0
    5.9209    0.2169    1.6837 O   0  0  0  0  0  0  0  0  0  0  0  0
    6.7153   -1.2319   -0.4894 O   0  0  0  0  0  0  0  0  0  0  0  0
    2.8894   -0.0514    0.3123 O   0  0  0  0  0  0  0  0  0  0  0  0
   -0.5971    0.1062   -0.3616 N   0  0  0  0  0  0  0  0  0  0  0  0
   -0.8310   -1.2612   -0.7006 C   0  0  0  0  0  0  0  0  0  0  0  0
   -0.7133   -2.2465    0.4239 C   0  0  0  0  0  0  0  0  0  0  0  0
   -1.5684   -2.0850    1.6079 C   0  0  0  0  0  0  0  0  0  0  0  0
    0.7286   -2.4183    0.9274 C   0  0  0  0  0  0  0  0  0  0  0  0
   -1.5280    1.0504   -0.0350 C   0  0  0  0  0  0  0  0  0  0  0  0
   -4.0652   -0.9656   -2.3066 H   0  0  0  0  0  0  0  0  0  0  0  0
   -2.8738    0.3592   -2.2301 H   0  0  0  0  0  0  0  0  0  0  0  0
   -4.6608    0.6977   -2.1486 H   0  0  0  0  0  0  0  0  0  0  0  0
   -3.3288   -1.0743   -0.1340 H   0  0  0  0  0  0  0  0  0  0  0  0
   -4.7795    0.0349   -0.0045 H   0  0  0  0  0  0  0  0  0  0  0  0
   -4.5995    2.2314    0.5161 H   0  0  0  0  0  0  0  0  0  0  0  0
   -0.0852    4.9956    0.1255 H   0  0  0  0  0  0  0  0  0  0  0  0
   -0.7086    5.0832    1.8082 H   0  0  0  0  0  0  0  0  0  0  0  0
    1.8410   -0.5428   -2.6564 H   0  0  0  0  0  0  0  0  0  0  0  0
    4.3303   -1.4575   -2.1935 H   0  0  0  0  0  0  0  0  0  0  0  0
    5.5373    1.0609    1.3357 H   0  0  0  0  0  0  0  0  0  0  0  0
    6.3656   -1.0179   -1.4073 H   0  0  0  0  0  0  0  0  0  0  0  0
    0.1240   -1.5238   -1.3231 H   0  0  0  0  0  0  0  0  0  0  0  0
   -1.5700   -1.4928   -1.4601 H   0  0  0  0  0  0  0  0  0  0  0  0
   -0.9048   -3.2759   -0.0469 H   0  0  0  0  0  0  0  0  0  0  0  0
   -1.8931   -1.0600    1.8372 H   0  0  0  0  0  0  0  0  0  0  0  0
   -2.5143   -2.6770    1.4465 H   0  0  0  0  0  0  0  0  0  0  0  0
   -1.0923   -2.5437    2.4965 H   0  0  0  0  0  0  0  0  0  0  0  0
    0.7543   -3.3435    1.5835 H   0  0  0  0  0  0  0  0  0  0  0  0
    1.4302   -2.6532    0.1097 H   0  0  0  0  0  0  0  0  0  0  0  0
    1.0247   -1.5951    1.5910 H   0  0  0  0  0  0  0  0  0  0  0  0
  1  2  1  0
  2  3  1  0
  3  4  2  0
  4  5  1  0
  5  6  1  0
  5  7  2  0
  7  8  1  0
  7  9  1  0
  9 10  1  0
 10 11  2  0
 11 12  1  0
 12 13  2  0
 13 14  1  0
 14 15  2  0
 15 16  1  0
 16 17  2  0
 16 18  1  0
 16 19  1  0
 15 20  1  0
 11 21  1  0
 21 22  1  0
 22 23  1  0
 23 24  1  0
 23 25  1  0
 21 26  1  0
 26  3  1  0
 26  9  2  0
 20 12  1  0
  1 27  1  0
  1 28  1  0
  1 29  1  0
  2 30  1  0
  2 31  1  0
  4 32  1  0
  8 33  1  0
  8 34  1  0
 13 35  1  0
 14 36  1  0
 18 37  1  0
 19 38  1  0
 22 39  1  0
 22 40  1  0
 23 41  1  0
 24 42  1  0
 24 43  1  0
 24 44  1  0
 25 45  1  0
 25 46  1  0
 25 47  1  0
M  END
$$$$
