@<TRIPOS>MOLECULE
*****
 47 49 0 0 0
SMALL
GASTEIGER

@<TRIPOS>ATOM
      1 C          -3.8443    0.0068   -1.8589 C.3     1  UNL1       -0.0612
      2 C          -3.7159   -0.0935   -0.3204 C.3     1  UNL1       -0.0284
      3 C          -2.8938    1.0717    0.0656 C.ar    1  UNL1       -0.0192
      4 C          -3.5203    2.2554    0.4451 C.ar    1  UNL1       -0.0194
      5 C          -2.7926    3.3815    0.7105 C.ar    1  UNL1        0.1464
      6 F          -3.4353    4.5293    1.0813 F       1  UNL1       -0.2035
      7 C          -1.4201    3.4086    0.6188 C.ar    1  UNL1        0.0880
      8 N          -0.6896    4.5903    0.8978 N.pl3   1  UNL1       -0.3540
      9 C          -0.8262    2.2132    0.2404 C.ar    1  UNL1        0.1134
     10 N           0.4822    2.0003    0.0838 N.ar    1  UNL1       -0.2226
     11 C           0.6218    0.7249   -0.2815 C.ar    1  UNL1        0.1776
     12 C           1.9229    0.0799   -0.5708 C.ar    1  UNL1        0.1712
     13 C           2.3795   -0.4822   -1.7341 C.ar    1  UNL1       -0.0119
     14 C           3.6387   -0.9471   -1.5109 C.ar    1  UNL1       -0.0077
     15 C           3.9288   -0.6529   -0.1918 C.ar    1  UNL1        0.2160
     16 P           5.4759   -1.0513    0.6272 P.3     1  UNL1        0.3929
     17 O           5.3401   -2.3540    1.3907 O.2     1  UNL1       -0.2503
     18 O           5.9209    0.2169    1.6837 O.3     1  UNL1       -0.3187
     19 O           6.7153   -1.2319   -0.4894 O.3     1  UNL1       -0.3187
     20 O           2.8894   -0.0514    0.3123 O.2     1  UNL1       -0.4443
     21 N          -0.5971    0.1062   -0.3616 N.ar    1  UNL1       -0.3206
     22 C          -0.8310   -1.2612   -0.7006 C.3     1  UNL1        0.0277
     23 C          -0.7133   -2.2465    0.4239 C.3     1  UNL1       -0.0286
     24 C          -1.5684   -2.0850    1.6079 C.3     1  UNL1       -0.0610
     25 C           0.7286   -2.4183    0.9274 C.3     1  UNL1       -0.0610
     26 C          -1.5280    1.0504   -0.0350 C.ar    1  UNL1        0.0744
     27 H          -4.0652   -0.9656   -2.3066 H       1  UNL1        0.0233
     28 H          -2.8738    0.3592   -2.2301 H       1  UNL1        0.0233
     29 H          -4.6608    0.6977   -2.1486 H       1  UNL1        0.0233
     30 H          -3.3288   -1.0743   -0.1340 H       1  UNL1        0.0311
     31 H          -4.7795    0.0349   -0.0045 H       1  UNL1        0.0311
     32 H          -4.5995    2.2314    0.5161 H       1  UNL1        0.0650
     33 H          -0.0852    4.9956    0.1255 H       1  UNL1        0.1425
     34 H          -0.7086    5.0832    1.8082 H       1  UNL1        0.1425
     35 H           1.8410   -0.5428   -2.6564 H       1  UNL1        0.0657
     36 H           4.3303   -1.4575   -2.1935 H       1  UNL1        0.0658
     37 H           5.5373    1.0609    1.3357 H       1  UNL1        0.2201
     38 H           6.3656   -1.0179   -1.4073 H       1  UNL1        0.2201
     39 H           0.1240   -1.5238   -1.3231 H       1  UNL1        0.0495
     40 H          -1.5700   -1.4928   -1.4601 H       1  UNL1        0.0495
     41 H          -0.9048   -3.2759   -0.0469 H       1  UNL1        0.0313
     42 H          -1.8931   -1.0600    1.8372 H       1  UNL1        0.0233
     43 H          -2.5143   -2.6770    1.4465 H       1  UNL1        0.0233
     44 H          -1.0923   -2.5437    2.4965 H       1  UNL1        0.0233
     45 H           0.7543   -3.3435    1.5835 H       1  UNL1        0.0233
     46 H           1.4302   -2.6532    0.1097 H       1  UNL1        0.0233
     47 H           1.0247   -1.5951    1.5910 H       1  UNL1        0.0233
@<TRIPOS>BOND
     1     1     2    1
     2     2     3    1
     3     3     4   ar
     4     4     5   ar
     5     5     6    1
     6     5     7   ar
     7     7     8    1
     8     7     9   ar
     9     9    10   ar
    10    10    11   ar
    11    11    12    1
    12    12    13   ar
    13    13    14   ar
    14    14    15   ar
    15    15    16    1
    16    16    17    2
    17    16    18    1
    18    16    19    1
    19    15    20   ar
    20    11    21   ar
    21    21    22    1
    22    22    23    1
    23    23    24    1
    24    23    25    1
    25    21    26   ar
    26    26     3   ar
    27    26     9   ar
    28    20    12   ar
    29     1    27    1
    30     1    28    1
    31     1    29    1
    32     2    30    1
    33     2    31    1
    34     4    32    1
    35     8    33    1
    36     8    34    1
    37    13    35    1
    38    14    36    1
    39    18    37    1
    40    19    38    1
    41    22    39    1
    42    22    40    1
    43    23    41    1
    44    24    42    1
    45    24    43    1
    46    24    44    1
    47    25    45    1
    48    25    46    1
    49    25    47    1
