
     RDKit          3D

 92 93  0  0  0  0  0  0  0  0999 V2000
    1.3688    2.1305   -1.6517 C   0  0  0  0  0  0  0  0  0  0  0  0
    2.2789    1.0114   -1.4309 N   0  0  0  0  0  0  0  0  0  0  0  0
    1.9303   -0.2777   -1.9320 C   0  0  0  0  0  0  0  0  0  0  0  0
    2.4435   -0.6265   -3.2787 C   0  0  0  0  0  0  0  0  0  0  0  0
    2.0518    0.2306   -4.4170 C   0  0  0  0  0  0  0  0  0  0  0  0
    0.6019    0.3493   -4.7247 C   0  0  0  0  0  0  0  0  0  0  0  0
   -0.0485   -0.9810   -5.0389 C   0  0  0  0  0  0  0  0  0  0  0  0
   -1.5093   -0.7158   -5.3867 C   0  0  0  0  0  0  0  0  0  0  0  0
   -2.2050   -2.0180   -5.7027 C   0  0  0  0  0  0  0  0  0  0  0  0
   -2.2228   -2.9727   -4.5427 C   0  0  0  0  0  0  0  0  0  0  0  0
   -2.9926   -2.3424   -3.4004 C   0  0  0  0  0  0  0  0  0  0  0  0
   -3.0187   -3.2588   -2.2096 C   0  0  0  0  0  0  0  0  0  0  0  0
   -3.7777   -2.7011   -1.1320 N   0  0  0  0  0  0  0  0  0  0  0  0
   -5.2126   -3.0238   -1.0641 C   0  0  0  0  0  0  0  0  0  0  0  0
   -3.3407   -1.8697   -0.1029 C   0  0  0  0  0  0  0  0  0  0  0  0
   -4.0382   -1.4222    0.8394 O   0  0  0  0  0  0  0  0  0  0  0  0
   -2.8541   -1.0475    0.8920 O   0  0  0  0  0  0  0  0  0  0  0  0
   -3.6815   -0.5747    1.9321 C   0  0  0  0  0  0  0  0  0  0  0  0
   -3.6839   -1.3075    3.1004 C   0  0  0  0  0  0  0  0  0  0  0  0
   -4.4322   -0.9914    4.2147 C   0  0  0  0  0  0  0  0  0  0  0  0
   -5.2345    0.1247    4.1759 C   0  0  0  0  0  0  0  0  0  0  0  0
   -5.2430    0.8740    3.0056 C   0  0  0  0  0  0  0  0  0  0  0  0
   -4.4880    0.5388    1.9079 C   0  0  0  0  0  0  0  0  0  0  0  0
   -6.0970    2.0088    3.0126 N   0  0  0  0  0  4  0  0  0  0  0  0
   -6.0564    2.6812    1.7254 C   0  0  0  0  0  0  0  0  0  0  0  0
   -7.4705    1.5099    3.1947 C   0  0  0  0  0  0  0  0  0  0  0  0
   -5.8169    2.9098    4.0861 C   0  0  0  0  0  0  0  0  0  0  0  0
    3.4745    1.3209   -0.6828 C   0  0  0  0  0  0  0  0  0  0  0  0
    3.5555    2.5187   -0.3125 O   0  0  0  0  0  0  0  0  0  0  0  0
    4.4547    0.3845   -0.3946 O   0  0  0  0  0  0  0  0  0  0  0  0
    5.6034    0.6973    0.3242 C   0  0  0  0  0  0  0  0  0  0  0  0
    6.6369    1.2551   -0.4404 C   0  0  0  0  0  0  0  0  0  0  0  0
    7.7773    1.5747    0.2212 C   0  0  0  0  0  0  0  0  0  0  0  0
    7.9835    1.3926    1.5629 C   0  0  0  0  0  0  0  0  0  0  0  0
    6.9806    0.8431    2.3476 C   0  0  0  0  0  0  0  0  0  0  0  0
    5.8003    0.5082    1.6834 C   0  0  0  0  0  0  0  0  0  0  0  0
    6.9781    0.5666    3.7299 N   0  0  0  0  0  4  0  0  0  0  0  0
    5.9661    1.2967    4.4412 C   0  0  0  0  0  0  0  0  0  0  0  0
    8.2677    0.8331    4.3263 C   0  0  0  0  0  0  0  0  0  0  0  0
    6.7140   -0.8542    3.8750 C   0  0  0  0  0  0  0  0  0  0  0  0
    0.3162    1.7970   -1.7754 H   0  0  0  0  0  0  0  0  0  0  0  0
    1.4150    2.7512   -0.7067 H   0  0  0  0  0  0  0  0  0  0  0  0
    1.7572    2.7236   -2.5019 H   0  0  0  0  0  0  0  0  0  0  0  0
    2.3473   -1.0462   -1.2165 H   0  0  0  0  0  0  0  0  0  0  0  0
    0.8300   -0.3872   -1.8267 H   0  0  0  0  0  0  0  0  0  0  0  0
    2.2626   -1.7014   -3.5041 H   0  0  0  0  0  0  0  0  0  0  0  0
    3.5721   -0.5652   -3.2125 H   0  0  0  0  0  0  0  0  0  0  0  0
    2.5234   -0.2358   -5.3373 H   0  0  0  0  0  0  0  0  0  0  0  0
    2.5380    1.2287   -4.3620 H   0  0  0  0  0  0  0  0  0  0  0  0
    0.5093    0.9934   -5.6253 H   0  0  0  0  0  0  0  0  0  0  0  0
   -0.0071    0.8414   -3.9344 H   0  0  0  0  0  0  0  0  0  0  0  0
    0.4173   -1.4200   -5.9318 H   0  0  0  0  0  0  0  0  0  0  0  0
   -0.0198   -1.6693   -4.1760 H   0  0  0  0  0  0  0  0  0  0  0  0
   -2.0116   -0.1516   -4.5850 H   0  0  0  0  0  0  0  0  0  0  0  0
   -1.5627   -0.1096   -6.3317 H   0  0  0  0  0  0  0  0  0  0  0  0
   -1.6968   -2.4684   -6.5908 H   0  0  0  0  0  0  0  0  0  0  0  0
   -3.2476   -1.8222   -6.0666 H   0  0  0  0  0  0  0  0  0  0  0  0
   -1.2061   -3.2715   -4.3025 H   0  0  0  0  0  0  0  0  0  0  0  0
   -2.7479   -3.8979   -4.8982 H   0  0  0  0  0  0  0  0  0  0  0  0
   -4.0359   -2.2325   -3.7797 H   0  0  0  0  0  0  0  0  0  0  0  0
   -2.5044   -1.4102   -3.1126 H   0  0  0  0  0  0  0  0  0  0  0  0
   -3.3999   -4.2495   -2.5211 H   0  0  0  0  0  0  0  0  0  0  0  0
   -1.9599   -3.4739   -1.8698 H   0  0  0  0  0  0  0  0  0  0  0  0
   -5.8216   -2.0940   -0.9077 H   0  0  0  0  0  0  0  0  0  0  0  0
   -5.5329   -3.5936   -1.9341 H   0  0  0  0  0  0  0  0  0  0  0  0
   -5.3399   -3.6005   -0.1263 H   0  0  0  0  0  0  0  0  0  0  0  0
   -3.0596   -2.2033    3.1770 H   0  0  0  0  0  0  0  0  0  0  0  0
   -4.4192   -1.5901    5.1343 H   0  0  0  0  0  0  0  0  0  0  0  0
   -5.8245    0.3736    5.0569 H   0  0  0  0  0  0  0  0  0  0  0  0
   -4.4868    1.1118    0.9983 H   0  0  0  0  0  0  0  0  0  0  0  0
   -5.0750    3.1513    1.5739 H   0  0  0  0  0  0  0  0  0  0  0  0
   -6.8088    3.5158    1.7297 H   0  0  0  0  0  0  0  0  0  0  0  0
   -6.3185    2.0107    0.8950 H   0  0  0  0  0  0  0  0  0  0  0  0
   -7.6173    1.3664    4.2793 H   0  0  0  0  0  0  0  0  0  0  0  0
   -8.1437    2.3037    2.8348 H   0  0  0  0  0  0  0  0  0  0  0  0
   -7.6130    0.5879    2.5936 H   0  0  0  0  0  0  0  0  0  0  0  0
   -6.4391    3.8146    3.9988 H   0  0  0  0  0  0  0  0  0  0  0  0
   -4.7206    3.1061    4.1004 H   0  0  0  0  0  0  0  0  0  0  0  0
   -6.0986    2.4385    5.0619 H   0  0  0  0  0  0  0  0  0  0  0  0
    6.5161    1.4169   -1.5035 H   0  0  0  0  0  0  0  0  0  0  0  0
    8.6424    2.0159   -0.2873 H   0  0  0  0  0  0  0  0  0  0  0  0
    8.8795    1.6443    2.0797 H   0  0  0  0  0  0  0  0  0  0  0  0
    4.9016    0.0710    2.1206 H   0  0  0  0  0  0  0  0  0  0  0  0
    5.2933    1.8659    3.7713 H   0  0  0  0  0  0  0  0  0  0  0  0
    5.3367    0.6627    5.1012 H   0  0  0  0  0  0  0  0  0  0  0  0
    6.4407    2.0818    5.0990 H   0  0  0  0  0  0  0  0  0  0  0  0
    9.0937    0.4525    3.7043 H   0  0  0  0  0  0  0  0  0  0  0  0
    8.3583    1.8861    4.6369 H   0  0  0  0  0  0  0  0  0  0  0  0
    8.3057    0.1961    5.2597 H   0  0  0  0  0  0  0  0  0  0  0  0
    6.2008   -1.1049    4.8055 H   0  0  0  0  0  0  0  0  0  0  0  0
    7.6810   -1.4206    3.8673 H   0  0  0  0  0  0  0  0  0  0  0  0
    6.1374   -1.2653    3.0234 H   0  0  0  0  0  0  0  0  0  0  0  0
  1  2  1  0
  2  3  1  0
  3  4  1  0
  4  5  1  0
  5  6  1  0
  6  7  1  0
  7  8  1  0
  8  9  1  0
  9 10  1  0
 10 11  1  0
 11 12  1  0
 12 13  1  0
 13 14  1  0
 13 15  1  0
 15 16  2  0
 15 17  1  0
 17 18  1  0
 18 19  2  0
 19 20  1  0
 20 21  2  0
 21 22  1  0
 22 23  2  0
 22 24  1  0
 24 25  1  0
 24 26  1  0
 24 27  1  0
  2 28  1  0
 28 29  2  0
 28 30  1  0
 30 31  1  0
 31 32  2  0
 32 33  1  0
 33 34  2  0
 34 35  1  0
 35 36  2  0
 35 37  1  0
 37 38  1  0
 37 39  1  0
 37 40  1  0
 23 18  1  0
 36 31  1  0
  1 41  1  0
  1 42  1  0
  1 43  1  0
  3 44  1  0
  3 45  1  0
  4 46  1  0
  4 47  1  0
  5 48  1  0
  5 49  1  0
  6 50  1  0
  6 51  1  0
  7 52  1  0
  7 53  1  0
  8 54  1  0
  8 55  1  0
  9 56  1  0
  9 57  1  0
 10 58  1  0
 10 59  1  0
 11 60  1  0
 11 61  1  0
 12 62  1  0
 12 63  1  0
 14 64  1  0
 14 65  1  0
 14 66  1  0
 19 67  1  0
 20 68  1  0
 21 69  1  0
 23 70  1  0
 25 71  1  0
 25 72  1  0
 25 73  1  0
 26 74  1  0
 26 75  1  0
 26 76  1  0
 27 77  1  0
 27 78  1  0
 27 79  1  0
 32 80  1  0
 33 81  1  0
 34 82  1  0
 36 83  1  0
 38 84  1  0
 38 85  1  0
 38 86  1  0
 39 87  1  0
 39 88  1  0
 39 89  1  0
 40 90  1  0
 40 91  1  0
 40 92  1  0
M  CHG  2  24   1  37   1
M  END
$$$$
