
     RDKit          3D

 30 30  0  0  0  0  0  0  0  0999 V2000
    3.7767    0.5026   -0.7586 C   0  0  0  0  0  0  0  0  0  0  0  0
    2.6381    0.0952    0.1370 C   0  0  0  0  0  0  0  0  0  0  0  0
    2.6774   -1.3032    0.4825 N   0  0  0  0  0  0  0  0  0  0  0  0
    1.2861    0.3413   -0.5496 C   0  0  0  0  0  0  0  0  0  0  0  0
    0.3128    0.0065    0.3602 O   0  0  0  0  0  0  0  0  0  0  0  0
   -1.0482    0.0337    0.2740 C   0  0  0  0  0  0  0  0  0  0  0  0
   -1.7373   -1.0933   -0.1857 C   0  0  0  0  0  0  0  0  0  0  0  0
   -1.0415   -2.3323   -0.5887 C   0  0  0  0  0  0  0  0  0  0  0  0
   -3.1241   -1.1116   -0.2903 C   0  0  0  0  0  0  0  0  0  0  0  0
   -3.8351   -0.0012    0.0646 C   0  0  0  0  0  0  0  0  0  0  0  0
   -3.2019    1.1302    0.5220 C   0  0  0  0  0  0  0  0  0  0  0  0
   -1.8319    1.1392    0.6219 C   0  0  0  0  0  0  0  0  0  0  0  0
   -1.0677    2.3091    1.1027 C   0  0  0  0  0  0  0  0  0  0  0  0
    4.1294   -0.4278   -1.2839 H   0  0  0  0  0  0  0  0  0  0  0  0
    4.6530    0.8619   -0.1732 H   0  0  0  0  0  0  0  0  0  0  0  0
    3.5052    1.2962   -1.4614 H   0  0  0  0  0  0  0  0  0  0  0  0
    2.6925    0.6848    1.0511 H   0  0  0  0  0  0  0  0  0  0  0  0
    3.3341   -1.7550   -0.2118 H   0  0  0  0  0  0  0  0  0  0  0  0
    2.9721   -1.4262    1.4548 H   0  0  0  0  0  0  0  0  0  0  0  0
    1.3211   -0.2775   -1.4719 H   0  0  0  0  0  0  0  0  0  0  0  0
    1.3156    1.3808   -0.8986 H   0  0  0  0  0  0  0  0  0  0  0  0
   -1.6244   -2.8458   -1.4071 H   0  0  0  0  0  0  0  0  0  0  0  0
   -0.0322   -2.2074   -0.9731 H   0  0  0  0  0  0  0  0  0  0  0  0
   -1.0160   -3.0324    0.2582 H   0  0  0  0  0  0  0  0  0  0  0  0
   -3.6558   -1.9915   -0.6488 H   0  0  0  0  0  0  0  0  0  0  0  0
   -4.9166    0.0370    0.0021 H   0  0  0  0  0  0  0  0  0  0  0  0
   -3.7415    2.0183    0.8078 H   0  0  0  0  0  0  0  0  0  0  0  0
   -1.7716    3.1689    1.1507 H   0  0  0  0  0  0  0  0  0  0  0  0
   -0.7287    2.1796    2.1598 H   0  0  0  0  0  0  0  0  0  0  0  0
   -0.2395    2.6199    0.4534 H   0  0  0  0  0  0  0  0  0  0  0  0
  1  2  1  0
  2  3  1  0
  2  4  1  0
  4  5  1  0
  5  6  1  0
  6  7  2  0
  7  8  1  0
  7  9  1  0
  9 10  2  0
 10 11  1  0
 11 12  2  0
 12 13  1  0
 12  6  1  0
  1 14  1  0
  1 15  1  0
  1 16  1  0
  2 17  1  0
  3 18  1  0
  3 19  1  0
  4 20  1  0
  4 21  1  0
  8 22  1  0
  8 23  1  0
  8 24  1  0
  9 25  1  0
 10 26  1  0
 11 27  1  0
 13 28  1  0
 13 29  1  0
 13 30  1  0
M  END
$$$$
