@<TRIPOS>MOLECULE
*****
 62 64 0 0 0
SMALL
GASTEIGER

@<TRIPOS>ATOM
      1 C           3.8766   -2.4318    0.3356 C.3     1  UNK1       -0.0201
      2 C           5.0595   -2.8045   -0.5390 C.3     1  UNK1       -0.0484
      3 C           5.4847   -1.4706   -1.0846 C.3     1  UNK1       -0.0511
      4 C           4.1669   -0.7704   -1.3401 C.3     1  UNK1       -0.0340
      5 C           3.1404   -1.3555   -0.4287 C.3     1  UNK1        0.0298
      6 N           2.6435   -0.4242    0.5757 N.am    1  UNK1       -0.2834
      7 C           3.6441   -0.4178    1.6349 C.3     1  UNK1        0.1234
      8 C           4.4259   -1.6871    1.5331 C.3     1  UNK1       -0.0194
      9 C           4.4629    0.8140    1.5713 C.2     1  UNK1        0.3255
     10 O           4.6447    1.9963    0.8672 O.3     1  UNK1       -0.4793
     11 O           5.2966    0.7158    2.5339 O.2     1  UNK1       -0.2489
     12 C           1.4926    0.4004    0.7217 C.2     1  UNK1        0.2333
     13 O           1.1708    1.1825    1.6635 O.2     1  UNK1       -0.2739
     14 C           0.3885    0.4741   -0.3092 C.3     1  UNK1        0.0827
     15 C           0.9825    0.9004   -1.6363 C.3     1  UNK1       -0.0411
     16 N          -0.5776    1.3911    0.1910 N.3     1  UNK1       -0.2937
     17 C          -1.7170    1.6537   -0.6096 C.3     0  UNK0        0.1067
     18 C          -2.4863    0.3715   -0.8283 C.3     0  UNK0       -0.0232
     19 C          -2.9452   -0.2317    0.4731 C.3     0  UNK0       -0.0258
     20 C          -3.6875   -1.4774    0.1810 C.ar    0  UNK0       -0.0473
     21 C          -3.0895   -2.7392    0.0948 C.ar    0  UNK0       -0.0586
     22 C          -3.8801   -3.8350   -0.1833 C.ar    0  UNK0       -0.0615
     23 C          -5.2291   -3.7034   -0.3739 C.ar    0  UNK0       -0.0617
     24 C          -5.8738   -2.4887   -0.3015 C.ar    0  UNK0       -0.0615
     25 C          -5.0583   -1.3934   -0.0197 C.ar    0  UNK0       -0.0586
     26 C          -2.6128    2.6083    0.1270 C.2     0  UNK0        0.3243
     27 O          -2.1615    2.9471    1.2494 O.2     0  UNK0       -0.2491
     28 O          -3.8088    3.0393   -0.4264 O.3     0  UNK0       -0.4638
     29 C          -4.6182    3.9481    0.3236 C.3     0  UNK0        0.0897
     30 C          -3.8631    5.2446    0.6150 C.3     0  UNK0       -0.0306
     31 H           3.2442   -3.2813    0.6105 H       1  UNK1        0.0319
     32 H           5.8755   -3.2717    0.0495 H       1  UNK1        0.0269
     33 H           4.7289   -3.4311   -1.3670 H       1  UNK1        0.0269
     34 H           6.0430   -0.8375   -0.3805 H       1  UNK1        0.0266
     35 H           6.0677   -1.6009   -2.0210 H       1  UNK1        0.0266
     36 H           4.2697    0.3286   -1.2857 H       1  UNK1        0.0283
     37 H           3.8981   -1.0603   -2.3982 H       1  UNK1        0.0283
     38 H           2.3241   -1.8298   -0.9798 H       1  UNK1        0.0503
     39 H           3.1149   -0.4702    2.6318 H       1  UNK1        0.0617
     40 H           4.2902   -2.3763    2.3953 H       1  UNK1        0.0292
     41 H           5.5064   -1.4984    1.4724 H       1  UNK1        0.0292
     42 H           5.6065    2.2642    0.6314 H       1  UNK1        0.2951
     43 H          -0.0192   -0.5555   -0.4537 H       1  UNK1        0.0554
     44 H           0.9611    0.0928   -2.3681 H       1  UNK1        0.0249
     45 H           0.4574    1.7945   -1.9995 H       1  UNK1        0.0249
     46 H           2.0455    1.2003   -1.4929 H       1  UNK1        0.0249
     47 H          -0.0796    2.2699    0.4601 H       1  UNK1        0.1234
     48 H          -1.5123    2.1069   -1.6017 H       0  UNK0        0.0576
     49 H          -1.8136   -0.3428   -1.3255 H       0  UNK0        0.0289
     50 H          -3.3894    0.5999   -1.4392 H       0  UNK0        0.0289
     51 H          -2.0937   -0.5027    1.1242 H       0  UNK0        0.0314
     52 H          -3.6191    0.4358    1.0392 H       0  UNK0        0.0314
     53 H          -2.0300   -2.7592    0.2562 H       0  UNK0        0.0620
     54 H          -3.3743   -4.7918   -0.2406 H       0  UNK0        0.0618
     55 H          -5.7949   -4.6045   -0.5895 H       0  UNK0        0.0618
     56 H          -6.9342   -2.3765   -0.4501 H       0  UNK0        0.0618
     57 H          -5.5289   -0.4204    0.0454 H       0  UNK0        0.0620
     58 H          -4.9592    3.4897    1.2571 H       0  UNK0        0.0694
     59 H          -5.4932    4.2072   -0.3119 H       0  UNK0        0.0694
     60 H          -3.6967    5.3496    1.7195 H       0  UNK0        0.0262
     61 H          -4.4706    6.1182    0.3233 H       0  UNK0        0.0262
     62 H          -2.8954    5.2969    0.0780 H       0  UNK0        0.0262
@<TRIPOS>BOND
     1     1     2    1
     2     2     3    1
     3     3     4    1
     4     4     5    1
     5     5     6    1
     6     6     7    1
     7     7     8    1
     8     7     9    1
     9     9    10    1
    10     9    11    2
    11     6    12   am
    12    12    13    2
    13    12    14    1
    14    14    15    1
    15    14    16    1
    16    16    17    1
    17    17    18    1
    18    18    19    1
    19    19    20    1
    20    20    21   ar
    21    21    22   ar
    22    22    23   ar
    23    23    24   ar
    24    24    25   ar
    25    17    26    1
    26    26    27    2
    27    26    28    1
    28    28    29    1
    29    29    30    1
    30     5     1    1
    31    25    20   ar
    32     8     1    1
    33     1    31    1
    34     2    32    1
    35     2    33    1
    36     3    34    1
    37     3    35    1
    38     4    36    1
    39     4    37    1
    40     5    38    1
    41     7    39    1
    42     8    40    1
    43     8    41    1
    44    10    42    1
    45    14    43    1
    46    15    44    1
    47    15    45    1
    48    15    46    1
    49    16    47    1
    50    17    48    1
    51    18    49    1
    52    18    50    1
    53    19    51    1
    54    19    52    1
    55    21    53    1
    56    22    54    1
    57    23    55    1
    58    24    56    1
    59    25    57    1
    60    29    58    1
    61    29    59    1
    62    30    60    1
    63    30    61    1
    64    30    62    1
