
     RDKit          3D

 71 75  0  0  0  0  0  0  0  0999 V2000
    0.1906   -2.0094   -0.6038 C   0  0  0  0  0  0  0  0  0  0  0  0
    0.7254   -2.7889    0.5389 C   0  0  0  0  0  0  0  0  0  0  0  0
   -0.1468   -3.1407    1.6538 C   0  0  0  0  0  0  0  0  0  0  0  0
   -0.6951   -2.1289    2.5681 C   0  0  0  0  0  0  0  0  0  0  0  0
   -1.4760   -1.0427    1.9606 C   0  0  0  0  0  0  0  0  0  0  0  0
   -2.7505   -1.1967    1.4954 N   0  0  0  0  0  0  0  0  0  0  0  0
   -3.1912   -0.1068    0.9449 N   0  0  0  0  0  0  0  0  0  0  0  0
   -4.4818    0.1047    0.3479 C   0  0  0  0  0  0  0  0  0  0  0  0
   -5.4334    0.7462    1.0890 C   0  0  0  0  0  0  0  0  0  0  0  0
   -6.6811    0.9372    0.5134 C   0  0  0  0  0  0  0  0  0  0  0  0
   -6.9680    0.4991   -0.7675 C   0  0  0  0  0  0  0  0  0  0  0  0
   -5.9801   -0.1417   -1.4781 C   0  0  0  0  0  0  0  0  0  0  0  0
   -4.7196   -0.3458   -0.9230 C   0  0  0  0  0  0  0  0  0  0  0  0
   -3.6750   -1.0428   -1.7325 C   0  0  0  0  0  0  0  0  0  0  0  0
   -2.1946    0.8211    1.0345 C   0  0  0  0  0  0  0  0  0  0  0  0
   -2.3635    2.1732    0.5061 C   0  0  0  0  0  0  0  0  0  0  0  0
   -1.4288    2.9948    0.5843 O   0  0  0  0  0  0  0  0  0  0  0  0
   -3.5270    2.6239   -0.0944 O   0  0  0  0  0  0  0  0  0  0  0  0
   -3.6009    3.9767   -0.5843 C   0  0  0  0  0  0  0  0  0  0  0  0
   -4.9291    4.2763   -1.1850 C   0  0  0  0  0  0  0  0  0  0  0  0
   -1.1017    0.2754    1.6672 C   0  0  0  0  0  0  0  0  0  0  0  0
    0.1310    0.9734    2.0048 C   0  0  0  0  0  0  0  0  0  0  0  0
    1.3349    0.7808    1.2353 C   0  0  0  0  0  0  0  0  0  0  0  0
    2.4933    0.3040    1.8545 C   0  0  0  0  0  0  0  0  0  0  0  0
    3.6915    0.1365    1.1780 C   0  0  0  0  0  0  0  0  0  0  0  0
    3.7949    0.4374   -0.1572 C   0  0  0  0  0  0  0  0  0  0  0  0
    5.0398    0.3320   -0.9248 C   0  0  0  0  0  0  0  0  0  0  0  0
    5.5661    1.5387   -1.4299 C   0  0  0  0  0  0  0  0  0  0  0  0
    6.7224    1.5872   -2.1563 C   0  0  0  0  0  0  0  0  0  0  0  0
    7.4112    0.4289   -2.4140 C   0  0  0  0  0  0  0  0  0  0  0  0
    6.9036   -0.7479   -1.9256 C   0  0  0  0  0  0  0  0  0  0  0  0
    5.7191   -0.8157   -1.1791 C   0  0  0  0  0  0  0  0  0  0  0  0
    5.2265   -2.0907   -0.6956 C   0  0  0  0  0  0  0  0  0  0  0  0
    4.1241   -2.3610    0.0010 N   0  0  0  0  0  0  0  0  0  0  0  0
    4.0398   -3.6656    0.2374 N   0  0  0  0  0  0  0  0  0  0  0  0
    5.0809   -4.2420   -0.3023 N   0  0  0  0  0  0  0  0  0  0  0  0
    5.8113   -3.2834   -0.8747 N   0  0  0  0  0  0  0  0  0  0  0  0
    2.6510    0.9090   -0.7858 C   0  0  0  0  0  0  0  0  0  0  0  0
    1.4565    1.0778   -0.1164 C   0  0  0  0  0  0  0  0  0  0  0  0
   -0.4351   -2.6654   -1.2926 H   0  0  0  0  0  0  0  0  0  0  0  0
   -0.3901   -1.1362   -0.4402 H   0  0  0  0  0  0  0  0  0  0  0  0
    1.0827   -1.7084   -1.2276 H   0  0  0  0  0  0  0  0  0  0  0  0
    1.2555   -3.7283    0.1830 H   0  0  0  0  0  0  0  0  0  0  0  0
    1.6028   -2.1851    0.9505 H   0  0  0  0  0  0  0  0  0  0  0  0
    0.2597   -4.0402    2.2386 H   0  0  0  0  0  0  0  0  0  0  0  0
   -1.0702   -3.6598    1.1679 H   0  0  0  0  0  0  0  0  0  0  0  0
   -1.3604   -2.6632    3.3285 H   0  0  0  0  0  0  0  0  0  0  0  0
    0.1839   -1.7096    3.1504 H   0  0  0  0  0  0  0  0  0  0  0  0
   -5.2482    1.1114    2.1082 H   0  0  0  0  0  0  0  0  0  0  0  0
   -7.4199    1.4390    1.1038 H   0  0  0  0  0  0  0  0  0  0  0  0
   -7.9599    0.6629   -1.1968 H   0  0  0  0  0  0  0  0  0  0  0  0
   -6.1748   -0.4923   -2.4757 H   0  0  0  0  0  0  0  0  0  0  0  0
   -4.0134   -1.1244   -2.7701 H   0  0  0  0  0  0  0  0  0  0  0  0
   -2.7331   -0.4510   -1.7623 H   0  0  0  0  0  0  0  0  0  0  0  0
   -3.5301   -2.0784   -1.3538 H   0  0  0  0  0  0  0  0  0  0  0  0
   -3.4490    4.6452    0.3035 H   0  0  0  0  0  0  0  0  0  0  0  0
   -2.7898    4.1587   -1.3120 H   0  0  0  0  0  0  0  0  0  0  0  0
   -5.0673    5.3967   -1.1172 H   0  0  0  0  0  0  0  0  0  0  0  0
   -5.7712    3.8095   -0.6616 H   0  0  0  0  0  0  0  0  0  0  0  0
   -4.9865    4.0368   -2.2761 H   0  0  0  0  0  0  0  0  0  0  0  0
    0.4002    0.7806    3.1047 H   0  0  0  0  0  0  0  0  0  0  0  0
   -0.0640    2.0893    2.0362 H   0  0  0  0  0  0  0  0  0  0  0  0
    2.4573    0.0553    2.9083 H   0  0  0  0  0  0  0  0  0  0  0  0
    4.5794   -0.2332    1.7003 H   0  0  0  0  0  0  0  0  0  0  0  0
    5.0209    2.4569   -1.2283 H   0  0  0  0  0  0  0  0  0  0  0  0
    7.1288    2.5162   -2.5478 H   0  0  0  0  0  0  0  0  0  0  0  0
    8.3408    0.4529   -2.9970 H   0  0  0  0  0  0  0  0  0  0  0  0
    7.4003   -1.6764   -2.0978 H   0  0  0  0  0  0  0  0  0  0  0  0
    6.7019   -3.4417   -1.3832 H   0  0  0  0  0  0  0  0  0  0  0  0
    2.7277    1.1449   -1.8473 H   0  0  0  0  0  0  0  0  0  0  0  0
    0.5512    1.4536   -0.6177 H   0  0  0  0  0  0  0  0  0  0  0  0
  1  2  1  0
  2  3  1  0
  3  4  1  0
  4  5  1  0
  5  6  2  0
  6  7  1  0
  7  8  1  0
  8  9  2  0
  9 10  1  0
 10 11  2  0
 11 12  1  0
 12 13  2  0
 13 14  1  0
  7 15  1  0
 15 16  1  0
 16 17  2  0
 16 18  1  0
 18 19  1  0
 19 20  1  0
 15 21  2  0
 21 22  1  0
 22 23  1  0
 23 24  2  0
 24 25  1  0
 25 26  2  0
 26 27  1  0
 27 28  2  0
 28 29  1  0
 29 30  2  0
 30 31  1  0
 31 32  2  0
 32 33  1  0
 33 34  2  0
 34 35  1  0
 35 36  2  0
 36 37  1  0
 26 38  1  0
 38 39  2  0
 21  5  1  0
 39 23  1  0
 13  8  1  0
 32 27  1  0
 37 33  1  0
  1 40  1  0
  1 41  1  0
  1 42  1  0
  2 43  1  0
  2 44  1  0
  3 45  1  0
  3 46  1  0
  4 47  1  0
  4 48  1  0
  9 49  1  0
 10 50  1  0
 11 51  1  0
 12 52  1  0
 14 53  1  0
 14 54  1  0
 14 55  1  0
 19 56  1  0
 19 57  1  0
 20 58  1  0
 20 59  1  0
 20 60  1  0
 22 61  1  0
 22 62  1  0
 24 63  1  0
 25 64  1  0
 28 65  1  0
 29 66  1  0
 30 67  1  0
 31 68  1  0
 37 69  1  0
 38 70  1  0
 39 71  1  0
M  END
$$$$
