@<TRIPOS>MOLECULE
*****
 71 75 0 0 0
SMALL
GASTEIGER

@<TRIPOS>ATOM
      1 C           0.1906   -2.0094   -0.6038 C.3     1  UNL1       -0.0653
      2 C           0.7254   -2.7889    0.5389 C.3     1  UNL1       -0.0556
      3 C          -0.1468   -3.1407    1.6538 C.3     1  UNL1       -0.0478
      4 C          -0.6951   -2.1289    2.5681 C.3     1  UNL1       -0.0084
      5 C          -1.4760   -1.0427    1.9606 C.ar    1  UNL1        0.0677
      6 N          -2.7505   -1.1967    1.4954 N.ar    1  UNL1       -0.1703
      7 N          -3.1912   -0.1068    0.9449 N.ar    1  UNL1       -0.2249
      8 C          -4.4818    0.1047    0.3479 C.ar    1  UNL1        0.0692
      9 C          -5.4334    0.7462    1.0890 C.ar    1  UNL1       -0.0360
     10 C          -6.6811    0.9372    0.5134 C.ar    1  UNL1       -0.0597
     11 C          -6.9680    0.4991   -0.7675 C.ar    1  UNL1       -0.0614
     12 C          -5.9801   -0.1417   -1.4781 C.ar    1  UNL1       -0.0568
     13 C          -4.7196   -0.3458   -0.9230 C.ar    1  UNL1       -0.0250
     14 C          -3.6750   -1.0428   -1.7325 C.3     1  UNL1       -0.0377
     15 C          -2.1946    0.8211    1.0345 C.ar    1  UNL1        0.1549
     16 C          -2.3635    2.1732    0.5061 C.2     1  UNL1        0.3581
     17 O          -1.4288    2.9948    0.5843 O.2     1  UNL1       -0.2432
     18 O          -3.5270    2.6239   -0.0944 O.3     1  UNL1       -0.4604
     19 C          -3.6009    3.9767   -0.5843 C.3     1  UNL1        0.0900
     20 C          -4.9291    4.2763   -1.1850 C.3     1  UNL1       -0.0306
     21 C          -1.1017    0.2754    1.6672 C.ar    1  UNL1        0.0123
     22 C           0.1310    0.9734    2.0048 C.3     1  UNL1        0.0016
     23 C           1.3349    0.7808    1.2353 C.ar    1  UNL1       -0.0429
     24 C           2.4933    0.3040    1.8545 C.ar    1  UNL1       -0.0577
     25 C           3.6915    0.1365    1.1780 C.ar    1  UNL1       -0.0537
     26 C           3.7949    0.4374   -0.1572 C.ar    1  UNL1       -0.0172
     27 C           5.0398    0.3320   -0.9248 C.ar    1  UNL1       -0.0072
     28 C           5.5661    1.5387   -1.4299 C.ar    1  UNL1       -0.0534
     29 C           6.7224    1.5872   -2.1563 C.ar    1  UNL1       -0.0611
     30 C           7.4112    0.4289   -2.4140 C.ar    1  UNL1       -0.0611
     31 C           6.9036   -0.7479   -1.9256 C.ar    1  UNL1       -0.0504
     32 C           5.7191   -0.8157   -1.1791 C.ar    1  UNL1        0.0282
     33 C           5.2265   -2.0907   -0.6956 C.ar    1  UNL1        0.1799
     34 N           4.1241   -2.3610    0.0010 N.ar    1  UNL1       -0.1084
     35 N           4.0398   -3.6656    0.2374 N.ar    1  UNL1       -0.0229
     36 N           5.0809   -4.2420   -0.3023 N.ar    1  UNL1       -0.0464
     37 N           5.8113   -3.2834   -0.8747 N.ar    1  UNL1       -0.2388
     38 C           2.6510    0.9090   -0.7858 C.ar    1  UNL1       -0.0537
     39 C           1.4565    1.0778   -0.1164 C.ar    1  UNL1       -0.0577
     40 H          -0.4351   -2.6654   -1.2926 H       1  UNL1        0.0230
     41 H          -0.3901   -1.1362   -0.4402 H       1  UNL1        0.0230
     42 H           1.0827   -1.7084   -1.2276 H       1  UNL1        0.0230
     43 H           1.2555   -3.7283    0.1830 H       1  UNL1        0.0263
     44 H           1.6028   -2.1851    0.9505 H       1  UNL1        0.0263
     45 H           0.2597   -4.0402    2.2386 H       1  UNL1        0.0269
     46 H          -1.0702   -3.6598    1.1679 H       1  UNL1        0.0269
     47 H          -1.3604   -2.6632    3.3285 H       1  UNL1        0.0329
     48 H           0.1839   -1.7096    3.1504 H       1  UNL1        0.0329
     49 H          -5.2482    1.1114    2.1082 H       1  UNL1        0.0639
     50 H          -7.4199    1.4390    1.1038 H       1  UNL1        0.0618
     51 H          -7.9599    0.6629   -1.1968 H       1  UNL1        0.0618
     52 H          -6.1748   -0.4923   -2.4757 H       1  UNL1        0.0621
     53 H          -4.0134   -1.1244   -2.7701 H       1  UNL1        0.0278
     54 H          -2.7331   -0.4510   -1.7623 H       1  UNL1        0.0278
     55 H          -3.5301   -2.0784   -1.3538 H       1  UNL1        0.0278
     56 H          -3.4490    4.6452    0.3035 H       1  UNL1        0.0695
     57 H          -2.7898    4.1587   -1.3120 H       1  UNL1        0.0695
     58 H          -5.0673    5.3967   -1.1172 H       1  UNL1        0.0262
     59 H          -5.7712    3.8095   -0.6616 H       1  UNL1        0.0262
     60 H          -4.9865    4.0368   -2.2761 H       1  UNL1        0.0262
     61 H           0.4002    0.7806    3.1047 H       1  UNL1        0.0363
     62 H          -0.0640    2.0893    2.0362 H       1  UNL1        0.0363
     63 H           2.4573    0.0553    2.9083 H       1  UNL1        0.0621
     64 H           4.5794   -0.2332    1.7003 H       1  UNL1        0.0624
     65 H           5.0209    2.4569   -1.2283 H       1  UNL1        0.0624
     66 H           7.1288    2.5162   -2.5478 H       1  UNL1        0.0618
     67 H           8.3408    0.4529   -2.9970 H       1  UNL1        0.0618
     68 H           7.4003   -1.6764   -2.0978 H       1  UNL1        0.0625
     69 H           6.7019   -3.4417   -1.3832 H       1  UNL1        0.1923
     70 H           2.7277    1.1449   -1.8473 H       1  UNL1        0.0624
     71 H           0.5512    1.4536   -0.6177 H       1  UNL1        0.0621
@<TRIPOS>BOND
     1     1     2    1
     2     2     3    1
     3     3     4    1
     4     4     5    1
     5     5     6   ar
     6     6     7   ar
     7     7     8    1
     8     8     9   ar
     9     9    10   ar
    10    10    11   ar
    11    11    12   ar
    12    12    13   ar
    13    13    14    1
    14     7    15   ar
    15    15    16    1
    16    16    17    2
    17    16    18    1
    18    18    19    1
    19    19    20    1
    20    15    21   ar
    21    21    22    1
    22    22    23    1
    23    23    24   ar
    24    24    25   ar
    25    25    26   ar
    26    26    27    1
    27    27    28   ar
    28    28    29   ar
    29    29    30   ar
    30    30    31   ar
    31    31    32   ar
    32    32    33    1
    33    33    34   ar
    34    34    35   ar
    35    35    36   ar
    36    36    37   ar
    37    26    38   ar
    38    38    39   ar
    39    21     5   ar
    40    39    23   ar
    41    13     8   ar
    42    32    27   ar
    43    37    33   ar
    44     1    40    1
    45     1    41    1
    46     1    42    1
    47     2    43    1
    48     2    44    1
    49     3    45    1
    50     3    46    1
    51     4    47    1
    52     4    48    1
    53     9    49    1
    54    10    50    1
    55    11    51    1
    56    12    52    1
    57    14    53    1
    58    14    54    1
    59    14    55    1
    60    19    56    1
    61    19    57    1
    62    20    58    1
    63    20    59    1
    64    20    60    1
    65    22    61    1
    66    22    62    1
    67    24    63    1
    68    25    64    1
    69    28    65    1
    70    29    66    1
    71    30    67    1
    72    31    68    1
    73    37    69    1
    74    38    70    1
    75    39    71    1
