@<TRIPOS>MOLECULE
*****
 48 51 0 0 0
SMALL
GASTEIGER

@<TRIPOS>ATOM
      1 C          -6.4417   -1.2334   -0.5321 C.3     1  UNL1        0.0365
      2 O          -5.3330   -1.8317   -1.0004 O.3     1  UNL1       -0.3816
      3 C          -4.3403   -1.1589   -1.5992 C.3     1  UNL1        0.0627
      4 C          -3.5847   -0.1177   -0.8369 C.3     1  UNL1        0.0528
      5 C          -2.4760    0.5324   -1.6924 C.3     1  UNL1       -0.0287
      6 C          -2.1792   -0.3019   -0.5002 C.3     1  UNL1        0.0068
      7 C          -1.5975    0.2178    0.7175 C.3     1  UNL1        0.0931
      8 C          -1.1164   -1.0339    1.5994 C.3     1  UNL1       -0.0352
      9 C          -0.3052    0.9156    0.4795 C.ar    1  UNL1        0.0157
     10 C           0.9316    0.2849    0.5630 C.ar    1  UNL1       -0.0463
     11 C           2.1366    0.8936    0.2603 C.ar    1  UNL1       -0.0217
     12 C           3.3910    0.1251    0.3800 C.2     1  UNL1       -0.0171
     13 C           4.3679    0.2349   -0.4761 C.2     1  UNL1        0.1506
     14 F           4.1817    1.1060   -1.5082 F       1  UNL1       -0.2032
     15 C           5.6135   -0.5016   -0.4015 C.ar    1  UNL1        0.1171
     16 C           6.5717   -0.3057   -1.3651 C.ar    1  UNL1        0.0574
     17 N           7.7501   -0.9656   -1.3488 N.ar    1  UNL1       -0.2398
     18 C           7.9938   -1.8285   -0.3773 C.ar    1  UNL1        0.1472
     19 CL          9.5174   -2.7140   -0.3147 Cl      1  UNL1       -0.0604
     20 C           7.0553   -2.0447    0.5993 C.ar    1  UNL1        0.0651
     21 N           5.8839   -1.3761    0.5666 N.ar    1  UNL1       -0.2482
     22 C           2.1213    2.1993   -0.1477 C.ar    1  UNL1       -0.0518
     23 C           0.9389    2.8901   -0.2540 C.ar    1  UNL1       -0.0255
     24 C          -0.2263    2.2454    0.0573 C.ar    1  UNL1        0.1289
     25 F          -1.3645    2.9596    0.0115 F       1  UNL1       -0.2051
     26 N          -2.3502    0.9840    1.6510 N.2     1  UNL1       -0.2521
     27 C          -3.5336    1.3972    1.6117 C.2     1  UNL1        0.1481
     28 N          -4.1017    2.1571    2.6626 N.pl3   1  UNL1       -0.3380
     29 S          -4.5300    1.0213    0.1950 S.3     1  UNL1       -0.0817
     30 H          -7.1096   -2.0693   -0.1184 H       1  UNL1        0.0523
     31 H          -6.3654   -0.5411    0.3061 H       1  UNL1        0.0523
     32 H          -7.0865   -0.7592   -1.3085 H       1  UNL1        0.0523
     33 H          -4.6682   -0.7673   -2.6063 H       1  UNL1        0.0574
     34 H          -3.5545   -1.9341   -1.8888 H       1  UNL1        0.0574
     35 H          -2.4791    1.6121   -1.7370 H       1  UNL1        0.0283
     36 H          -2.2791    0.0744   -2.7045 H       1  UNL1        0.0283
     37 H          -1.8147   -1.3762   -0.7323 H       1  UNL1        0.0342
     38 H          -0.6936   -1.7421    0.8955 H       1  UNL1        0.0256
     39 H          -2.0208   -1.4075    2.1206 H       1  UNL1        0.0256
     40 H          -0.3688   -0.6408    2.2843 H       1  UNL1        0.0256
     41 H           0.9934   -0.7616    0.8793 H       1  UNL1        0.0628
     42 H           3.4850   -0.5459    1.2131 H       1  UNL1        0.0653
     43 H           6.4311    0.3916   -2.1932 H       1  UNL1        0.0853
     44 H           7.2190   -2.7451    1.4138 H       1  UNL1        0.0860
     45 H           3.0313    2.7276   -0.3961 H       1  UNL1        0.0624
     46 H           0.9504    3.9206   -0.5788 H       1  UNL1        0.0646
     47 H          -4.2160    3.1908    2.6233 H       1  UNL1        0.1442
     48 H          -4.4283    1.6769    3.5277 H       1  UNL1        0.1442
@<TRIPOS>BOND
     1     1     2    1
     2     2     3    1
     3     4     3    1
     4     4     5    1
     5     5     6    1
     6     6     7    1
     7     7     8    1
     8     7     9    1
     9     9    10   ar
    10    10    11   ar
    11    11    12    1
    12    12    13    2
    13    13    14    1
    14    13    15    1
    15    15    16   ar
    16    16    17   ar
    17    17    18   ar
    18    18    19    1
    19    18    20   ar
    20    20    21   ar
    21    11    22   ar
    22    22    23   ar
    23    23    24   ar
    24    24    25    1
    25     7    26    1
    26    26    27    2
    27    27    28    1
    28    27    29    1
    29     6     4    1
    30    24     9   ar
    31    29     4    1
    32    21    15   ar
    33     1    30    1
    34     1    31    1
    35     1    32    1
    36     3    33    1
    37     3    34    1
    38     5    35    1
    39     5    36    1
    40     6    37    1
    41     8    38    1
    42     8    39    1
    43     8    40    1
    44    10    41    1
    45    12    42    1
    46    16    43    1
    47    20    44    1
    48    22    45    1
    49    23    46    1
    50    28    47    1
    51    28    48    1
