
     RDKit          3D

 35 36  0  0  0  0  0  0  0  0999 V2000
   -5.7310   -0.6440    0.8324 N   0  0  0  0  0  0  0  0  0  0  0  0
   -4.4844    0.0185    0.4352 C   0  0  1  0  0  0  0  0  0  0  0  0
   -3.3682   -0.9241    0.7916 C   0  0  0  0  0  0  0  0  0  0  0  0
   -2.0276   -0.4174    0.4599 C   0  0  0  0  0  0  0  0  0  0  0  0
   -1.3921   -0.6297   -0.7530 C   0  0  0  0  0  0  0  0  0  0  0  0
   -0.1143   -0.1205   -1.0075 C   0  0  0  0  0  0  0  0  0  0  0  0
    0.5041   -0.6009   -2.9806 I   0  0  0  0  0  0  0  0  0  0  0  0
    0.5960    0.6280   -0.0595 C   0  0  0  0  0  0  0  0  0  0  0  0
    1.8226    1.0458   -0.4572 O   0  0  0  0  0  0  0  0  0  0  0  0
    3.0682    0.5682   -0.2013 C   0  0  0  0  0  0  0  0  0  0  0  0
    3.9034    1.3192    0.6368 C   0  0  0  0  0  0  0  0  0  0  0  0
    5.1874    0.9532    0.9827 C   0  0  0  0  0  0  0  0  0  0  0  0
    6.4626    2.0581    2.2375 I   0  0  0  0  0  0  0  0  0  0  0  0
    5.7364   -0.2255    0.4962 C   0  0  0  0  0  0  0  0  0  0  0  0
    7.0153   -0.6567    0.7993 O   0  0  0  0  0  0  0  0  0  0  0  0
    4.9635   -1.0084   -0.3344 C   0  0  0  0  0  0  0  0  0  0  0  0
    5.7228   -2.8069   -1.1121 I   0  0  0  0  0  0  0  0  0  0  0  0
    3.6927   -0.5778   -0.6338 C   0  0  0  0  0  0  0  0  0  0  0  0
   -0.1009    0.7949    1.1145 C   0  0  0  0  0  0  0  0  0  0  0  0
    0.8627    1.9117    2.6104 I   0  0  0  0  0  0  0  0  0  0  0  0
   -1.3552    0.3170    1.4140 C   0  0  0  0  0  0  0  0  0  0  0  0
   -4.5453    0.3338   -0.9978 C   0  0  0  0  0  0  0  0  0  0  0  0
   -4.3372    0.7412   -2.3043 O   0  0  0  0  0  0  0  0  0  0  0  0
   -5.5513    0.0526   -1.7350 O   0  0  0  0  0  0  0  0  0  0  0  0
   -5.6547   -1.6663    0.7509 H   0  0  0  0  0  0  0  0  0  0  0  0
   -6.4806   -0.2326    0.2337 H   0  0  0  0  0  0  0  0  0  0  0  0
   -4.3918    0.9068    1.0909 H   0  0  0  0  0  0  0  0  0  0  0  0
   -3.5527   -1.9069    0.3215 H   0  0  0  0  0  0  0  0  0  0  0  0
   -3.4336   -1.0887    1.8933 H   0  0  0  0  0  0  0  0  0  0  0  0
   -2.0027   -1.2143   -1.4275 H   0  0  0  0  0  0  0  0  0  0  0  0
    3.6740    2.2620    1.1016 H   0  0  0  0  0  0  0  0  0  0  0  0
    7.7064    0.0256    1.1146 H   0  0  0  0  0  0  0  0  0  0  0  0
    3.1394   -1.2320   -1.2798 H   0  0  0  0  0  0  0  0  0  0  0  0
   -1.8065    0.5080    2.3681 H   0  0  0  0  0  0  0  0  0  0  0  0
   -3.7273    1.5079   -2.5873 H   0  0  0  0  0  0  0  0  0  0  0  0
  1  2  1  0
  2  3  1  0
  3  4  1  0
  4  5  2  0
  5  6  1  0
  6  7  1  0
  6  8  2  0
  8  9  1  0
  9 10  1  0
 10 11  2  0
 11 12  1  0
 12 13  1  0
 12 14  2  0
 14 15  1  0
 14 16  1  0
 16 17  1  0
 16 18  2  0
  8 19  1  0
 19 20  1  0
 19 21  2  0
  2 22  1  0
 22 23  1  0
 22 24  2  0
 21  4  1  0
 18 10  1  0
  1 25  1  0
  1 26  1  0
  2 27  1  1
  3 28  1  0
  3 29  1  0
  5 30  1  0
 11 31  1  0
 15 32  1  0
 18 33  1  0
 21 34  1  0
 23 35  1  0
M  END
$$$$
