@<TRIPOS>MOLECULE
*****
 46 49 0 0 0
SMALL
GASTEIGER

@<TRIPOS>ATOM
      1 C           9.4834    1.9007    0.1231 C.3     1  UNL1        0.0596
      2 S           8.9921    0.3848   -0.6931 S.O2    1  UNL1       -0.0058
      3 O           9.7492   -0.7284   -0.0483 O.2     1  UNL1       -0.1696
      4 O           9.3124    0.4954   -2.1612 O.2     1  UNL1       -0.1696
      5 C           7.2896    0.1069   -0.4865 C.ar    1  UNL1        0.0890
      6 C           6.7979   -0.6040    0.5753 C.ar    1  UNL1       -0.0348
      7 C           5.4801   -0.8568    0.7951 C.ar    1  UNL1       -0.0333
      8 C           4.5086   -0.3845   -0.0896 C.ar    1  UNL1        0.0804
      9 N           3.2261   -0.5288   -0.0373 N.ar    1  UNL1       -0.2245
     10 C           2.3809   -0.1130   -0.8148 C.ar    1  UNL1        0.1666
     11 N           1.0000   -0.0726   -1.0696 N.am    1  UNL1       -0.2485
     12 C           0.1442   -0.7143   -0.1680 C.2     1  UNL1        0.3057
     13 O           0.6283   -1.3005    0.8304 O.2     1  UNL1       -0.2524
     14 N          -1.2813   -0.7417   -0.3212 N.am    1  UNL1       -0.2920
     15 C          -2.1158   -1.4343    0.6642 C.3     1  UNL1        0.0711
     16 C          -3.5426   -1.3099    0.2694 C.ar    1  UNL1        0.1251
     17 N          -4.4312   -0.3369    0.6130 N.ar    1  UNL1       -0.2309
     18 C          -5.6132   -0.5761    0.0607 C.ar    1  UNL1        0.0889
     19 C          -6.8370    0.2254    0.1795 C.ar    1  UNL1        0.0018
     20 C          -6.8649    1.3816    0.9312 C.ar    1  UNL1       -0.0525
     21 C          -8.0242    2.1383    1.0421 C.ar    1  UNL1       -0.0611
     22 C          -9.1607    1.7246    0.3901 C.ar    1  UNL1       -0.0617
     23 C          -9.1612    0.5720   -0.3687 C.ar    1  UNL1       -0.0611
     24 C          -7.9920   -0.1543   -0.4562 C.ar    1  UNL1       -0.0525
     25 C          -5.5039   -1.7400   -0.6689 C.ar    1  UNL1        0.0293
     26 N          -4.2192   -2.1510   -0.5103 N.ar    1  UNL1       -0.3464
     27 S           3.5117    0.7572   -2.0416 S.2     1  UNL1       -0.0519
     28 C           4.9960    0.3434   -1.1790 C.ar    1  UNL1        0.0426
     29 C           6.3370    0.5861   -1.3796 C.ar    1  UNL1       -0.0210
     30 H           8.8371    2.0332    1.0169 H       1  UNL1        0.0468
     31 H          10.5222    1.8234    0.5044 H       1  UNL1        0.0468
     32 H           9.3552    2.7781   -0.5243 H       1  UNL1        0.0468
     33 H           7.5500   -0.9827    1.2810 H       1  UNL1        0.0637
     34 H           5.2174   -1.4331    1.6747 H       1  UNL1        0.0640
     35 H           0.5686    0.4083   -1.8935 H       1  UNL1        0.1583
     36 H          -1.6771   -0.2527   -1.1530 H       1  UNL1        0.1507
     37 H          -2.0023   -0.9120    1.6353 H       1  UNL1        0.0543
     38 H          -1.8381   -2.5075    0.7327 H       1  UNL1        0.0543
     39 H          -5.9556    1.6729    1.4267 H       1  UNL1        0.0624
     40 H          -8.0301    3.0553    1.6437 H       1  UNL1        0.0618
     41 H         -10.0431    2.3432    0.5026 H       1  UNL1        0.0618
     42 H         -10.0696    0.2559   -0.8802 H       1  UNL1        0.0618
     43 H          -7.9868   -1.0593   -1.0502 H       1  UNL1        0.0624
     44 H          -6.2922   -2.2109   -1.2422 H       1  UNL1        0.0829
     45 H          -3.8741   -3.0359   -0.9775 H       1  UNL1        0.1666
     46 H           6.6283    1.1546   -2.2429 H       1  UNL1        0.0648
@<TRIPOS>BOND
     1     1     2    1
     2     2     3    2
     3     2     4    2
     4     2     5    1
     5     5     6   ar
     6     6     7   ar
     7     7     8   ar
     8     8     9   ar
     9     9    10   ar
    10    10    11    1
    11    11    12   am
    12    12    13    2
    13    12    14   am
    14    14    15    1
    15    15    16    1
    16    16    17   ar
    17    17    18   ar
    18    18    19    1
    19    19    20   ar
    20    20    21   ar
    21    21    22   ar
    22    22    23   ar
    23    23    24   ar
    24    18    25   ar
    25    25    26   ar
    26    10    27   ar
    27    27    28   ar
    28    28    29   ar
    29    29     5   ar
    30    28     8   ar
    31    26    16   ar
    32    24    19   ar
    33     1    30    1
    34     1    31    1
    35     1    32    1
    36     6    33    1
    37     7    34    1
    38    11    35    1
    39    14    36    1
    40    15    37    1
    41    15    38    1
    42    20    39    1
    43    21    40    1
    44    22    41    1
    45    23    42    1
    46    24    43    1
    47    25    44    1
    48    26    45    1
    49    29    46    1
