
     RDKit          3D

 46 49  0  0  0  0  0  0  0  0999 V2000
    9.4834    1.9007    0.1231 C   0  0  0  0  0  0  0  0  0  0  0  0
    8.9921    0.3848   -0.6931 S   0  0  0  0  0  6  0  0  0  0  0  0
    9.7492   -0.7284   -0.0483 O   0  0  0  0  0  0  0  0  0  0  0  0
    9.3124    0.4954   -2.1612 O   0  0  0  0  0  0  0  0  0  0  0  0
    7.2896    0.1069   -0.4865 C   0  0  0  0  0  0  0  0  0  0  0  0
    6.7979   -0.6040    0.5753 C   0  0  0  0  0  0  0  0  0  0  0  0
    5.4801   -0.8568    0.7951 C   0  0  0  0  0  0  0  0  0  0  0  0
    4.5086   -0.3845   -0.0896 C   0  0  0  0  0  0  0  0  0  0  0  0
    3.2261   -0.5288   -0.0373 N   0  0  0  0  0  0  0  0  0  0  0  0
    2.3809   -0.1130   -0.8148 C   0  0  0  0  0  0  0  0  0  0  0  0
    1.0000   -0.0726   -1.0696 N   0  0  0  0  0  0  0  0  0  0  0  0
    0.1442   -0.7143   -0.1680 C   0  0  0  0  0  0  0  0  0  0  0  0
    0.6283   -1.3005    0.8304 O   0  0  0  0  0  0  0  0  0  0  0  0
   -1.2813   -0.7417   -0.3212 N   0  0  0  0  0  0  0  0  0  0  0  0
   -2.1158   -1.4343    0.6642 C   0  0  0  0  0  0  0  0  0  0  0  0
   -3.5426   -1.3099    0.2694 C   0  0  0  0  0  0  0  0  0  0  0  0
   -4.4312   -0.3369    0.6130 N   0  0  0  0  0  0  0  0  0  0  0  0
   -5.6132   -0.5761    0.0607 C   0  0  0  0  0  0  0  0  0  0  0  0
   -6.8370    0.2254    0.1795 C   0  0  0  0  0  0  0  0  0  0  0  0
   -6.8649    1.3816    0.9312 C   0  0  0  0  0  0  0  0  0  0  0  0
   -8.0242    2.1383    1.0421 C   0  0  0  0  0  0  0  0  0  0  0  0
   -9.1607    1.7246    0.3901 C   0  0  0  0  0  0  0  0  0  0  0  0
   -9.1612    0.5720   -0.3687 C   0  0  0  0  0  0  0  0  0  0  0  0
   -7.9920   -0.1543   -0.4562 C   0  0  0  0  0  0  0  0  0  0  0  0
   -5.5039   -1.7400   -0.6689 C   0  0  0  0  0  0  0  0  0  0  0  0
   -4.2192   -2.1510   -0.5103 N   0  0  0  0  0  0  0  0  0  0  0  0
    3.5117    0.7572   -2.0416 S   0  0  0  0  0  0  0  0  0  0  0  0
    4.9960    0.3434   -1.1790 C   0  0  0  0  0  0  0  0  0  0  0  0
    6.3370    0.5861   -1.3796 C   0  0  0  0  0  0  0  0  0  0  0  0
    8.8371    2.0332    1.0169 H   0  0  0  0  0  0  0  0  0  0  0  0
   10.5222    1.8234    0.5044 H   0  0  0  0  0  0  0  0  0  0  0  0
    9.3552    2.7781   -0.5243 H   0  0  0  0  0  0  0  0  0  0  0  0
    7.5500   -0.9827    1.2810 H   0  0  0  0  0  0  0  0  0  0  0  0
    5.2174   -1.4331    1.6747 H   0  0  0  0  0  0  0  0  0  0  0  0
    0.5686    0.4083   -1.8935 H   0  0  0  0  0  0  0  0  0  0  0  0
   -1.6771   -0.2527   -1.1530 H   0  0  0  0  0  0  0  0  0  0  0  0
   -2.0023   -0.9120    1.6353 H   0  0  0  0  0  0  0  0  0  0  0  0
   -1.8381   -2.5075    0.7327 H   0  0  0  0  0  0  0  0  0  0  0  0
   -5.9556    1.6729    1.4267 H   0  0  0  0  0  0  0  0  0  0  0  0
   -8.0301    3.0553    1.6437 H   0  0  0  0  0  0  0  0  0  0  0  0
  -10.0431    2.3432    0.5026 H   0  0  0  0  0  0  0  0  0  0  0  0
  -10.0696    0.2559   -0.8802 H   0  0  0  0  0  0  0  0  0  0  0  0
   -7.9868   -1.0593   -1.0502 H   0  0  0  0  0  0  0  0  0  0  0  0
   -6.2922   -2.2109   -1.2422 H   0  0  0  0  0  0  0  0  0  0  0  0
   -3.8741   -3.0359   -0.9775 H   0  0  0  0  0  0  0  0  0  0  0  0
    6.6283    1.1546   -2.2429 H   0  0  0  0  0  0  0  0  0  0  0  0
  1  2  1  0
  2  3  2  0
  2  4  2  0
  2  5  1  0
  5  6  2  0
  6  7  1  0
  7  8  2  0
  8  9  1  0
  9 10  2  0
 10 11  1  0
 11 12  1  0
 12 13  2  0
 12 14  1  0
 14 15  1  0
 15 16  1  0
 16 17  2  0
 17 18  1  0
 18 19  1  0
 19 20  2  0
 20 21  1  0
 21 22  2  0
 22 23  1  0
 23 24  2  0
 18 25  2  0
 25 26  1  0
 10 27  1  0
 27 28  1  0
 28 29  2  0
 29  5  1  0
 28  8  1  0
 26 16  1  0
 24 19  1  0
  1 30  1  0
  1 31  1  0
  1 32  1  0
  6 33  1  0
  7 34  1  0
 11 35  1  0
 14 36  1  0
 15 37  1  0
 15 38  1  0
 20 39  1  0
 21 40  1  0
 22 41  1  0
 23 42  1  0
 24 43  1  0
 25 44  1  0
 26 45  1  0
 29 46  1  0
M  END
$$$$
