
     RDKit          3D

 53 55  0  0  0  0  0  0  0  0999 V2000
    9.8016    1.7186    1.7615 C   0  0  0  0  0  0  0  0  0  0  0  0
    8.8650    1.8657    0.8587 C   0  0  0  0  0  0  0  0  0  0  0  0
    7.6353    1.1104    0.9739 C   0  0  0  0  0  0  0  0  0  0  0  0
    7.4861    0.3263    1.9373 O   0  0  0  0  0  0  0  0  0  0  0  0
    6.5690    1.2142    0.0332 N   0  0  0  0  0  0  0  0  0  0  0  0
    5.3606    0.4903    0.1205 C   0  0  0  0  0  0  0  0  0  0  0  0
    4.2684    1.0020    0.8089 C   0  0  0  0  0  0  0  0  0  0  0  0
    3.0899    0.2512    0.8698 C   0  0  0  0  0  0  0  0  0  0  0  0
    2.9759   -0.9838    0.2673 C   0  0  0  0  0  0  0  0  0  0  0  0
    1.5354   -1.9334    0.3242 S   0  0  0  0  0  6  0  0  0  0  0  0
    1.9455   -3.3894    0.2749 O   0  0  0  0  0  0  0  0  0  0  0  0
    0.8834   -1.7157    1.6646 O   0  0  0  0  0  0  0  0  0  0  0  0
    0.4553   -1.6331   -0.9612 N   0  0  0  0  0  0  0  0  0  0  0  0
   -0.0276   -0.2799   -0.9942 C   0  0  0  0  0  0  0  0  0  0  0  0
   -1.3844   -0.1278   -1.6485 C   0  0  0  0  0  0  0  0  0  0  0  0
   -2.3022   -0.9472   -0.8916 N   0  0  0  0  0  0  0  0  0  0  0  0
   -3.7109   -0.8136   -0.9348 C   0  0  0  0  0  0  0  0  0  0  0  0
   -4.4542   -1.5602   -0.2502 O   0  0  0  0  0  0  0  0  0  0  0  0
   -4.3546    0.1352   -1.7230 O   0  0  0  0  0  0  0  0  0  0  0  0
   -5.7264    0.3279   -1.8198 C   0  0  0  0  0  0  0  0  0  0  0  0
   -6.4122    0.6720   -0.5749 C   0  0  0  0  0  0  0  0  0  0  0  0
   -7.1557   -0.3298    0.0506 C   0  0  0  0  0  0  0  0  0  0  0  0
   -7.8377   -0.1234    1.2153 C   0  0  0  0  0  0  0  0  0  0  0  0
   -7.7842    1.1302    1.7908 C   0  0  0  0  0  0  0  0  0  0  0  0
   -7.0495    2.1289    1.1772 C   0  0  0  0  0  0  0  0  0  0  0  0
   -6.9748    3.3804    1.7186 F   0  0  0  0  0  0  0  0  0  0  0  0
   -6.3607    1.9228    0.0023 C   0  0  0  0  0  0  0  0  0  0  0  0
   -5.6362    2.8748   -0.6212 F   0  0  0  0  0  0  0  0  0  0  0  0
   -1.7225   -1.9628   -0.0431 C   0  0  0  0  0  0  0  0  0  0  0  0
   -0.6164   -2.6047   -0.8895 C   0  0  0  0  0  0  0  0  0  0  0  0
    4.0857   -1.4834   -0.4215 C   0  0  0  0  0  0  0  0  0  0  0  0
    5.2552   -0.7471   -0.4865 C   0  0  0  0  0  0  0  0  0  0  0  0
    9.6748    1.0440    2.5919 H   0  0  0  0  0  0  0  0  0  0  0  0
   10.7220    2.2715    1.6922 H   0  0  0  0  0  0  0  0  0  0  0  0
    9.0225    2.5479    0.0413 H   0  0  0  0  0  0  0  0  0  0  0  0
    6.7155    1.8760   -0.7650 H   0  0  0  0  0  0  0  0  0  0  0  0
    4.3117    1.9680    1.2978 H   0  0  0  0  0  0  0  0  0  0  0  0
    2.2101    0.6114    1.3978 H   0  0  0  0  0  0  0  0  0  0  0  0
    0.7005    0.4086   -1.5026 H   0  0  0  0  0  0  0  0  0  0  0  0
   -0.1220    0.1102    0.0422 H   0  0  0  0  0  0  0  0  0  0  0  0
   -1.3465   -0.5287   -2.6927 H   0  0  0  0  0  0  0  0  0  0  0  0
   -1.6396    0.9430   -1.6151 H   0  0  0  0  0  0  0  0  0  0  0  0
   -5.8701    1.2140   -2.5086 H   0  0  0  0  0  0  0  0  0  0  0  0
   -6.2718   -0.4908   -2.3168 H   0  0  0  0  0  0  0  0  0  0  0  0
   -7.2119   -1.3329   -0.3885 H   0  0  0  0  0  0  0  0  0  0  0  0
   -8.4057   -0.9493    1.6604 H   0  0  0  0  0  0  0  0  0  0  0  0
   -8.3097    1.3299    2.7090 H   0  0  0  0  0  0  0  0  0  0  0  0
   -2.4350   -2.7707    0.2054 H   0  0  0  0  0  0  0  0  0  0  0  0
   -1.3224   -1.5596    0.9033 H   0  0  0  0  0  0  0  0  0  0  0  0
   -0.2896   -3.5604   -0.4723 H   0  0  0  0  0  0  0  0  0  0  0  0
   -1.0207   -2.6955   -1.9383 H   0  0  0  0  0  0  0  0  0  0  0  0
    4.0436   -2.4557   -0.9143 H   0  0  0  0  0  0  0  0  0  0  0  0
    6.1423   -1.1093   -1.0169 H   0  0  0  0  0  0  0  0  0  0  0  0
  1  2  2  3
  2  3  1  0
  3  4  2  0
  3  5  1  0
  5  6  1  0
  6  7  2  0
  7  8  1  0
  8  9  2  0
  9 10  1  0
 10 11  2  0
 10 12  2  0
 10 13  1  0
 13 14  1  0
 14 15  1  0
 15 16  1  0
 16 17  1  0
 17 18  2  0
 17 19  1  0
 19 20  1  0
 20 21  1  0
 21 22  2  0
 22 23  1  0
 23 24  2  0
 24 25  1  0
 25 26  1  0
 25 27  2  0
 27 28  1  0
 16 29  1  0
 29 30  1  0
  9 31  1  0
 31 32  2  0
 32  6  1  0
 30 13  1  0
 27 21  1  0
  1 33  1  0
  1 34  1  0
  2 35  1  0
  5 36  1  0
  7 37  1  0
  8 38  1  0
 14 39  1  0
 14 40  1  0
 15 41  1  0
 15 42  1  0
 20 43  1  0
 20 44  1  0
 22 45  1  0
 23 46  1  0
 24 47  1  0
 29 48  1  0
 29 49  1  0
 30 50  1  0
 30 51  1  0
 31 52  1  0
 32 53  1  0
M  END
$$$$
