@<TRIPOS>MOLECULE
*****
 53 55 0 0 0
SMALL
GASTEIGER

@<TRIPOS>ATOM
      1 C           9.8016    1.7186    1.7615 C.2     1  UNL1       -0.0938
      2 C           8.8650    1.8657    0.8587 C.2     1  UNL1       -0.0066
      3 C           7.6353    1.1104    0.9739 C.2     1  UNL1        0.2405
      4 O           7.4861    0.3263    1.9373 O.2     1  UNL1       -0.2705
      5 N           6.5690    1.2142    0.0332 N.am    1  UNL1       -0.2820
      6 C           5.3606    0.4903    0.1205 C.ar    1  UNL1        0.0338
      7 C           4.2684    1.0020    0.8089 C.ar    1  UNL1       -0.0386
      8 C           3.0899    0.2512    0.8698 C.ar    1  UNL1       -0.0336
      9 C           2.9759   -0.9838    0.2673 C.ar    1  UNL1        0.1056
     10 S           1.5354   -1.9334    0.3242 S.O2    1  UNL1        0.0609
     11 O           1.9455   -3.3894    0.2749 O.2     1  UNL1       -0.1528
     12 O           0.8834   -1.7157    1.6646 O.2     1  UNL1       -0.1528
     13 N           0.4553   -1.6331   -0.9612 N.3     1  UNL1       -0.1736
     14 C          -0.0276   -0.2799   -0.9942 C.3     1  UNL1        0.0364
     15 C          -1.3844   -0.1278   -1.6485 C.3     1  UNL1        0.0323
     16 N          -2.3022   -0.9472   -0.8916 N.am    1  UNL1       -0.2649
     17 C          -3.7109   -0.8136   -0.9348 C.2     1  UNL1        0.4033
     18 O          -4.4542   -1.5602   -0.2502 O.2     1  UNL1       -0.2262
     19 O          -4.3546    0.1352   -1.7230 O.3     1  UNL1       -0.4454
     20 C          -5.7264    0.3279   -1.8198 C.3     1  UNL1        0.1219
     21 C          -6.4122    0.6720   -0.5749 C.ar    1  UNL1        0.0278
     22 C          -7.1557   -0.3298    0.0506 C.ar    1  UNL1       -0.0524
     23 C          -7.8377   -0.1234    1.2153 C.ar    1  UNL1       -0.0585
     24 C          -7.7842    1.1302    1.7908 C.ar    1  UNL1       -0.0236
     25 C          -7.0495    2.1289    1.1772 C.ar    1  UNL1        0.1588
     26 F          -6.9748    3.3804    1.7186 F       1  UNL1       -0.2025
     27 C          -6.3607    1.9228    0.0023 C.ar    1  UNL1        0.1648
     28 F          -5.6362    2.8748   -0.6212 F       1  UNL1       -0.2021
     29 C          -1.7225   -1.9628   -0.0431 C.3     1  UNL1        0.0323
     30 C          -0.6164   -2.6047   -0.8895 C.3     1  UNL1        0.0364
     31 C           4.0857   -1.4834   -0.4215 C.ar    1  UNL1       -0.0336
     32 C           5.2552   -0.7471   -0.4865 C.ar    1  UNL1       -0.0386
     33 H           9.6748    1.0440    2.5919 H       1  UNL1        0.0536
     34 H          10.7220    2.2715    1.6922 H       1  UNL1        0.0536
     35 H           9.0225    2.5479    0.0413 H       1  UNL1        0.0663
     36 H           6.7155    1.8760   -0.7650 H       1  UNL1        0.1551
     37 H           4.3117    1.9680    1.2978 H       1  UNL1        0.0637
     38 H           2.2101    0.6114    1.3978 H       1  UNL1        0.0638
     39 H           0.7005    0.4086   -1.5026 H       1  UNL1        0.0459
     40 H          -0.1220    0.1102    0.0422 H       1  UNL1        0.0459
     41 H          -1.3465   -0.5287   -2.6927 H       1  UNL1        0.0479
     42 H          -1.6396    0.9430   -1.6151 H       1  UNL1        0.0479
     43 H          -5.8701    1.2140   -2.5086 H       1  UNL1        0.0750
     44 H          -6.2718   -0.4908   -2.3168 H       1  UNL1        0.0750
     45 H          -7.2119   -1.3329   -0.3885 H       1  UNL1        0.0622
     46 H          -8.4057   -0.9493    1.6604 H       1  UNL1        0.0619
     47 H          -8.3097    1.3299    2.7090 H       1  UNL1        0.0647
     48 H          -2.4350   -2.7707    0.2054 H       1  UNL1        0.0479
     49 H          -1.3224   -1.5596    0.9033 H       1  UNL1        0.0479
     50 H          -0.2896   -3.5604   -0.4723 H       1  UNL1        0.0459
     51 H          -1.0207   -2.6955   -1.9383 H       1  UNL1        0.0459
     52 H           4.0436   -2.4557   -0.9143 H       1  UNL1        0.0638
     53 H           6.1423   -1.1093   -1.0169 H       1  UNL1        0.0637
@<TRIPOS>BOND
     1     1     2    2
     2     2     3    1
     3     3     4    2
     4     3     5   am
     5     5     6    1
     6     6     7   ar
     7     7     8   ar
     8     8     9   ar
     9     9    10    1
    10    10    11    2
    11    10    12    2
    12    10    13    1
    13    13    14    1
    14    14    15    1
    15    15    16    1
    16    16    17   am
    17    17    18    2
    18    17    19    1
    19    19    20    1
    20    20    21    1
    21    21    22   ar
    22    22    23   ar
    23    23    24   ar
    24    24    25   ar
    25    25    26    1
    26    25    27   ar
    27    27    28    1
    28    16    29    1
    29    29    30    1
    30     9    31   ar
    31    31    32   ar
    32    32     6   ar
    33    30    13    1
    34    27    21   ar
    35     1    33    1
    36     1    34    1
    37     2    35    1
    38     5    36    1
    39     7    37    1
    40     8    38    1
    41    14    39    1
    42    14    40    1
    43    15    41    1
    44    15    42    1
    45    20    43    1
    46    20    44    1
    47    22    45    1
    48    23    46    1
    49    24    47    1
    50    29    48    1
    51    29    49    1
    52    30    50    1
    53    30    51    1
    54    31    52    1
    55    32    53    1
