@<TRIPOS>MOLECULE
*****
 32 33 0 0 0
SMALL
GASTEIGER

@<TRIPOS>ATOM
      1 O          -5.7982    1.4506    0.7333 O.2     1  UNL1       -0.2451
      2 C          -4.8513    0.6274    0.8108 C.2     1  UNL1        0.3369
      3 O          -5.0170   -0.4370    1.6874 O.3     1  UNL1       -0.4771
      4 C          -3.6338    0.7529    0.0381 C.ar    1  UNL1        0.0606
      5 C          -3.5181    1.8264   -0.8198 C.ar    1  UNL1       -0.0477
      6 C          -2.3783    1.9685   -1.5620 C.ar    1  UNL1       -0.0592
      7 C          -1.3427    1.0290   -1.4468 C.ar    1  UNL1       -0.0405
      8 C          -1.4503   -0.0409   -0.5949 C.ar    1  UNL1        0.0322
      9 N          -0.4275   -0.9952   -0.4345 N.pl3   1  UNL1       -0.3092
     10 C           0.9391   -0.7101   -0.1868 C.ar    1  UNL1        0.1095
     11 C           1.3084    0.6265    0.0176 C.ar    1  UNL1       -0.0334
     12 C           2.6250    0.9817    0.2569 C.ar    1  UNL1       -0.0479
     13 C           3.6298    0.0459    0.3063 C.ar    1  UNL1        0.0613
     14 C           5.0299    0.4811    0.5667 C.3     1  UNL1        0.4176
     15 F           5.9310   -0.4760    0.1484 F       1  UNL1       -0.1659
     16 F           5.1540    0.7051    1.9246 F       1  UNL1       -0.1659
     17 F           5.2197    1.6783   -0.0986 F       1  UNL1       -0.1659
     18 C           3.2784   -1.2612    0.1080 C.ar    1  UNL1        0.0291
     19 C           1.9439   -1.6408   -0.1376 C.ar    1  UNL1        0.2945
     20 N           1.6840   -3.0176   -0.3308 N.pl3   1  UNL1        0.0815
     21 O           2.4513   -3.8578    0.2493 O.2     1  UNL1        0.0415
     22 O           0.6981   -3.5835   -1.0719 O.co2   1  UNL1       -0.5760
     23 C          -2.6150   -0.1681    0.1498 C.ar    1  UNL1       -0.0266
     24 H          -5.9364   -0.8687    1.8415 H       1  UNL1        0.2954
     25 H          -4.3211    2.5535   -0.9084 H       1  UNL1        0.0626
     26 H          -2.2514    2.8027   -2.2487 H       1  UNL1        0.0618
     27 H          -0.4561    1.1268   -2.0372 H       1  UNL1        0.0636
     28 H          -0.6871   -2.0283   -0.4878 H       1  UNL1        0.1523
     29 H           0.5769    1.4261    0.0113 H       1  UNL1        0.0638
     30 H           2.9166    2.0286    0.4163 H       1  UNL1        0.0624
     31 H           4.0438   -2.0232    0.1403 H       1  UNL1        0.0691
     32 H          -2.7454   -1.0027    0.8399 H       1  UNL1        0.0644
@<TRIPOS>UNITY_ATOM_ATTR
20 1
charge 1
22 1
charge -1
@<TRIPOS>BOND
     1     1     2    2
     2     2     3    1
     3     2     4    1
     4     4     5   ar
     5     5     6   ar
     6     6     7   ar
     7     7     8   ar
     8     8     9    1
     9     9    10    1
    10    10    11   ar
    11    11    12   ar
    12    12    13   ar
    13    13    14    1
    14    14    15    1
    15    14    16    1
    16    14    17    1
    17    13    18   ar
    18    18    19   ar
    19    19    20    1
    20    20    21    2
    21    20    22    1
    22     8    23   ar
    23    23     4   ar
    24    19    10   ar
    25     3    24    1
    26     5    25    1
    27     6    26    1
    28     7    27    1
    29     9    28    1
    30    11    29    1
    31    12    30    1
    32    18    31    1
    33    23    32    1
