@<TRIPOS>MOLECULE
*****
 50 52 0 0 0
SMALL
GASTEIGER

@<TRIPOS>ATOM
      1 N          -6.7990   -0.2007    1.9322 N.1     1  UNL1       -0.1946
      2 C          -5.9771    0.2965    1.2645 C.1     1  UNL1        0.0851
      3 C          -4.9365    0.9255    0.4308 C.3     1  UNL1        0.1130
      4 C          -5.7033    1.6178   -0.6977 C.3     1  UNL1       -0.0196
      5 C          -5.6709    0.6762   -1.8636 C.3     1  UNL1       -0.0345
      6 C          -5.0127   -0.5745   -1.2915 C.3     1  UNL1        0.0161
      7 N          -4.1288   -0.0753   -0.2558 N.am    1  UNL1       -0.2841
      8 C          -2.8191   -0.4754   -0.0088 C.2     1  UNL1        0.2371
      9 O          -2.3163   -1.3830   -0.7609 O.2     1  UNL1       -0.2735
     10 C          -1.9313    0.0410    1.0408 C.3     1  UNL1        0.1024
     11 C          -2.3772   -0.3448    2.4254 C.3     1  UNL1       -0.0243
     12 C          -1.7769   -1.7218    2.5951 C.3     1  UNL1       -0.0350
     13 C          -0.6727   -1.8350    1.5508 C.3     1  UNL1        0.0155
     14 N          -0.6004   -0.5189    0.9734 N.am    1  UNL1       -0.2899
     15 C           0.5457    0.1060    0.4427 C.2     1  UNL1        0.2162
     16 O           0.4573    1.2754   -0.0332 O.2     1  UNL1       -0.2756
     17 C           1.8259   -0.6047    0.4479 C.3     1  UNL1        0.0245
     18 C           2.9493    0.1936   -0.1679 C.3     1  UNL1       -0.0408
     19 C           4.2091   -0.6805   -0.0849 C.3     1  UNL1       -0.0272
     20 C           5.3667    0.0491   -0.6801 C.ar    1  UNL1       -0.0473
     21 C           6.1997    0.8680    0.0526 C.ar    1  UNL1       -0.0586
     22 C           7.2543    1.5297   -0.5121 C.ar    1  UNL1       -0.0615
     23 C           7.4904    1.3715   -1.8572 C.ar    1  UNL1       -0.0617
     24 C           6.6634    0.5525   -2.6079 C.ar    1  UNL1       -0.0615
     25 C           5.6091   -0.1046   -2.0258 C.ar    1  UNL1       -0.0586
     26 H          -4.3606    1.6897    0.9492 H       1  UNL1        0.0659
     27 H          -6.7397    1.8439   -0.4041 H       1  UNL1        0.0294
     28 H          -5.2253    2.5926   -0.9570 H       1  UNL1        0.0294
     29 H          -5.0723    1.1302   -2.6726 H       1  UNL1        0.0281
     30 H          -6.6947    0.4727   -2.2156 H       1  UNL1        0.0281
     31 H          -4.4639   -1.0601   -2.1103 H       1  UNL1        0.0465
     32 H          -5.8245   -1.1889   -0.8701 H       1  UNL1        0.0465
     33 H          -1.8952    1.1592    0.9228 H       1  UNL1        0.0597
     34 H          -1.9595    0.3206    3.2044 H       1  UNL1        0.0288
     35 H          -3.4602   -0.3332    2.5038 H       1  UNL1        0.0288
     36 H          -1.3012   -1.8115    3.6115 H       1  UNL1        0.0281
     37 H          -2.5243   -2.4944    2.4124 H       1  UNL1        0.0281
     38 H          -0.9404   -2.5497    0.7453 H       1  UNL1        0.0465
     39 H           0.2638   -2.1674    2.0262 H       1  UNL1        0.0465
     40 H           1.7051   -1.5258   -0.1900 H       1  UNL1        0.0358
     41 H           2.1459   -0.8593    1.4794 H       1  UNL1        0.0358
     42 H           3.1434    1.0668    0.4913 H       1  UNL1        0.0273
     43 H           2.7567    0.4939   -1.2093 H       1  UNL1        0.0273
     44 H           4.0363   -1.6627   -0.5603 H       1  UNL1        0.0313
     45 H           4.4672   -0.8849    0.9725 H       1  UNL1        0.0313
     46 H           6.0099    0.9901    1.1160 H       1  UNL1        0.0620
     47 H           7.9188    2.1833    0.0729 H       1  UNL1        0.0618
     48 H           8.3243    1.9013   -2.2760 H       1  UNL1        0.0618
     49 H           6.8794    0.4522   -3.6583 H       1  UNL1        0.0618
     50 H           4.9622   -0.7420   -2.5993 H       1  UNL1        0.0620
@<TRIPOS>BOND
     1     1     2    3
     2     2     3    1
     3     3     4    1
     4     4     5    1
     5     5     6    1
     6     6     7    1
     7     7     8   am
     8     8     9    2
     9     8    10    1
    10    10    11    1
    11    11    12    1
    12    12    13    1
    13    13    14    1
    14    14    15   am
    15    15    16    2
    16    15    17    1
    17    17    18    1
    18    18    19    1
    19    19    20    1
    20    20    21   ar
    21    21    22   ar
    22    22    23   ar
    23    23    24   ar
    24    24    25   ar
    25     7     3    1
    26    14    10    1
    27    25    20   ar
    28     3    26    1
    29     4    27    1
    30     4    28    1
    31     5    29    1
    32     5    30    1
    33     6    31    1
    34     6    32    1
    35    10    33    1
    36    11    34    1
    37    11    35    1
    38    12    36    1
    39    12    37    1
    40    13    38    1
    41    13    39    1
    42    17    40    1
    43    17    41    1
    44    18    42    1
    45    18    43    1
    46    19    44    1
    47    19    45    1
    48    21    46    1
    49    22    47    1
    50    23    48    1
    51    24    49    1
    52    25    50    1
