@<TRIPOS>MOLECULE
*****
 23 23 0 0 0
SMALL
GASTEIGER

@<TRIPOS>ATOM
      1 C          -1.0973   -0.9364    0.4955 C.3     1  UNL1        0.0882
      2 O          -1.8301   -2.1080    0.4333 O.3     1  UNL1       -0.3890
      3 C           0.3512   -1.1328    0.0507 C.3     1  UNL1        0.0044
      4 C           1.0723    0.1482    0.4267 C.3     1  UNL1        0.0872
      5 C           2.4612    0.1366   -0.1811 C.3     1  UNL1        0.0706
      6 O           3.1608    1.2356    0.3005 O.3     1  UNL1       -0.3925
      7 O           0.3587    1.2743    0.1205 O.3     1  UNL1       -0.3433
      8 C          -0.6354    1.1404   -0.8102 C.3     1  UNL1        0.1852
      9 O          -1.3203    2.3683   -0.8467 O.3     1  UNL1       -0.3649
     10 C          -1.6623    0.0988   -0.4684 C.3     1  UNL1        0.1315
     11 O          -2.8469    0.6394   -0.0009 O.3     1  UNL1       -0.3842
     12 H          -1.0404   -0.5137    1.5278 H       1  UNL1        0.0621
     13 H          -1.8169   -2.5742    1.3147 H       1  UNL1        0.2099
     14 H           0.8272   -1.9767    0.5956 H       1  UNL1        0.0317
     15 H           0.3667   -1.2695   -1.0477 H       1  UNL1        0.0317
     16 H           1.2104    0.1098    1.5282 H       1  UNL1        0.0621
     17 H           2.4560    0.0490   -1.2833 H       1  UNL1        0.0583
     18 H           2.9714   -0.7615    0.2767 H       1  UNL1        0.0583
     19 H           4.1095    1.0862    0.4404 H       1  UNL1        0.2095
     20 H          -0.2332    1.0060   -1.8484 H       1  UNL1        0.0935
     21 H          -1.5603    2.5641    0.1008 H       1  UNL1        0.2126
     22 H          -1.8822   -0.4670   -1.4076 H       1  UNL1        0.0670
     23 H          -3.4202   -0.1171    0.2830 H       1  UNL1        0.2101
@<TRIPOS>BOND
     1     1     2    1
     2     1     3    1
     3     3     4    1
     4     4     5    1
     5     5     6    1
     6     4     7    1
     7     7     8    1
     8     8     9    1
     9     8    10    1
    10    10    11    1
    11    10     1    1
    12     1    12    1
    13     2    13    1
    14     3    14    1
    15     3    15    1
    16     4    16    1
    17     5    17    1
    18     5    18    1
    19     6    19    1
    20     8    20    1
    21     9    21    1
    22    10    22    1
    23    11    23    1
