
     RDKit          3D

 64 68  0  0  0  0  0  0  0  0999 V2000
   -5.2759   -5.3973    0.1510 C   0  0  0  0  0  0  0  0  0  0  0  0
   -4.7281   -4.1332   -0.3642 N   0  0  0  0  0  0  0  0  0  0  0  0
   -3.6010   -3.5292    0.2403 C   0  0  0  0  0  0  0  0  0  0  0  0
   -3.1181   -4.1527    1.2379 O   0  0  0  0  0  0  0  0  0  0  0  0
   -2.9986   -2.3200   -0.1802 N   0  0  0  0  0  0  0  0  0  0  0  0
   -3.5096   -1.5926   -1.2849 C   0  0  0  0  0  0  0  0  0  0  0  0
   -3.8308   -0.1205   -0.9516 C   0  0  0  0  0  0  0  0  0  0  0  0
   -2.6350    0.4283   -0.2946 C   0  0  0  0  0  0  0  0  0  0  0  0
   -1.7365   -0.3748    0.3861 C   0  0  0  0  0  0  0  0  0  0  0  0
   -0.7401    0.4716    0.8982 C   0  0  0  0  0  0  0  0  0  0  0  0
    0.3846    0.0793    1.6777 N   0  0  0  0  0  0  0  0  0  0  0  0
    1.7171   -0.0125    1.2441 C   0  0  0  0  0  0  0  0  0  0  0  0
    2.3774   -1.2167    1.2942 C   0  0  0  0  0  0  0  0  0  0  0  0
    3.7226   -1.3141    0.8964 C   0  0  0  0  0  0  0  0  0  0  0  0
    4.4076   -0.2253    0.4520 C   0  0  0  0  0  0  0  0  0  0  0  0
    5.7949   -0.2132    0.0135 C   0  0  0  0  0  0  0  0  0  0  0  0
    6.8002    0.6077    0.5605 C   0  0  0  0  0  0  0  0  0  0  0  0
    7.9657    0.3655   -0.0546 N   0  0  0  0  0  0  0  0  0  0  0  0
    9.2561    1.0087    0.2181 C   0  0  0  0  0  0  0  0  0  0  0  0
    7.7562   -0.5593   -0.9580 N   0  0  0  0  0  0  0  0  0  0  0  0
    6.4448   -0.9468   -0.9562 C   0  0  0  0  0  0  0  0  0  0  0  0
    5.8713   -1.9582   -1.8437 C   0  0  0  0  0  0  0  0  0  0  0  0
    4.8286   -1.4334   -2.6072 F   0  0  0  0  0  0  0  0  0  0  0  0
    5.5286   -3.0756   -1.1466 F   0  0  0  0  0  0  0  0  0  0  0  0
    6.8681   -2.3447   -2.7475 F   0  0  0  0  0  0  0  0  0  0  0  0
    3.7347    1.0043    0.3992 C   0  0  0  0  0  0  0  0  0  0  0  0
    2.4099    1.0841    0.7942 C   0  0  0  0  0  0  0  0  0  0  0  0
    1.7902    2.2814    0.7286 F   0  0  0  0  0  0  0  0  0  0  0  0
   -1.0484    1.6817    0.5324 N   0  0  0  0  0  0  0  0  0  0  0  0
   -2.1913    1.6795   -0.1906 N   0  0  0  0  0  0  0  0  0  0  0  0
   -2.6385    2.9424   -0.6570 C   0  0  0  0  0  0  0  0  0  0  0  0
   -3.8918    3.0915   -1.3767 C   0  0  0  0  0  0  0  0  0  0  0  0
   -5.1314    3.0898   -0.4706 C   0  0  0  0  0  0  0  0  0  0  0  0
   -4.9899    4.1996    0.3865 O   0  0  0  0  0  0  0  0  0  0  0  0
   -3.9500    3.9172    1.2422 C   0  0  0  0  0  0  0  0  0  0  0  0
   -2.6244    3.9202    0.5142 C   0  0  0  0  0  0  0  0  0  0  0  0
   -1.8418   -1.8432    0.5260 C   0  0  0  0  0  0  0  0  0  0  0  0
   -5.8141   -5.9115   -0.6753 H   0  0  0  0  0  0  0  0  0  0  0  0
   -5.9597   -5.2291    0.9877 H   0  0  0  0  0  0  0  0  0  0  0  0
   -4.4290   -6.0806    0.4294 H   0  0  0  0  0  0  0  0  0  0  0  0
   -5.1871   -3.7090   -1.1721 H   0  0  0  0  0  0  0  0  0  0  0  0
   -2.6724   -1.5342   -2.0462 H   0  0  0  0  0  0  0  0  0  0  0  0
   -4.3467   -2.0290   -1.8281 H   0  0  0  0  0  0  0  0  0  0  0  0
   -4.0768    0.2992   -1.9372 H   0  0  0  0  0  0  0  0  0  0  0  0
   -4.6977   -0.2046   -0.2634 H   0  0  0  0  0  0  0  0  0  0  0  0
    0.2041   -0.1733    2.7027 H   0  0  0  0  0  0  0  0  0  0  0  0
    1.9247   -2.1433    1.6343 H   0  0  0  0  0  0  0  0  0  0  0  0
    4.2146   -2.2695    0.9594 H   0  0  0  0  0  0  0  0  0  0  0  0
    6.6479    1.3235    1.3517 H   0  0  0  0  0  0  0  0  0  0  0  0
    9.7480    1.1742   -0.7557 H   0  0  0  0  0  0  0  0  0  0  0  0
    9.8909    0.3350    0.7972 H   0  0  0  0  0  0  0  0  0  0  0  0
    9.0405    1.9615    0.7669 H   0  0  0  0  0  0  0  0  0  0  0  0
    4.2585    1.8935    0.0467 H   0  0  0  0  0  0  0  0  0  0  0  0
   -1.8139    3.3395   -1.3333 H   0  0  0  0  0  0  0  0  0  0  0  0
   -3.8983    4.1871   -1.7434 H   0  0  0  0  0  0  0  0  0  0  0  0
   -4.0787    2.5485   -2.2917 H   0  0  0  0  0  0  0  0  0  0  0  0
   -5.9715    3.3685   -1.1546 H   0  0  0  0  0  0  0  0  0  0  0  0
   -5.2844    2.1510    0.0507 H   0  0  0  0  0  0  0  0  0  0  0  0
   -3.8667    4.6436    2.0720 H   0  0  0  0  0  0  0  0  0  0  0  0
   -4.0950    2.8629    1.5959 H   0  0  0  0  0  0  0  0  0  0  0  0
   -1.8519    3.5956    1.2407 H   0  0  0  0  0  0  0  0  0  0  0  0
   -2.3401    4.9303    0.1645 H   0  0  0  0  0  0  0  0  0  0  0  0
   -0.8970   -2.2645    0.0866 H   0  0  0  0  0  0  0  0  0  0  0  0
   -1.8253   -2.1549    1.5870 H   0  0  0  0  0  0  0  0  0  0  0  0
  1  2  1  0
  2  3  1  0
  3  4  2  0
  3  5  1  0
  5  6  1  0
  6  7  1  0
  7  8  1  0
  8  9  2  0
  9 10  1  0
 10 11  1  0
 11 12  1  0
 12 13  2  0
 13 14  1  0
 14 15  2  0
 15 16  1  0
 16 17  2  0
 17 18  1  0
 18 19  1  0
 18 20  1  0
 20 21  2  0
 21 22  1  0
 22 23  1  0
 22 24  1  0
 22 25  1  0
 15 26  1  0
 26 27  2  0
 27 28  1  0
 10 29  2  0
 29 30  1  0
 30 31  1  0
 31 32  1  0
 32 33  1  0
 33 34  1  0
 34 35  1  0
 35 36  1  0
  9 37  1  0
 37  5  1  0
 30  8  1  0
 36 31  1  0
 27 12  1  0
 21 16  1  0
  1 38  1  0
  1 39  1  0
  1 40  1  0
  2 41  1  0
  6 42  1  0
  6 43  1  0
  7 44  1  0
  7 45  1  0
 11 46  1  0
 13 47  1  0
 14 48  1  0
 17 49  1  0
 19 50  1  0
 19 51  1  0
 19 52  1  0
 26 53  1  0
 31 54  1  0
 32 55  1  0
 32 56  1  0
 33 57  1  0
 33 58  1  0
 35 59  1  0
 35 60  1  0
 36 61  1  0
 36 62  1  0
 37 63  1  0
 37 64  1  0
M  END
$$$$
