@<TRIPOS>MOLECULE
*****
 64 68 0 0 0
SMALL
GASTEIGER

@<TRIPOS>ATOM
      1 C          -5.2759   -5.3973    0.1510 C.3     1  UNL1        0.0015
      2 N          -4.7281   -4.1332   -0.3642 N.am    1  UNL1       -0.3023
      3 C          -3.6010   -3.5292    0.2403 C.2     1  UNL1        0.3023
      4 O          -3.1181   -4.1527    1.2379 O.2     1  UNL1       -0.2526
      5 N          -2.9986   -2.3200   -0.1802 N.am    1  UNL1       -0.2808
      6 C          -3.5096   -1.5926   -1.2849 C.3     1  UNL1        0.0219
      7 C          -3.8308   -0.1205   -0.9516 C.3     1  UNL1        0.0056
      8 C          -2.6350    0.4283   -0.2946 C.ar    1  UNL1        0.0476
      9 C          -1.7365   -0.3748    0.3861 C.ar    1  UNL1        0.0325
     10 C          -0.7401    0.4716    0.8982 C.ar    1  UNL1        0.1499
     11 N           0.3846    0.0793    1.6777 N.pl3   1  UNL1       -0.2955
     12 C           1.7171   -0.0125    1.2441 C.ar    1  UNL1        0.0681
     13 C           2.3774   -1.2167    1.2942 C.ar    1  UNL1       -0.0371
     14 C           3.7226   -1.3141    0.8964 C.ar    1  UNL1       -0.0520
     15 C           4.4076   -0.2253    0.4520 C.ar    1  UNL1       -0.0116
     16 C           5.7949   -0.2132    0.0135 C.ar    1  UNL1        0.0316
     17 C           6.8002    0.6077    0.5605 C.ar    1  UNL1        0.0334
     18 N           7.9657    0.3655   -0.0546 N.ar    1  UNL1       -0.2734
     19 C           9.2561    1.0087    0.2181 C.3     1  UNL1        0.0302
     20 N           7.7562   -0.5593   -0.9580 N.ar    1  UNL1       -0.1668
     21 C           6.4448   -0.9468   -0.9562 C.ar    1  UNL1        0.1728
     22 C           5.8713   -1.9582   -1.8437 C.3     1  UNL1        0.4365
     23 F           4.8286   -1.4334   -2.6072 F       1  UNL1       -0.1643
     24 F           5.5286   -3.0756   -1.1466 F       1  UNL1       -0.1643
     25 F           6.8681   -2.3447   -2.7475 F       1  UNL1       -0.1643
     26 C           3.7347    1.0043    0.3992 C.ar    1  UNL1       -0.0168
     27 C           2.4099    1.0841    0.7942 C.ar    1  UNL1        0.1450
     28 F           1.7902    2.2814    0.7286 F       1  UNL1       -0.2035
     29 N          -1.0484    1.6817    0.5324 N.ar    1  UNL1       -0.1552
     30 N          -2.1913    1.6795   -0.1906 N.ar    1  UNL1       -0.2630
     31 C          -2.6385    2.9424   -0.6570 C.3     1  UNL1        0.0572
     32 C          -3.8918    3.0915   -1.3767 C.3     1  UNL1       -0.0069
     33 C          -5.1314    3.0898   -0.4706 C.3     1  UNL1        0.0496
     34 O          -4.9899    4.1996    0.3865 O.3     1  UNL1       -0.3796
     35 C          -3.9500    3.9172    1.2422 C.3     1  UNL1        0.0496
     36 C          -2.6244    3.9202    0.5142 C.3     1  UNL1       -0.0069
     37 C          -1.8418   -1.8432    0.5260 C.3     1  UNL1        0.0462
     38 H          -5.8141   -5.9115   -0.6753 H       1  UNL1        0.0426
     39 H          -5.9597   -5.2291    0.9877 H       1  UNL1        0.0426
     40 H          -4.4290   -6.0806    0.4294 H       1  UNL1        0.0426
     41 H          -5.1871   -3.7090   -1.1721 H       1  UNL1        0.1499
     42 H          -2.6724   -1.5342   -2.0462 H       1  UNL1        0.0469
     43 H          -4.3467   -2.0290   -1.8281 H       1  UNL1        0.0469
     44 H          -4.0768    0.2992   -1.9372 H       1  UNL1        0.0343
     45 H          -4.6977   -0.2046   -0.2634 H       1  UNL1        0.0343
     46 H           0.2041   -0.1733    2.7027 H       1  UNL1        0.1537
     47 H           1.9247   -2.1433    1.6343 H       1  UNL1        0.0637
     48 H           4.2146   -2.2695    0.9594 H       1  UNL1        0.0624
     49 H           6.6479    1.3235    1.3517 H       1  UNL1        0.0832
     50 H           9.7480    1.1742   -0.7557 H       1  UNL1        0.0473
     51 H           9.8909    0.3350    0.7972 H       1  UNL1        0.0473
     52 H           9.0405    1.9615    0.7669 H       1  UNL1        0.0473
     53 H           4.2585    1.8935    0.0467 H       1  UNL1        0.0653
     54 H          -1.8139    3.3395   -1.3333 H       1  UNL1        0.0546
     55 H          -3.8983    4.1871   -1.7434 H       1  UNL1        0.0308
     56 H          -4.0787    2.5485   -2.2917 H       1  UNL1        0.0308
     57 H          -5.9715    3.3685   -1.1546 H       1  UNL1        0.0560
     58 H          -5.2844    2.1510    0.0507 H       1  UNL1        0.0560
     59 H          -3.8667    4.6436    2.0720 H       1  UNL1        0.0560
     60 H          -4.0950    2.8629    1.5959 H       1  UNL1        0.0560
     61 H          -1.8519    3.5956    1.2407 H       1  UNL1        0.0308
     62 H          -2.3401    4.9303    0.1645 H       1  UNL1        0.0308
     63 H          -0.8970   -2.2645    0.0866 H       1  UNL1        0.0516
     64 H          -1.8253   -2.1549    1.5870 H       1  UNL1        0.0516
@<TRIPOS>BOND
     1     1     2    1
     2     2     3   am
     3     3     4    2
     4     3     5   am
     5     5     6    1
     6     6     7    1
     7     7     8    1
     8     8     9   ar
     9     9    10   ar
    10    10    11    1
    11    11    12    1
    12    12    13   ar
    13    13    14   ar
    14    14    15   ar
    15    15    16    1
    16    16    17   ar
    17    17    18   ar
    18    18    19    1
    19    18    20   ar
    20    20    21   ar
    21    21    22    1
    22    22    23    1
    23    22    24    1
    24    22    25    1
    25    15    26   ar
    26    26    27   ar
    27    27    28    1
    28    10    29   ar
    29    29    30   ar
    30    30    31    1
    31    31    32    1
    32    32    33    1
    33    33    34    1
    34    34    35    1
    35    35    36    1
    36     9    37    1
    37    37     5    1
    38    30     8   ar
    39    36    31    1
    40    27    12   ar
    41    21    16   ar
    42     1    38    1
    43     1    39    1
    44     1    40    1
    45     2    41    1
    46     6    42    1
    47     6    43    1
    48     7    44    1
    49     7    45    1
    50    11    46    1
    51    13    47    1
    52    14    48    1
    53    17    49    1
    54    19    50    1
    55    19    51    1
    56    19    52    1
    57    26    53    1
    58    31    54    1
    59    32    55    1
    60    32    56    1
    61    33    57    1
    62    33    58    1
    63    35    59    1
    64    35    60    1
    65    36    61    1
    66    36    62    1
    67    37    63    1
    68    37    64    1
