@<TRIPOS>MOLECULE
*****
 82 86 0 0 0
SMALL
GASTEIGER

@<TRIPOS>ATOM
      1 C          -0.5915    1.1181    3.5273 C.3     1  UNL1        0.0789
      2 O           0.2436    0.6726    2.4836 O.3     1  UNL1       -0.4932
      3 C          -0.3210    0.2452    1.2762 C.ar    1  UNL1        0.1429
      4 C          -1.6647    0.2382    1.0546 C.ar    1  UNL1        0.0029
      5 C          -2.2507   -0.1747   -0.1187 C.ar    1  UNL1        0.0333
      6 N          -3.6543   -0.1598   -0.3122 N.pl3   1  UNL1       -0.3297
      7 C          -4.2228   -0.7431   -1.5107 C.3     1  UNL1        0.0136
      8 C          -5.6850   -1.1124   -1.2156 C.3     1  UNL1       -0.0215
      9 C          -6.4085    0.2099   -1.0891 C.3     1  UNL1        0.0133
     10 N          -7.7716    0.1124   -0.7015 N.3     1  UNL1       -0.2969
     11 C          -8.5826   -0.6503   -1.6310 C.3     1  UNL1        0.0120
     12 C          -9.9948   -0.0986   -1.5374 C.3     1  UNL1        0.0114
     13 N         -10.3291    0.1426   -0.1461 N.3     1  UNL1       -0.3029
     14 C         -10.3595    1.5428    0.1807 C.3     1  UNL1       -0.0127
     15 C          -9.5111   -0.6426    0.7503 C.3     1  UNL1        0.0114
     16 C          -8.0315   -0.2439    0.6531 C.3     1  UNL1        0.0120
     17 C          -5.6755    1.1476   -0.1656 C.3     1  UNL1       -0.0215
     18 C          -4.5803    0.4217    0.6317 C.3     1  UNL1        0.0136
     19 C          -1.3771   -0.5986   -1.0998 C.ar    1  UNL1       -0.0387
     20 C           0.0015   -0.6045   -0.9070 C.ar    1  UNL1       -0.0351
     21 C           0.5601   -0.1878    0.2723 C.ar    1  UNL1        0.0759
     22 N           1.9336   -0.1897    0.4893 N.pl3   1  UNL1       -0.2806
     23 C           2.9636   -0.5516   -0.3902 C.ar    1  UNL1        0.2213
     24 N           2.7618   -0.9479   -1.6555 N.ar    1  UNL1       -0.2211
     25 C           3.7378   -1.2953   -2.5038 C.ar    1  UNL1        0.0528
     26 C           5.0366   -1.2348   -2.0236 C.ar    1  UNL1        0.0991
     27 CL          6.3449   -1.6771   -3.0878 Cl      1  UNL1       -0.0784
     28 C           5.3192   -0.8271   -0.7051 C.ar    1  UNL1        0.1465
     29 N           6.6657   -0.7947   -0.3179 N.pl3   1  UNL1       -0.2967
     30 C           7.1432   -0.4529    0.9602 C.ar    1  UNL1        0.0575
     31 C           6.2791   -0.1750    2.0188 C.ar    1  UNL1       -0.0386
     32 C           6.7769    0.1007    3.2853 C.ar    1  UNL1       -0.0599
     33 C           8.1214    0.1099    3.5383 C.ar    1  UNL1       -0.0598
     34 C           8.9853   -0.1577    2.5147 C.ar    1  UNL1       -0.0350
     35 C           8.5151   -0.4407    1.2134 C.ar    1  UNL1        0.1095
     36 S           9.6993   -0.6323   -0.0376 S.O2    1  UNL1        0.0010
     37 O           9.3805   -1.7823   -0.9470 O.2     1  UNL1       -0.1690
     38 O          11.0304   -0.9590    0.6595 O.2     1  UNL1       -0.1690
     39 C           9.8955    0.8502   -0.9603 C.3     1  UNL1        0.0764
     40 C          10.9765    0.6256   -2.0204 C.3     1  UNL1       -0.0427
     41 C           8.6483    1.3227   -1.6352 C.3     1  UNL1       -0.0427
     42 N           4.2654   -0.5121    0.0257 N.ar    1  UNL1       -0.1977
     43 H           0.0461    1.5366    4.3294 H       1  UNL1        0.0660
     44 H          -1.1427    0.2680    3.9861 H       1  UNL1        0.0660
     45 H          -1.3112    1.8705    3.1824 H       1  UNL1        0.0660
     46 H          -2.2986    0.5873    1.8793 H       1  UNL1        0.0673
     47 H          -4.2400   -0.0281   -2.3562 H       1  UNL1        0.0464
     48 H          -3.6692   -1.6832   -1.7871 H       1  UNL1        0.0464
     49 H          -6.0503   -1.6459   -2.1021 H       1  UNL1        0.0295
     50 H          -5.6772   -1.7022   -0.2916 H       1  UNL1        0.0295
     51 H          -6.3869    0.6592   -2.1127 H       1  UNL1        0.0463
     52 H          -8.1757   -0.5973   -2.6473 H       1  UNL1        0.0439
     53 H          -8.6249   -1.7056   -1.2585 H       1  UNL1        0.0439
     54 H         -10.0084    0.8616   -2.0887 H       1  UNL1        0.0439
     55 H         -10.7236   -0.7703   -2.0365 H       1  UNL1        0.0439
     56 H         -10.7607    2.0778   -0.7064 H       1  UNL1        0.0391
     57 H          -9.3760    1.9566    0.4691 H       1  UNL1        0.0391
     58 H         -11.0982    1.6865    1.0013 H       1  UNL1        0.0391
     59 H          -9.6657   -1.7104    0.4969 H       1  UNL1        0.0439
     60 H          -9.8919   -0.4205    1.7841 H       1  UNL1        0.0439
     61 H          -7.9535    0.6790    1.2910 H       1  UNL1        0.0439
     62 H          -7.4313   -1.0615    1.0564 H       1  UNL1        0.0439
     63 H          -5.2103    1.9887   -0.7397 H       1  UNL1        0.0295
     64 H          -6.3236    1.6464    0.5816 H       1  UNL1        0.0295
     65 H          -4.1238    1.1903    1.2601 H       1  UNL1        0.0464
     66 H          -5.0950   -0.3532    1.2438 H       1  UNL1        0.0464
     67 H          -1.7834   -0.9305   -2.0329 H       1  UNL1        0.0637
     68 H           0.5923   -0.9620   -1.7498 H       1  UNL1        0.0638
     69 H           2.2622    0.1261    1.4604 H       1  UNL1        0.1551
     70 H           3.5231   -1.6101   -3.5212 H       1  UNL1        0.0847
     71 H           7.3765   -1.0694   -1.0232 H       1  UNL1        0.1537
     72 H           5.2195   -0.1702    1.8750 H       1  UNL1        0.0637
     73 H           6.0803    0.3077    4.0696 H       1  UNL1        0.0618
     74 H           8.5233    0.3242    4.5340 H       1  UNL1        0.0618
     75 H          10.0735   -0.1567    2.6892 H       1  UNL1        0.0637
     76 H          10.2714    1.6776   -0.2624 H       1  UNL1        0.0534
     77 H          10.4803    0.4643   -3.0042 H       1  UNL1        0.0248
     78 H          11.6658    1.4859   -2.0946 H       1  UNL1        0.0248
     79 H          11.5890   -0.2643   -1.7850 H       1  UNL1        0.0248
     80 H           8.2790    0.5774   -2.3614 H       1  UNL1        0.0248
     81 H           7.9040    1.5537   -0.8410 H       1  UNL1        0.0248
     82 H           8.8617    2.3024   -2.1850 H       1  UNL1        0.0248
@<TRIPOS>BOND
     1     1     2    1
     2     2     3    1
     3     3     4   ar
     4     4     5   ar
     5     5     6    1
     6     6     7    1
     7     7     8    1
     8     8     9    1
     9     9    10    1
    10    10    11    1
    11    11    12    1
    12    12    13    1
    13    13    14    1
    14    13    15    1
    15    15    16    1
    16     9    17    1
    17    17    18    1
    18     5    19   ar
    19    19    20   ar
    20    20    21   ar
    21    21    22    1
    22    22    23    1
    23    23    24   ar
    24    24    25   ar
    25    25    26   ar
    26    26    27    1
    27    26    28   ar
    28    28    29    1
    29    29    30    1
    30    30    31   ar
    31    31    32   ar
    32    32    33   ar
    33    33    34   ar
    34    34    35   ar
    35    35    36    1
    36    36    37    2
    37    36    38    2
    38    36    39    1
    39    39    40    1
    40    39    41    1
    41    28    42   ar
    42    21     3   ar
    43    42    23   ar
    44    18     6    1
    45    35    30   ar
    46    16    10    1
    47     1    43    1
    48     1    44    1
    49     1    45    1
    50     4    46    1
    51     7    47    1
    52     7    48    1
    53     8    49    1
    54     8    50    1
    55     9    51    1
    56    11    52    1
    57    11    53    1
    58    12    54    1
    59    12    55    1
    60    14    56    1
    61    14    57    1
    62    14    58    1
    63    15    59    1
    64    15    60    1
    65    16    61    1
    66    16    62    1
    67    17    63    1
    68    17    64    1
    69    18    65    1
    70    18    66    1
    71    19    67    1
    72    20    68    1
    73    22    69    1
    74    25    70    1
    75    29    71    1
    76    31    72    1
    77    32    73    1
    78    33    74    1
    79    34    75    1
    80    39    76    1
    81    40    77    1
    82    40    78    1
    83    40    79    1
    84    41    80    1
    85    41    81    1
    86    41    82    1
