
     RDKit          3D

 82 86  0  0  0  0  0  0  0  0999 V2000
   -0.5915    1.1181    3.5273 C   0  0  0  0  0  0  0  0  0  0  0  0
    0.2436    0.6726    2.4836 O   0  0  0  0  0  0  0  0  0  0  0  0
   -0.3210    0.2452    1.2762 C   0  0  0  0  0  0  0  0  0  0  0  0
   -1.6647    0.2382    1.0546 C   0  0  0  0  0  0  0  0  0  0  0  0
   -2.2507   -0.1747   -0.1187 C   0  0  0  0  0  0  0  0  0  0  0  0
   -3.6543   -0.1598   -0.3122 N   0  0  0  0  0  0  0  0  0  0  0  0
   -4.2228   -0.7431   -1.5107 C   0  0  0  0  0  0  0  0  0  0  0  0
   -5.6850   -1.1124   -1.2156 C   0  0  0  0  0  0  0  0  0  0  0  0
   -6.4085    0.2099   -1.0891 C   0  0  0  0  0  0  0  0  0  0  0  0
   -7.7716    0.1124   -0.7015 N   0  0  0  0  0  0  0  0  0  0  0  0
   -8.5826   -0.6503   -1.6310 C   0  0  0  0  0  0  0  0  0  0  0  0
   -9.9948   -0.0986   -1.5374 C   0  0  0  0  0  0  0  0  0  0  0  0
  -10.3291    0.1426   -0.1461 N   0  0  0  0  0  0  0  0  0  0  0  0
  -10.3595    1.5428    0.1807 C   0  0  0  0  0  0  0  0  0  0  0  0
   -9.5111   -0.6426    0.7503 C   0  0  0  0  0  0  0  0  0  0  0  0
   -8.0315   -0.2439    0.6531 C   0  0  0  0  0  0  0  0  0  0  0  0
   -5.6755    1.1476   -0.1656 C   0  0  0  0  0  0  0  0  0  0  0  0
   -4.5803    0.4217    0.6317 C   0  0  0  0  0  0  0  0  0  0  0  0
   -1.3771   -0.5986   -1.0998 C   0  0  0  0  0  0  0  0  0  0  0  0
    0.0015   -0.6045   -0.9070 C   0  0  0  0  0  0  0  0  0  0  0  0
    0.5601   -0.1878    0.2723 C   0  0  0  0  0  0  0  0  0  0  0  0
    1.9336   -0.1897    0.4893 N   0  0  0  0  0  0  0  0  0  0  0  0
    2.9636   -0.5516   -0.3902 C   0  0  0  0  0  0  0  0  0  0  0  0
    2.7618   -0.9479   -1.6555 N   0  0  0  0  0  0  0  0  0  0  0  0
    3.7378   -1.2953   -2.5038 C   0  0  0  0  0  0  0  0  0  0  0  0
    5.0366   -1.2348   -2.0236 C   0  0  0  0  0  0  0  0  0  0  0  0
    6.3449   -1.6771   -3.0878 Cl  0  0  0  0  0  0  0  0  0  0  0  0
    5.3192   -0.8271   -0.7051 C   0  0  0  0  0  0  0  0  0  0  0  0
    6.6657   -0.7947   -0.3179 N   0  0  0  0  0  0  0  0  0  0  0  0
    7.1432   -0.4529    0.9602 C   0  0  0  0  0  0  0  0  0  0  0  0
    6.2791   -0.1750    2.0188 C   0  0  0  0  0  0  0  0  0  0  0  0
    6.7769    0.1007    3.2853 C   0  0  0  0  0  0  0  0  0  0  0  0
    8.1214    0.1099    3.5383 C   0  0  0  0  0  0  0  0  0  0  0  0
    8.9853   -0.1577    2.5147 C   0  0  0  0  0  0  0  0  0  0  0  0
    8.5151   -0.4407    1.2134 C   0  0  0  0  0  0  0  0  0  0  0  0
    9.6993   -0.6323   -0.0376 S   0  0  0  0  0  6  0  0  0  0  0  0
    9.3805   -1.7823   -0.9470 O   0  0  0  0  0  0  0  0  0  0  0  0
   11.0304   -0.9590    0.6595 O   0  0  0  0  0  0  0  0  0  0  0  0
    9.8955    0.8502   -0.9603 C   0  0  0  0  0  0  0  0  0  0  0  0
   10.9765    0.6256   -2.0204 C   0  0  0  0  0  0  0  0  0  0  0  0
    8.6483    1.3227   -1.6352 C   0  0  0  0  0  0  0  0  0  0  0  0
    4.2654   -0.5121    0.0257 N   0  0  0  0  0  0  0  0  0  0  0  0
    0.0461    1.5366    4.3294 H   0  0  0  0  0  0  0  0  0  0  0  0
   -1.1427    0.2680    3.9861 H   0  0  0  0  0  0  0  0  0  0  0  0
   -1.3112    1.8705    3.1824 H   0  0  0  0  0  0  0  0  0  0  0  0
   -2.2986    0.5873    1.8793 H   0  0  0  0  0  0  0  0  0  0  0  0
   -4.2400   -0.0281   -2.3562 H   0  0  0  0  0  0  0  0  0  0  0  0
   -3.6692   -1.6832   -1.7871 H   0  0  0  0  0  0  0  0  0  0  0  0
   -6.0503   -1.6459   -2.1021 H   0  0  0  0  0  0  0  0  0  0  0  0
   -5.6772   -1.7022   -0.2916 H   0  0  0  0  0  0  0  0  0  0  0  0
   -6.3869    0.6592   -2.1127 H   0  0  0  0  0  0  0  0  0  0  0  0
   -8.1757   -0.5973   -2.6473 H   0  0  0  0  0  0  0  0  0  0  0  0
   -8.6249   -1.7056   -1.2585 H   0  0  0  0  0  0  0  0  0  0  0  0
  -10.0084    0.8616   -2.0887 H   0  0  0  0  0  0  0  0  0  0  0  0
  -10.7236   -0.7703   -2.0365 H   0  0  0  0  0  0  0  0  0  0  0  0
  -10.7607    2.0778   -0.7064 H   0  0  0  0  0  0  0  0  0  0  0  0
   -9.3760    1.9566    0.4691 H   0  0  0  0  0  0  0  0  0  0  0  0
  -11.0982    1.6865    1.0013 H   0  0  0  0  0  0  0  0  0  0  0  0
   -9.6657   -1.7104    0.4969 H   0  0  0  0  0  0  0  0  0  0  0  0
   -9.8919   -0.4205    1.7841 H   0  0  0  0  0  0  0  0  0  0  0  0
   -7.9535    0.6790    1.2910 H   0  0  0  0  0  0  0  0  0  0  0  0
   -7.4313   -1.0615    1.0564 H   0  0  0  0  0  0  0  0  0  0  0  0
   -5.2103    1.9887   -0.7397 H   0  0  0  0  0  0  0  0  0  0  0  0
   -6.3236    1.6464    0.5816 H   0  0  0  0  0  0  0  0  0  0  0  0
   -4.1238    1.1903    1.2601 H   0  0  0  0  0  0  0  0  0  0  0  0
   -5.0950   -0.3532    1.2438 H   0  0  0  0  0  0  0  0  0  0  0  0
   -1.7834   -0.9305   -2.0329 H   0  0  0  0  0  0  0  0  0  0  0  0
    0.5923   -0.9620   -1.7498 H   0  0  0  0  0  0  0  0  0  0  0  0
    2.2622    0.1261    1.4604 H   0  0  0  0  0  0  0  0  0  0  0  0
    3.5231   -1.6101   -3.5212 H   0  0  0  0  0  0  0  0  0  0  0  0
    7.3765   -1.0694   -1.0232 H   0  0  0  0  0  0  0  0  0  0  0  0
    5.2195   -0.1702    1.8750 H   0  0  0  0  0  0  0  0  0  0  0  0
    6.0803    0.3077    4.0696 H   0  0  0  0  0  0  0  0  0  0  0  0
    8.5233    0.3242    4.5340 H   0  0  0  0  0  0  0  0  0  0  0  0
   10.0735   -0.1567    2.6892 H   0  0  0  0  0  0  0  0  0  0  0  0
   10.2714    1.6776   -0.2624 H   0  0  0  0  0  0  0  0  0  0  0  0
   10.4803    0.4643   -3.0042 H   0  0  0  0  0  0  0  0  0  0  0  0
   11.6658    1.4859   -2.0946 H   0  0  0  0  0  0  0  0  0  0  0  0
   11.5890   -0.2643   -1.7850 H   0  0  0  0  0  0  0  0  0  0  0  0
    8.2790    0.5774   -2.3614 H   0  0  0  0  0  0  0  0  0  0  0  0
    7.9040    1.5537   -0.8410 H   0  0  0  0  0  0  0  0  0  0  0  0
    8.8617    2.3024   -2.1850 H   0  0  0  0  0  0  0  0  0  0  0  0
  1  2  1  0
  2  3  1  0
  3  4  2  0
  4  5  1  0
  5  6  1  0
  6  7  1  0
  7  8  1  0
  8  9  1  0
  9 10  1  0
 10 11  1  0
 11 12  1  0
 12 13  1  0
 13 14  1  0
 13 15  1  0
 15 16  1  0
  9 17  1  0
 17 18  1  0
  5 19  2  0
 19 20  1  0
 20 21  2  0
 21 22  1  0
 22 23  1  0
 23 24  2  0
 24 25  1  0
 25 26  2  0
 26 27  1  0
 26 28  1  0
 28 29  1  0
 29 30  1  0
 30 31  2  0
 31 32  1  0
 32 33  2  0
 33 34  1  0
 34 35  2  0
 35 36  1  0
 36 37  2  0
 36 38  2  0
 36 39  1  0
 39 40  1  0
 39 41  1  0
 28 42  2  0
 21  3  1  0
 42 23  1  0
 18  6  1  0
 35 30  1  0
 16 10  1  0
  1 43  1  0
  1 44  1  0
  1 45  1  0
  4 46  1  0
  7 47  1  0
  7 48  1  0
  8 49  1  0
  8 50  1  0
  9 51  1  0
 11 52  1  0
 11 53  1  0
 12 54  1  0
 12 55  1  0
 14 56  1  0
 14 57  1  0
 14 58  1  0
 15 59  1  0
 15 60  1  0
 16 61  1  0
 16 62  1  0
 17 63  1  0
 17 64  1  0
 18 65  1  0
 18 66  1  0
 19 67  1  0
 20 68  1  0
 22 69  1  0
 25 70  1  0
 29 71  1  0
 31 72  1  0
 32 73  1  0
 33 74  1  0
 34 75  1  0
 39 76  1  0
 40 77  1  0
 40 78  1  0
 40 79  1  0
 41 80  1  0
 41 81  1  0
 41 82  1  0
M  END
$$$$
