@<TRIPOS>MOLECULE
*****
 44 46 0 0 0
SMALL
GASTEIGER

@<TRIPOS>ATOM
      1 C          -1.2029   -3.6854    1.9747 C.3     1  UNL1        0.0329
      2 N          -0.7981   -2.4279    1.3113 N.ar    1  UNL1       -0.2435
      3 N           0.4322   -2.1679    1.0039 N.ar    1  UNL1       -0.1620
      4 C           0.8868   -1.2245    0.4841 C.ar    1  UNL1        0.1319
      5 C           2.1256   -0.5730   -0.0123 C.ar    1  UNL1        0.0107
      6 C           2.1400    0.6604   -0.6058 C.ar    1  UNL1       -0.0512
      7 C           3.3511    1.1960   -1.0426 C.ar    1  UNL1       -0.0472
      8 C           4.5351    0.5143   -0.8917 C.ar    1  UNL1        0.0571
      9 C           5.8093    1.0574   -1.3414 C.2     1  UNL1        0.2433
     10 N           5.9146    2.3337   -1.9690 N.am    1  UNL1       -0.3253
     11 O           6.8790    0.4174   -1.1934 O.2     1  UNL1       -0.2704
     12 C           4.5226   -0.7269   -0.2947 C.ar    1  UNL1        0.0374
     13 N           5.7335   -1.4725   -0.1172 N.pl3   1  UNL1       -0.3574
     14 C           3.3250   -1.2365    0.1275 C.ar    1  UNL1       -0.0306
     15 S          -0.7398   -0.2576    0.2622 S.2     1  UNL1       -0.0286
     16 C          -1.6721   -1.4941    0.9935 C.ar    1  UNL1        0.1869
     17 N          -2.9874   -1.3231    1.1070 N.2     1  UNL1       -0.2564
     18 C          -3.5869   -0.1502    0.6337 C.3     1  UNL1        0.0536
     19 C          -3.1579    1.1469    1.2198 C.3     1  UNL1       -0.0305
     20 C          -3.1906    2.2003    0.1049 C.3     1  UNL1       -0.0511
     21 C          -4.5353    2.1154   -0.5803 C.3     1  UNL1       -0.0529
     22 C          -4.7449    0.7968   -1.2827 C.3     1  UNL1       -0.0511
     23 C          -3.6057   -0.1227   -0.9031 C.3     1  UNL1       -0.0305
     24 H          -1.1991   -3.4733    3.0556 H       1  UNL1        0.0473
     25 H          -0.5750   -4.5285    1.6960 H       1  UNL1        0.0473
     26 H          -2.2486   -3.9537    1.6446 H       1  UNL1        0.0473
     27 H           1.2115    1.1869   -0.7202 H       1  UNL1        0.0624
     28 H           3.3664    2.1580   -1.5060 H       1  UNL1        0.0626
     29 H           5.4767    3.1607   -1.5200 H       1  UNL1        0.1453
     30 H           6.4333    2.4256   -2.8785 H       1  UNL1        0.1453
     31 H           6.0919   -1.5436    0.8546 H       1  UNL1        0.1423
     32 H           6.1781   -1.8933   -0.9546 H       1  UNL1        0.1423
     33 H           3.2765   -2.2247    0.6085 H       1  UNL1        0.0643
     34 H          -4.6932   -0.2619    0.8815 H       1  UNL1        0.0545
     35 H          -3.9230    1.5360    1.9604 H       1  UNL1        0.0286
     36 H          -2.2182    1.1490    1.7708 H       1  UNL1        0.0286
     37 H          -2.4178    2.0556   -0.6422 H       1  UNL1        0.0266
     38 H          -3.1043    3.1697    0.5992 H       1  UNL1        0.0266
     39 H          -4.6462    2.9134   -1.3313 H       1  UNL1        0.0265
     40 H          -5.3080    2.3032    0.1969 H       1  UNL1        0.0265
     41 H          -4.8627    0.9085   -2.3780 H       1  UNL1        0.0266
     42 H          -5.6727    0.3401   -0.8507 H       1  UNL1        0.0266
     43 H          -2.6563    0.1569   -1.3458 H       1  UNL1        0.0286
     44 H          -3.9423   -1.1608   -1.1923 H       1  UNL1        0.0286
@<TRIPOS>BOND
     1     1     2    1
     2     2     3   ar
     3     3     4   ar
     4     4     5    1
     5     5     6   ar
     6     6     7   ar
     7     7     8   ar
     8     8     9    1
     9     9    10   am
    10     9    11    2
    11     8    12   ar
    12    12    13    1
    13    12    14   ar
    14     4    15   ar
    15    15    16   ar
    16    16    17    2
    17    17    18    1
    18    18    19    1
    19    19    20    1
    20    20    21    1
    21    21    22    1
    22    22    23    1
    23    16     2   ar
    24    23    18    1
    25    14     5   ar
    26     1    24    1
    27     1    25    1
    28     1    26    1
    29     6    27    1
    30     7    28    1
    31    10    29    1
    32    10    30    1
    33    13    31    1
    34    13    32    1
    35    14    33    1
    36    18    34    1
    37    19    35    1
    38    19    36    1
    39    20    37    1
    40    20    38    1
    41    21    39    1
    42    21    40    1
    43    22    41    1
    44    22    42    1
    45    23    43    1
    46    23    44    1
