@<TRIPOS>MOLECULE
*****
 74 78 0 0 0
SMALL
GASTEIGER

@<TRIPOS>ATOM
      1 C          -6.1547    2.0734    2.1803 C.3     1  UNL1        0.0365
      2 O          -5.5985    1.3377    1.1376 O.3     1  UNL1       -0.3809
      3 C          -5.4491   -0.0030    1.4827 C.3     1  UNL1        0.0714
      4 C          -4.8363   -0.7922    0.3236 C.3     1  UNL1        0.1112
      5 C          -3.4483   -0.4016    0.1203 C.2     1  UNL1        0.2367
      6 O          -2.9632   -0.0908   -0.9840 O.2     1  UNL1       -0.2737
      7 N          -2.5359   -0.3556    1.2357 N.am    1  UNL1       -0.2824
      8 C          -1.1743    0.0274    1.0398 C.ar    1  UNL1        0.0576
      9 C          -0.7643    1.3312    1.1287 C.ar    1  UNL1       -0.0384
     10 C           0.5559    1.6441    0.9307 C.ar    1  UNL1       -0.0593
     11 C           1.4569    0.6201    0.6414 C.ar    1  UNL1       -0.0518
     12 C           1.0825   -0.7048    0.5434 C.ar    1  UNL1        0.0107
     13 C           1.7663   -1.8966    0.2690 C.ar    1  UNL1        0.0258
     14 C           3.2026   -1.9364    0.0328 C.ar    1  UNL1        0.0809
     15 N           3.8931   -0.7826    0.1796 N.ar    1  UNL1       -0.2139
     16 C           5.2033   -0.6483   -0.0079 C.ar    1  UNL1        0.2202
     17 N           5.7872    0.6186    0.1827 N.pl3   1  UNL1       -0.2782
     18 C           7.1536    0.8735    0.0174 C.ar    1  UNL1        0.1152
     19 C           8.1505    0.0068   -0.3405 C.ar    1  UNL1        0.0503
     20 N           9.3011    0.7301   -0.3647 N.ar    1  UNL1       -0.2692
     21 C          10.5817    0.1711   -0.6994 C.3     1  UNL1        0.0304
     22 N           9.0764    1.9731   -0.0476 N.ar    1  UNL1       -0.1317
     23 C           7.7626    2.1091    0.1970 C.ar    1  UNL1        0.2552
     24 O           7.0795    3.2719    0.5706 O.3     1  UNL1       -0.4774
     25 C           7.7589    4.4936    0.7357 C.3     1  UNL1        0.0805
     26 N           5.8801   -1.7505   -0.3704 N.ar    1  UNL1       -0.2224
     27 C           5.3124   -2.9339   -0.5449 C.ar    1  UNL1        0.0361
     28 C           3.9196   -3.0425   -0.3385 C.ar    1  UNL1       -0.0062
     29 C           3.2458   -4.3326   -0.5488 C.3     1  UNL1       -0.0362
     30 C           0.8121   -2.8607    0.3189 C.ar    1  UNL1        0.0120
     31 N          -0.4005   -2.3051    0.6074 N.ar    1  UNL1       -0.3586
     32 C          -0.2442   -0.9861    0.7465 C.ar    1  UNL1        0.0686
     33 N          -5.6012   -0.7586   -0.8395 N.3     1  UNL1       -0.2873
     34 C          -6.9102   -1.3121   -0.7843 C.3     1  UNL1        0.0125
     35 C          -7.9294   -0.2281   -0.8806 C.3     1  UNL1        0.0114
     36 N          -7.6977    0.6713   -1.9860 N.3     1  UNL1       -0.3029
     37 C          -7.7285    2.0542   -1.6368 C.3     1  UNL1       -0.0127
     38 C          -6.5390    0.3010   -2.7653 C.3     1  UNL1        0.0114
     39 C          -5.3078    0.1012   -1.8982 C.3     1  UNL1        0.0125
     40 H          -6.2450    3.1253    1.8402 H       1  UNL1        0.0523
     41 H          -5.4947    1.9850    3.0592 H       1  UNL1        0.0523
     42 H          -7.1693    1.6252    2.3681 H       1  UNL1        0.0523
     43 H          -4.8119   -0.1223    2.3894 H       1  UNL1        0.0580
     44 H          -6.4321   -0.4351    1.7516 H       1  UNL1        0.0580
     45 H          -4.8449   -1.8651    0.7088 H       1  UNL1        0.0582
     46 H          -2.8388   -0.5973    2.2040 H       1  UNL1        0.1549
     47 H          -1.4837    2.1079    1.3545 H       1  UNL1        0.0637
     48 H           0.8612    2.6707    1.0039 H       1  UNL1        0.0618
     49 H           2.4689    0.9105    0.4939 H       1  UNL1        0.0624
     50 H           5.1429    1.4188    0.4680 H       1  UNL1        0.1552
     51 H           8.0629   -1.0591   -0.5668 H       1  UNL1        0.0846
     52 H          10.9487    0.5052   -1.6772 H       1  UNL1        0.0473
     53 H          11.2861    0.4304    0.1306 H       1  UNL1        0.0473
     54 H          10.5454   -0.9539   -0.7373 H       1  UNL1        0.0473
     55 H           8.7899    4.2708    1.1101 H       1  UNL1        0.0660
     56 H           7.9160    4.9505   -0.2796 H       1  UNL1        0.0660
     57 H           7.2568    5.1868    1.4134 H       1  UNL1        0.0660
     58 H           5.8266   -3.8299   -0.8330 H       1  UNL1        0.0834
     59 H           2.4689   -4.3363   -1.3231 H       1  UNL1        0.0279
     60 H           2.9407   -4.8351    0.3839 H       1  UNL1        0.0279
     61 H           4.0439   -5.0246   -1.0026 H       1  UNL1        0.0279
     62 H           0.9375   -3.9191    0.1732 H       1  UNL1        0.0814
     63 H          -1.3092   -2.8195    0.7056 H       1  UNL1        0.1654
     64 H          -6.9983   -1.9449    0.0954 H       1  UNL1        0.0439
     65 H          -7.0401   -1.9820   -1.6775 H       1  UNL1        0.0439
     66 H          -8.9562   -0.6515   -0.9897 H       1  UNL1        0.0439
     67 H          -7.9260    0.3511    0.0630 H       1  UNL1        0.0439
     68 H          -8.2826    2.2918   -0.7302 H       1  UNL1        0.0391
     69 H          -6.6575    2.4104   -1.5983 H       1  UNL1        0.0391
     70 H          -8.1783    2.6326   -2.4961 H       1  UNL1        0.0391
     71 H          -6.7590   -0.5775   -3.3829 H       1  UNL1        0.0439
     72 H          -6.3139    1.1460   -3.4481 H       1  UNL1        0.0439
     73 H          -4.8869    1.0463   -1.5523 H       1  UNL1        0.0439
     74 H          -4.5669   -0.3992   -2.5912 H       1  UNL1        0.0439
@<TRIPOS>BOND
     1     1     2    1
     2     2     3    1
     3     3     4    1
     4     4     5    1
     5     5     6    2
     6     5     7   am
     7     7     8    1
     8     8     9   ar
     9     9    10   ar
    10    10    11   ar
    11    11    12   ar
    12    12    13   ar
    13    13    14    1
    14    14    15   ar
    15    15    16   ar
    16    16    17    1
    17    17    18    1
    18    18    19   ar
    19    19    20   ar
    20    20    21    1
    21    20    22   ar
    22    22    23   ar
    23    23    24    1
    24    24    25    1
    25    16    26   ar
    26    26    27   ar
    27    27    28   ar
    28    28    29    1
    29    13    30   ar
    30    30    31   ar
    31    31    32   ar
    32     4    33    1
    33    33    34    1
    34    34    35    1
    35    35    36    1
    36    36    37    1
    37    36    38    1
    38    38    39    1
    39    32     8   ar
    40    39    33    1
    41    32    12   ar
    42    28    14   ar
    43    23    18   ar
    44     1    40    1
    45     1    41    1
    46     1    42    1
    47     3    43    1
    48     3    44    1
    49     4    45    1
    50     7    46    1
    51     9    47    1
    52    10    48    1
    53    11    49    1
    54    17    50    1
    55    19    51    1
    56    21    52    1
    57    21    53    1
    58    21    54    1
    59    25    55    1
    60    25    56    1
    61    25    57    1
    62    27    58    1
    63    29    59    1
    64    29    60    1
    65    29    61    1
    66    30    62    1
    67    31    63    1
    68    34    64    1
    69    34    65    1
    70    35    66    1
    71    35    67    1
    72    37    68    1
    73    37    69    1
    74    37    70    1
    75    38    71    1
    76    38    72    1
    77    39    73    1
    78    39    74    1
