
     RDKit          3D

 29 31  0  0  0  0  0  0  0  0999 V2000
    3.1190   -1.4557    0.8303 C   0  0  0  0  0  0  0  0  0  0  0  0
    2.8044   -0.2797    0.0761 N   0  0  0  0  0  0  0  0  0  0  0  0
    3.6474    0.5973   -0.4777 C   0  0  0  0  0  0  0  0  0  0  0  0
    5.0538    0.5910   -0.4639 N   0  0  0  0  0  0  0  0  0  0  0  0
    3.0592    1.6162   -1.1334 N   0  0  0  0  0  0  0  0  0  0  0  0
    1.7180    1.4152   -1.0156 C   0  0  0  0  0  0  0  0  0  0  0  0
    0.6168    2.0539   -1.4323 N   0  0  0  0  0  0  0  0  0  0  0  0
   -0.5819    1.5652   -1.1294 C   0  0  0  0  0  0  0  0  0  0  0  0
   -0.7400    0.4103   -0.3928 C   0  0  0  0  0  0  0  0  0  0  0  0
    0.3538   -0.2788    0.0560 C   0  0  0  0  0  0  0  0  0  0  0  0
    1.6181    0.2376   -0.2640 C   0  0  0  0  0  0  0  0  0  0  0  0
   -2.1146    0.0006   -0.1413 C   0  0  0  0  0  0  0  0  0  0  0  0
   -3.1024    0.9686   -0.0079 C   0  0  0  0  0  0  0  0  0  0  0  0
   -4.4379    0.6896    0.2299 C   0  0  0  0  0  0  0  0  0  0  0  0
   -4.8071   -0.6182    0.3403 C   0  0  0  0  0  0  0  0  0  0  0  0
   -3.8750   -1.6223    0.2178 C   0  0  0  0  0  0  0  0  0  0  0  0
   -2.5385   -1.3066   -0.0216 C   0  0  0  0  0  0  0  0  0  0  0  0
    2.7277   -2.3880    0.3684 H   0  0  0  0  0  0  0  0  0  0  0  0
    4.2257   -1.5949    0.8855 H   0  0  0  0  0  0  0  0  0  0  0  0
    2.7873   -1.3760    1.9029 H   0  0  0  0  0  0  0  0  0  0  0  0
    6.0542    0.5630   -0.4799 H   0  0  0  0  0  0  0  0  0  0  0  0
    5.4405    1.2504    0.2640 H   0  0  0  0  0  0  0  0  0  0  0  0
   -1.4057    2.1744   -1.5256 H   0  0  0  0  0  0  0  0  0  0  0  0
    0.1905   -1.1781    0.6295 H   0  0  0  0  0  0  0  0  0  0  0  0
   -2.8485    2.0167   -0.0892 H   0  0  0  0  0  0  0  0  0  0  0  0
   -5.1586    1.5152    0.3227 H   0  0  0  0  0  0  0  0  0  0  0  0
   -5.8525   -0.8299    0.5260 H   0  0  0  0  0  0  0  0  0  0  0  0
   -4.1637   -2.6617    0.3046 H   0  0  0  0  0  0  0  0  0  0  0  0
   -1.7901   -2.0754   -0.1213 H   0  0  0  0  0  0  0  0  0  0  0  0
  1  2  1  0
  2  3  1  0
  3  4  1  0
  3  5  2  0
  5  6  1  0
  6  7  2  0
  7  8  1  0
  8  9  2  0
  9 10  1  0
 10 11  2  0
  9 12  1  0
 12 13  2  0
 13 14  1  0
 14 15  2  0
 15 16  1  0
 16 17  2  0
 11  2  1  0
 17 12  1  0
 11  6  1  0
  1 18  1  0
  1 19  1  0
  1 20  1  0
  4 21  1  0
  4 22  1  0
  8 23  1  0
 10 24  1  0
 13 25  1  0
 14 26  1  0
 15 27  1  0
 16 28  1  0
 17 29  1  0
M  END
$$$$
