@<TRIPOS>MOLECULE
*****
 49 53 0 0 0
SMALL
GASTEIGER

@<TRIPOS>ATOM
      1 O          -3.6082   -1.5695    3.1546 O.2     1  UNL1       -0.2490
      2 C          -4.3161   -1.2258    2.1672 C.2     1  UNL1        0.3247
      3 O          -5.5540   -0.6679    2.4567 O.3     1  UNL1       -0.4794
      4 C          -3.8291   -1.4179    0.7656 C.3     1  UNL1        0.1204
      5 N          -3.0992   -0.2637    0.2949 N.ar    1  UNL1       -0.3327
      6 C          -1.7688   -0.0228    0.3985 C.ar    1  UNL1        0.0266
      7 C          -1.4779    1.1890   -0.1771 C.ar    1  UNL1       -0.0016
      8 C          -2.6886    1.6762   -0.6361 C.ar    1  UNL1        0.0048
      9 C          -3.0147    2.8316   -1.2883 C.ar    1  UNL1       -0.0523
     10 C          -4.3320    3.1012   -1.6532 C.ar    1  UNL1       -0.0611
     11 C          -5.3445    2.2076   -1.3654 C.ar    1  UNL1       -0.0598
     12 C          -4.9948    1.0392   -0.7024 C.ar    1  UNL1       -0.0376
     13 C          -3.6841    0.7675   -0.3376 C.ar    1  UNL1        0.0501
     14 C          -0.1087    1.7570   -0.2357 C.3     1  UNL1        0.0423
     15 N           0.8186    0.6580   -0.0544 N.am    1  UNL1       -0.2928
     16 C           1.8788    0.4859   -0.9625 C.2     1  UNL1        0.2475
     17 O           2.0252    1.2765   -1.9256 O.2     1  UNL1       -0.2700
     18 C           2.7789   -0.6357   -0.7302 C.ar    1  UNL1        0.0446
     19 C           2.5160   -1.8643   -1.2950 C.ar    1  UNL1       -0.0490
     20 C           3.4141   -2.9067   -1.0386 C.ar    1  UNL1       -0.0605
     21 C           4.5293   -2.7257   -0.2491 C.ar    1  UNL1       -0.0540
     22 C           4.7860   -1.4849    0.3155 C.ar    1  UNL1       -0.0172
     23 C           5.8866   -1.2507    1.1123 C.ar    1  UNL1       -0.0540
     24 C           6.1010   -0.0061    1.6504 C.ar    1  UNL1       -0.0612
     25 C           5.2160    0.9889    1.3876 C.ar    1  UNL1       -0.0611
     26 C           4.1055    0.7992    0.5984 C.ar    1  UNL1       -0.0533
     27 C           3.8958   -0.4483    0.0625 C.ar    1  UNL1       -0.0058
     28 C           0.5850   -0.2124    1.0800 C.3     1  UNL1        0.0207
     29 C          -0.7447   -0.9018    1.0277 C.3     1  UNL1        0.0039
     30 H          -6.0167   -0.9499    3.3178 H       1  UNL1        0.2951
     31 H          -4.6632   -1.6845    0.0826 H       1  UNL1        0.0607
     32 H          -3.1210   -2.2754    0.7420 H       1  UNL1        0.0607
     33 H          -2.2134    3.5292   -1.5111 H       1  UNL1        0.0624
     34 H          -4.5566    4.0117   -2.1616 H       1  UNL1        0.0618
     35 H          -6.3738    2.3543   -1.6175 H       1  UNL1        0.0618
     36 H          -5.7423    0.3150   -0.4567 H       1  UNL1        0.0638
     37 H           0.0258    2.4895    0.5964 H       1  UNL1        0.0515
     38 H           0.0339    2.2706   -1.2059 H       1  UNL1        0.0515
     39 H           1.6409   -2.0046   -1.9139 H       1  UNL1        0.0625
     40 H           3.1915   -3.8487   -1.4855 H       1  UNL1        0.0618
     41 H           5.2311   -3.5253   -0.0441 H       1  UNL1        0.0624
     42 H           6.5627   -2.0684    1.2948 H       1  UNL1        0.0624
     43 H           6.9867    0.1595    2.2844 H       1  UNL1        0.0618
     44 H           5.4078    1.9631    1.8245 H       1  UNL1        0.0618
     45 H           3.4074    1.6094    0.3991 H       1  UNL1        0.0624
     46 H           0.6236    0.4236    1.9934 H       1  UNL1        0.0468
     47 H           1.4050   -0.9591    1.1948 H       1  UNL1        0.0468
     48 H          -0.7029   -1.8521    0.4393 H       1  UNL1        0.0343
     49 H          -1.0979   -1.1312    2.0577 H       1  UNL1        0.0343
@<TRIPOS>BOND
     1     1     2    2
     2     2     3    1
     3     2     4    1
     4     4     5    1
     5     5     6   ar
     6     6     7   ar
     7     7     8   ar
     8     8     9   ar
     9     9    10   ar
    10    10    11   ar
    11    11    12   ar
    12    12    13   ar
    13     7    14    1
    14    14    15    1
    15    15    16   am
    16    16    17    2
    17    16    18    1
    18    18    19   ar
    19    19    20   ar
    20    20    21   ar
    21    21    22   ar
    22    22    23   ar
    23    23    24   ar
    24    24    25   ar
    25    25    26   ar
    26    26    27   ar
    27    15    28    1
    28    28    29    1
    29    13     5   ar
    30    27    18   ar
    31    29     6    1
    32    13     8   ar
    33    27    22   ar
    34     3    30    1
    35     4    31    1
    36     4    32    1
    37     9    33    1
    38    10    34    1
    39    11    35    1
    40    12    36    1
    41    14    37    1
    42    14    38    1
    43    19    39    1
    44    20    40    1
    45    21    41    1
    46    23    42    1
    47    24    43    1
    48    25    44    1
    49    26    45    1
    50    28    46    1
    51    28    47    1
    52    29    48    1
    53    29    49    1
