@<TRIPOS>MOLECULE
*****
 71 74 0 0 0
SMALL
GASTEIGER

@<TRIPOS>ATOM
      1 C          -7.2571    1.5858    1.7810 C.3     1  UNL1        0.0370
      2 O          -6.8746    0.7932    0.6995 O.3     1  UNL1       -0.3760
      3 C          -5.9631    1.4639   -0.1248 C.3     1  UNL1        0.0969
      4 C          -6.5471    1.5274   -1.5207 C.3     1  UNL1        0.0753
      5 O          -6.9553    0.2500   -1.8978 O.3     1  UNL1       -0.3771
      6 C          -5.9272   -0.6574   -1.9290 C.3     1  UNL1        0.0493
      7 C          -5.2060   -0.7837   -0.5797 C.3     1  UNL1       -0.0115
      8 C          -4.7253    0.5905   -0.2190 C.3     1  UNL1        0.0383
      9 N          -3.9305    0.6403    0.9720 N.3     1  UNL1       -0.3079
     10 C          -2.7485   -0.1863    0.8388 C.3     1  UNL1        0.0089
     11 C          -1.8955   -0.1323    2.0906 C.3     1  UNL1       -0.0366
     12 C          -0.5441   -0.6155    1.5841 C.3     1  UNL1       -0.0374
     13 C          -0.4945   -0.3962    0.1118 C.3     1  UNL1        0.0509
     14 C           0.6245    0.5474   -0.1827 C.2     1  UNL1        0.2221
     15 O           0.2893    1.6532   -0.7473 O.2     1  UNL1       -0.2750
     16 N           1.9813    0.3472    0.0930 N.am    1  UNL1       -0.2980
     17 C           2.5870   -0.8039    0.6995 C.3     1  UNL1        0.0305
     18 C           3.8977   -0.4188    1.4145 C.3     1  UNL1        0.0294
     19 N           4.8223    0.1288    0.4214 N.pl3   1  UNL1       -0.3108
     20 C           6.1949   -0.0231    0.6318 C.ar    1  UNL1        0.1444
     21 C           7.1015    0.4022   -0.3073 C.ar    1  UNL1       -0.0068
     22 C           8.4622    0.2472   -0.0825 C.ar    1  UNL1        0.0778
     23 C           9.4384    0.7140   -1.1118 C.3     1  UNL1        0.4190
     24 F          10.2590   -0.3085   -1.5054 F       1  UNL1       -0.1658
     25 F          10.2052    1.7327   -0.5589 F       1  UNL1       -0.1658
     26 F           8.7770    1.2101   -2.1998 F       1  UNL1       -0.1658
     27 C           8.8878   -0.3282    1.0733 C.ar    1  UNL1        0.0617
     28 N           7.9568   -0.7295    1.9646 N.ar    1  UNL1       -0.1554
     29 N           6.6692   -0.5850    1.7561 N.ar    1  UNL1       -0.1342
     30 C           4.1997    0.7875   -0.7029 C.3     1  UNL1        0.0294
     31 C           2.9039    1.4374   -0.2658 C.3     1  UNL1        0.0305
     32 C          -0.2804   -1.6453   -0.6978 C.3     1  UNL1       -0.0327
     33 C          -1.3516   -2.6907   -0.5200 C.3     1  UNL1       -0.0617
     34 C          -0.1708   -1.3528   -2.1777 C.3     1  UNL1       -0.0617
     35 C          -1.8092    0.2746   -0.2081 C.3     1  UNL1       -0.0233
     36 H          -7.7421    2.5291    1.4467 H       1  UNL1        0.0524
     37 H          -6.3981    1.8415    2.4279 H       1  UNL1        0.0524
     38 H          -8.0217    1.0228    2.3470 H       1  UNL1        0.0524
     39 H          -5.7406    2.4740    0.2536 H       1  UNL1        0.0634
     40 H          -5.6961    1.8036   -2.2033 H       1  UNL1        0.0586
     41 H          -7.4010    2.2003   -1.5992 H       1  UNL1        0.0586
     42 H          -6.3619   -1.6527   -2.1545 H       1  UNL1        0.0560
     43 H          -5.1841   -0.4567   -2.7297 H       1  UNL1        0.0560
     44 H          -5.9412   -1.1887    0.1491 H       1  UNL1        0.0303
     45 H          -4.4264   -1.5307   -0.7414 H       1  UNL1        0.0303
     46 H          -4.1020    0.9513   -1.0739 H       1  UNL1        0.0487
     47 H          -3.7554    1.5936    1.2921 H       1  UNL1        0.1225
     48 H          -3.1005   -1.2209    0.7611 H       1  UNL1        0.0461
     49 H          -1.8718    0.9114    2.4144 H       1  UNL1        0.0281
     50 H          -2.2651   -0.8269    2.8721 H       1  UNL1        0.0281
     51 H          -0.3317   -1.6472    1.9116 H       1  UNL1        0.0276
     52 H           0.1825    0.0415    2.1505 H       1  UNL1        0.0276
     53 H           1.9908   -1.3194    1.4619 H       1  UNL1        0.0480
     54 H           2.9198   -1.5596   -0.0461 H       1  UNL1        0.0480
     55 H           3.6333    0.2970    2.1901 H       1  UNL1        0.0480
     56 H           4.2849   -1.3505    1.8683 H       1  UNL1        0.0480
     57 H           6.7839    0.8601   -1.2333 H       1  UNL1        0.0658
     58 H           9.9499   -0.4419    1.2340 H       1  UNL1        0.0853
     59 H           3.9146   -0.0160   -1.4253 H       1  UNL1        0.0480
     60 H           4.8923    1.5145   -1.1566 H       1  UNL1        0.0480
     61 H           3.0771    2.1060    0.6007 H       1  UNL1        0.0480
     62 H           2.4985    1.9932   -1.1460 H       1  UNL1        0.0480
     63 H           0.6521   -2.1255   -0.3427 H       1  UNL1        0.0305
     64 H          -0.9163   -3.6307   -0.9807 H       1  UNL1        0.0233
     65 H          -2.2646   -2.5042   -1.0773 H       1  UNL1        0.0233
     66 H          -1.4814   -2.9652    0.5477 H       1  UNL1        0.0233
     67 H          -0.3101   -0.2657   -2.3456 H       1  UNL1        0.0233
     68 H          -1.0032   -1.8447   -2.7610 H       1  UNL1        0.0233
     69 H           0.7610   -1.7424   -2.6125 H       1  UNL1        0.0233
     70 H          -1.6638    1.3662   -0.0942 H       1  UNL1        0.0290
     71 H          -2.1382    0.1071   -1.2464 H       1  UNL1        0.0290
@<TRIPOS>BOND
     1     1     2    1
     2     2     3    1
     3     3     4    1
     4     4     5    1
     5     5     6    1
     6     6     7    1
     7     7     8    1
     8     8     9    1
     9     9    10    1
    10    10    11    1
    11    11    12    1
    12    12    13    1
    13    13    14    1
    14    14    15    2
    15    14    16   am
    16    16    17    1
    17    17    18    1
    18    18    19    1
    19    19    20    1
    20    20    21   ar
    21    21    22   ar
    22    22    23    1
    23    23    24    1
    24    23    25    1
    25    23    26    1
    26    22    27   ar
    27    27    28   ar
    28    28    29   ar
    29    19    30    1
    30    30    31    1
    31    13    32    1
    32    32    33    1
    33    32    34    1
    34    13    35    1
    35     8     3    1
    36    35    10    1
    37    31    16    1
    38    29    20   ar
    39     1    36    1
    40     1    37    1
    41     1    38    1
    42     3    39    1
    43     4    40    1
    44     4    41    1
    45     6    42    1
    46     6    43    1
    47     7    44    1
    48     7    45    1
    49     8    46    1
    50     9    47    1
    51    10    48    1
    52    11    49    1
    53    11    50    1
    54    12    51    1
    55    12    52    1
    56    17    53    1
    57    17    54    1
    58    18    55    1
    59    18    56    1
    60    21    57    1
    61    27    58    1
    62    30    59    1
    63    30    60    1
    64    31    61    1
    65    31    62    1
    66    32    63    1
    67    33    64    1
    68    33    65    1
    69    33    66    1
    70    34    67    1
    71    34    68    1
    72    34    69    1
    73    35    70    1
    74    35    71    1
