
     RDKit          3D

 71 74  0  0  0  0  0  0  0  0999 V2000
   -7.2571    1.5858    1.7810 C   0  0  0  0  0  0  0  0  0  0  0  0
   -6.8746    0.7932    0.6995 O   0  0  0  0  0  0  0  0  0  0  0  0
   -5.9631    1.4639   -0.1248 C   0  0  2  0  0  0  0  0  0  0  0  0
   -6.5471    1.5274   -1.5207 C   0  0  0  0  0  0  0  0  0  0  0  0
   -6.9553    0.2500   -1.8978 O   0  0  0  0  0  0  0  0  0  0  0  0
   -5.9272   -0.6574   -1.9290 C   0  0  0  0  0  0  0  0  0  0  0  0
   -5.2060   -0.7837   -0.5797 C   0  0  0  0  0  0  0  0  0  0  0  0
   -4.7253    0.5905   -0.2190 C   0  0  2  0  0  0  0  0  0  0  0  0
   -3.9305    0.6403    0.9720 N   0  0  0  0  0  0  0  0  0  0  0  0
   -2.7485   -0.1863    0.8388 C   0  0  2  0  0  0  0  0  0  0  0  0
   -1.8955   -0.1323    2.0906 C   0  0  0  0  0  0  0  0  0  0  0  0
   -0.5441   -0.6155    1.5841 C   0  0  0  0  0  0  0  0  0  0  0  0
   -0.4945   -0.3962    0.1118 C   0  0  1  0  0  0  0  0  0  0  0  0
    0.6245    0.5474   -0.1827 C   0  0  0  0  0  0  0  0  0  0  0  0
    0.2893    1.6532   -0.7473 O   0  0  0  0  0  0  0  0  0  0  0  0
    1.9813    0.3472    0.0930 N   0  0  0  0  0  0  0  0  0  0  0  0
    2.5870   -0.8039    0.6995 C   0  0  0  0  0  0  0  0  0  0  0  0
    3.8977   -0.4188    1.4145 C   0  0  0  0  0  0  0  0  0  0  0  0
    4.8223    0.1288    0.4214 N   0  0  0  0  0  0  0  0  0  0  0  0
    6.1949   -0.0231    0.6318 C   0  0  0  0  0  0  0  0  0  0  0  0
    7.1015    0.4022   -0.3073 C   0  0  0  0  0  0  0  0  0  0  0  0
    8.4622    0.2472   -0.0825 C   0  0  0  0  0  0  0  0  0  0  0  0
    9.4384    0.7140   -1.1118 C   0  0  0  0  0  0  0  0  0  0  0  0
   10.2590   -0.3085   -1.5054 F   0  0  0  0  0  0  0  0  0  0  0  0
   10.2052    1.7327   -0.5589 F   0  0  0  0  0  0  0  0  0  0  0  0
    8.7770    1.2101   -2.1998 F   0  0  0  0  0  0  0  0  0  0  0  0
    8.8878   -0.3282    1.0733 C   0  0  0  0  0  0  0  0  0  0  0  0
    7.9568   -0.7295    1.9646 N   0  0  0  0  0  0  0  0  0  0  0  0
    6.6692   -0.5850    1.7561 N   0  0  0  0  0  0  0  0  0  0  0  0
    4.1997    0.7875   -0.7029 C   0  0  0  0  0  0  0  0  0  0  0  0
    2.9039    1.4374   -0.2658 C   0  0  0  0  0  0  0  0  0  0  0  0
   -0.2804   -1.6453   -0.6978 C   0  0  0  0  0  0  0  0  0  0  0  0
   -1.3516   -2.6907   -0.5200 C   0  0  0  0  0  0  0  0  0  0  0  0
   -0.1708   -1.3528   -2.1777 C   0  0  0  0  0  0  0  0  0  0  0  0
   -1.8092    0.2746   -0.2081 C   0  0  0  0  0  0  0  0  0  0  0  0
   -7.7421    2.5291    1.4467 H   0  0  0  0  0  0  0  0  0  0  0  0
   -6.3981    1.8415    2.4279 H   0  0  0  0  0  0  0  0  0  0  0  0
   -8.0217    1.0228    2.3470 H   0  0  0  0  0  0  0  0  0  0  0  0
   -5.7406    2.4740    0.2536 H   0  0  0  0  0  0  0  0  0  0  0  0
   -5.6961    1.8036   -2.2033 H   0  0  0  0  0  0  0  0  0  0  0  0
   -7.4010    2.2003   -1.5992 H   0  0  0  0  0  0  0  0  0  0  0  0
   -6.3619   -1.6527   -2.1545 H   0  0  0  0  0  0  0  0  0  0  0  0
   -5.1841   -0.4567   -2.7297 H   0  0  0  0  0  0  0  0  0  0  0  0
   -5.9412   -1.1887    0.1491 H   0  0  0  0  0  0  0  0  0  0  0  0
   -4.4264   -1.5307   -0.7414 H   0  0  0  0  0  0  0  0  0  0  0  0
   -4.1020    0.9513   -1.0739 H   0  0  0  0  0  0  0  0  0  0  0  0
   -3.7554    1.5936    1.2921 H   0  0  0  0  0  0  0  0  0  0  0  0
   -3.1005   -1.2209    0.7611 H   0  0  0  0  0  0  0  0  0  0  0  0
   -1.8718    0.9114    2.4144 H   0  0  0  0  0  0  0  0  0  0  0  0
   -2.2651   -0.8269    2.8721 H   0  0  0  0  0  0  0  0  0  0  0  0
   -0.3317   -1.6472    1.9116 H   0  0  0  0  0  0  0  0  0  0  0  0
    0.1825    0.0415    2.1505 H   0  0  0  0  0  0  0  0  0  0  0  0
    1.9908   -1.3194    1.4619 H   0  0  0  0  0  0  0  0  0  0  0  0
    2.9198   -1.5596   -0.0461 H   0  0  0  0  0  0  0  0  0  0  0  0
    3.6333    0.2970    2.1901 H   0  0  0  0  0  0  0  0  0  0  0  0
    4.2849   -1.3505    1.8683 H   0  0  0  0  0  0  0  0  0  0  0  0
    6.7839    0.8601   -1.2333 H   0  0  0  0  0  0  0  0  0  0  0  0
    9.9499   -0.4419    1.2340 H   0  0  0  0  0  0  0  0  0  0  0  0
    3.9146   -0.0160   -1.4253 H   0  0  0  0  0  0  0  0  0  0  0  0
    4.8923    1.5145   -1.1566 H   0  0  0  0  0  0  0  0  0  0  0  0
    3.0771    2.1060    0.6007 H   0  0  0  0  0  0  0  0  0  0  0  0
    2.4985    1.9932   -1.1460 H   0  0  0  0  0  0  0  0  0  0  0  0
    0.6521   -2.1255   -0.3427 H   0  0  0  0  0  0  0  0  0  0  0  0
   -0.9163   -3.6307   -0.9807 H   0  0  0  0  0  0  0  0  0  0  0  0
   -2.2646   -2.5042   -1.0773 H   0  0  0  0  0  0  0  0  0  0  0  0
   -1.4814   -2.9652    0.5477 H   0  0  0  0  0  0  0  0  0  0  0  0
   -0.3101   -0.2657   -2.3456 H   0  0  0  0  0  0  0  0  0  0  0  0
   -1.0032   -1.8447   -2.7610 H   0  0  0  0  0  0  0  0  0  0  0  0
    0.7610   -1.7424   -2.6125 H   0  0  0  0  0  0  0  0  0  0  0  0
   -1.6638    1.3662   -0.0942 H   0  0  0  0  0  0  0  0  0  0  0  0
   -2.1382    0.1071   -1.2464 H   0  0  0  0  0  0  0  0  0  0  0  0
  1  2  1  0
  2  3  1  0
  3  4  1  0
  4  5  1  0
  5  6  1  0
  6  7  1  0
  7  8  1  0
  8  9  1  0
  9 10  1  0
 10 11  1  0
 11 12  1  0
 12 13  1  0
 13 14  1  0
 14 15  2  0
 14 16  1  0
 16 17  1  0
 17 18  1  0
 18 19  1  0
 19 20  1  0
 20 21  2  0
 21 22  1  0
 22 23  1  0
 23 24  1  0
 23 25  1  0
 23 26  1  0
 22 27  2  0
 27 28  1  0
 28 29  2  0
 19 30  1  0
 30 31  1  0
 13 32  1  6
 32 33  1  0
 32 34  1  0
 13 35  1  0
  8  3  1  0
 35 10  1  0
 31 16  1  0
 29 20  1  0
  1 36  1  0
  1 37  1  0
  1 38  1  0
  3 39  1  1
  4 40  1  0
  4 41  1  0
  6 42  1  0
  6 43  1  0
  7 44  1  0
  7 45  1  0
  8 46  1  6
  9 47  1  0
 10 48  1  6
 11 49  1  0
 11 50  1  0
 12 51  1  0
 12 52  1  0
 17 53  1  0
 17 54  1  0
 18 55  1  0
 18 56  1  0
 21 57  1  0
 27 58  1  0
 30 59  1  0
 30 60  1  0
 31 61  1  0
 31 62  1  0
 32 63  1  0
 33 64  1  0
 33 65  1  0
 33 66  1  0
 34 67  1  0
 34 68  1  0
 34 69  1  0
 35 70  1  0
 35 71  1  0
M  END
$$$$
