@<TRIPOS>MOLECULE
*****
 55 59 0 0 0
SMALL
GASTEIGER

@<TRIPOS>ATOM
      1 O           1.2904    4.1052   -0.3465 O.2     1  UNL1       -0.2699
      2 C           1.1260    2.9798    0.2034 C.2     1  UNL1        0.2495
      3 C          -0.1412    2.7169    0.8686 C.ar    1  UNL1        0.0723
      4 C          -1.1968    2.1635    0.1691 C.ar    1  UNL1       -0.0433
      5 C          -2.4131    1.9019    0.7602 C.ar    1  UNL1       -0.0406
      6 C          -3.5803    1.3144    0.0711 C.3     1  UNL1        0.0171
      7 C          -3.6284   -0.1541    0.1315 C.ar    1  UNL1        0.0736
      8 N          -2.6703   -0.8691    0.7355 N.ar    1  UNL1       -0.1750
      9 N          -2.7627   -2.1694    0.7602 N.ar    1  UNL1       -0.2425
     10 C          -3.7629   -2.8699    0.2154 C.ar    1  UNL1        0.2725
     11 O          -3.8340   -4.1206    0.2477 O.2     1  UNL1       -0.2658
     12 C          -4.7737   -2.1759   -0.4187 C.ar    1  UNL1        0.0496
     13 C          -5.8392   -2.8142   -1.0054 C.ar    1  UNL1       -0.0487
     14 C          -6.8542   -2.1376   -1.6421 C.ar    1  UNL1       -0.0610
     15 C          -6.7780   -0.7624   -1.6790 C.ar    1  UNL1       -0.0611
     16 C          -5.7109   -0.1140   -1.0916 C.ar    1  UNL1       -0.0521
     17 C          -4.6904   -0.8038   -0.4521 C.ar    1  UNL1        0.0106
     18 C          -2.5381    2.2208    2.1074 C.ar    1  UNL1       -0.0555
     19 C          -1.4815    2.7727    2.8042 C.ar    1  UNL1       -0.0254
     20 C          -0.2647    3.0335    2.2084 C.ar    1  UNL1        0.1355
     21 F           0.7786    3.5779    2.8898 F       1  UNL1       -0.2047
     22 N           2.1626    2.0441    0.1482 N.am    1  UNL1       -0.2945
     23 C           3.4120    2.3822   -0.5398 C.3     1  UNL1        0.0308
     24 C           4.5690    1.6103    0.0582 C.3     1  UNL1        0.0305
     25 N           4.2705    0.1879   -0.1428 N.am    1  UNL1       -0.2983
     26 C           5.3048   -0.7193   -0.4307 C.2     1  UNL1        0.2187
     27 O           6.4833   -0.3064   -0.5054 O.2     1  UNL1       -0.2753
     28 C           5.0261   -2.1473   -0.6478 C.3     1  UNL1        0.0358
     29 C           5.8630   -2.9261   -1.6203 C.3     1  UNL1       -0.0412
     30 C           5.9902   -3.1660   -0.1337 C.3     1  UNL1       -0.0412
     31 C           2.9088   -0.3079   -0.0384 C.3     1  UNL1        0.0305
     32 C           2.1117    0.7236    0.7341 C.3     1  UNL1        0.0308
     33 H          -1.1116    1.9091   -0.8905 H       1  UNL1        0.0629
     34 H          -4.5426    1.6903    0.4913 H       1  UNL1        0.0377
     35 H          -3.6161    1.6038   -1.0118 H       1  UNL1        0.0377
     36 H          -2.0037   -2.7283    1.2387 H       1  UNL1        0.1921
     37 H          -5.8756   -3.8999   -0.9629 H       1  UNL1        0.0625
     38 H          -7.6891   -2.6840   -2.0961 H       1  UNL1        0.0618
     39 H          -7.5405   -0.1963   -2.1623 H       1  UNL1        0.0618
     40 H          -5.6476    0.9641   -1.1171 H       1  UNL1        0.0624
     41 H          -3.4985    2.0169    2.5915 H       1  UNL1        0.0621
     42 H          -1.5946    3.0200    3.8671 H       1  UNL1        0.0646
     43 H           3.2976    2.0418   -1.5884 H       1  UNL1        0.0480
     44 H           3.5939    3.4690   -0.5629 H       1  UNL1        0.0480
     45 H           4.7501    1.8569    1.1116 H       1  UNL1        0.0480
     46 H           5.4655    1.8318   -0.5559 H       1  UNL1        0.0480
     47 H           3.9358   -2.4193   -0.5997 H       1  UNL1        0.0394
     48 H           6.7059   -2.4276   -2.1452 H       1  UNL1        0.0273
     49 H           5.4389   -3.7572   -2.1863 H       1  UNL1        0.0273
     50 H           6.9000   -2.7506    0.3360 H       1  UNL1        0.0273
     51 H           5.5360   -4.0785    0.3052 H       1  UNL1        0.0273
     52 H           2.9862   -1.1913    0.6650 H       1  UNL1        0.0480
     53 H           2.4672   -0.5850   -0.9923 H       1  UNL1        0.0480
     54 H           1.0670    0.3625    0.8085 H       1  UNL1        0.0480
     55 H           2.5989    0.7807    1.7518 H       1  UNL1        0.0480
@<TRIPOS>BOND
     1     1     2    2
     2     2     3    1
     3     3     4   ar
     4     4     5   ar
     5     5     6    1
     6     6     7    1
     7     7     8   ar
     8     8     9   ar
     9     9    10   ar
    10    10    11    2
    11    10    12   ar
    12    12    13   ar
    13    13    14   ar
    14    14    15   ar
    15    15    16   ar
    16    16    17   ar
    17     5    18   ar
    18    18    19   ar
    19    19    20   ar
    20    20    21    1
    21     2    22   am
    22    22    23    1
    23    23    24    1
    24    24    25    1
    25    25    26   am
    26    26    27    2
    27    26    28    1
    28    28    29    1
    29    29    30    1
    30    25    31    1
    31    31    32    1
    32    20     3   ar
    33    32    22    1
    34    17     7   ar
    35    30    28    1
    36    17    12   ar
    37     4    33    1
    38     6    34    1
    39     6    35    1
    40     9    36    1
    41    13    37    1
    42    14    38    1
    43    15    39    1
    44    16    40    1
    45    18    41    1
    46    19    42    1
    47    23    43    1
    48    23    44    1
    49    24    45    1
    50    24    46    1
    51    28    47    1
    52    29    48    1
    53    29    49    1
    54    30    50    1
    55    30    51    1
    56    31    52    1
    57    31    53    1
    58    32    54    1
    59    32    55    1
