
     RDKit          3D

 46 49  0  0  0  0  0  0  0  0999 V2000
    0.0955    3.3199   -1.5414 C   0  0  0  0  0  0  0  0  0  0  0  0
   -0.4491    2.8918   -0.2128 C   0  0  0  0  0  0  0  0  0  0  0  0
   -1.2499    4.0505    0.3699 C   0  0  0  0  0  0  0  0  0  0  0  0
   -0.4912    5.1837    0.5548 O   0  0  0  0  0  0  0  0  0  0  0  0
   -1.3954    1.8009   -0.4506 N   0  0  0  0  0  0  0  0  0  0  0  0
   -2.6135    1.8895   -1.0195 C   0  0  0  0  0  0  0  0  0  0  0  0
   -3.1676    0.6631   -1.0548 N   0  0  0  0  0  0  0  0  0  0  0  0
   -2.3291   -0.2387   -0.5148 C   0  0  0  0  0  0  0  0  0  0  0  0
   -2.5163   -1.6693   -0.3463 C   0  0  0  0  0  0  0  0  0  0  0  0
   -1.6633   -2.5404   -0.9874 C   0  0  0  0  0  0  0  0  0  0  0  0
   -1.8130   -3.9269   -0.8491 C   0  0  0  0  0  0  0  0  0  0  0  0
   -2.8211   -4.4272   -0.0659 C   0  0  0  0  0  0  0  0  0  0  0  0
   -2.9629   -5.7560    0.0643 F   0  0  0  0  0  0  0  0  0  0  0  0
   -3.6979   -3.5583    0.5937 C   0  0  0  0  0  0  0  0  0  0  0  0
   -3.5147   -2.2045    0.4303 C   0  0  0  0  0  0  0  0  0  0  0  0
   -1.2070    0.5076   -0.1369 C   0  0  0  0  0  0  0  0  0  0  0  0
   -0.0475   -0.0991    0.4972 C   0  0  0  0  0  0  0  0  0  0  0  0
   -0.1329   -0.7085    1.7446 C   0  0  0  0  0  0  0  0  0  0  0  0
    0.9755   -1.2791    2.3274 C   0  0  0  0  0  0  0  0  0  0  0  0
    2.1778   -1.2421    1.6622 C   0  0  0  0  0  0  0  0  0  0  0  0
    3.3916   -1.7067    1.9825 N   0  0  0  0  0  0  0  0  0  0  0  0
    4.2572   -1.4245    0.9974 C   0  0  0  0  0  0  0  0  0  0  0  0
    3.5594   -0.7433   -0.0060 C   0  0  0  0  0  0  0  0  0  0  0  0
    4.1392   -0.2593   -1.2517 C   0  0  0  0  0  0  0  0  0  0  0  0
    5.5034   -0.4528   -1.5505 N   0  0  0  0  0  0  0  0  0  0  0  0
    3.4248    0.3435   -2.0862 O   0  0  0  0  0  0  0  0  0  0  0  0
    2.2976   -0.6573    0.4463 N   0  0  0  0  0  0  0  0  0  0  0  0
    1.1911   -0.1029   -0.1054 C   0  0  0  0  0  0  0  0  0  0  0  0
    0.6597    2.4987   -2.0227 H   0  0  0  0  0  0  0  0  0  0  0  0
    0.7239    4.2145   -1.3758 H   0  0  0  0  0  0  0  0  0  0  0  0
   -0.7630    3.6110   -2.2093 H   0  0  0  0  0  0  0  0  0  0  0  0
    0.3325    2.6069    0.4885 H   0  0  0  0  0  0  0  0  0  0  0  0
   -2.1215    4.2508   -0.3037 H   0  0  0  0  0  0  0  0  0  0  0  0
   -1.6213    3.7190    1.3577 H   0  0  0  0  0  0  0  0  0  0  0  0
   -0.8025    5.7291    1.3266 H   0  0  0  0  0  0  0  0  0  0  0  0
   -3.0984    2.7902   -1.3981 H   0  0  0  0  0  0  0  0  0  0  0  0
   -0.8636   -2.1495   -1.6091 H   0  0  0  0  0  0  0  0  0  0  0  0
   -1.1383   -4.6094   -1.3562 H   0  0  0  0  0  0  0  0  0  0  0  0
   -4.4669   -4.0056    1.1924 H   0  0  0  0  0  0  0  0  0  0  0  0
   -4.1930   -1.5415    0.9403 H   0  0  0  0  0  0  0  0  0  0  0  0
   -1.1146   -0.7010    2.2130 H   0  0  0  0  0  0  0  0  0  0  0  0
    0.8672   -1.7384    3.2899 H   0  0  0  0  0  0  0  0  0  0  0  0
    5.3100   -1.6638    0.9511 H   0  0  0  0  0  0  0  0  0  0  0  0
    5.8446   -1.3068   -2.0245 H   0  0  0  0  0  0  0  0  0  0  0  0
    6.1854    0.2798   -1.2888 H   0  0  0  0  0  0  0  0  0  0  0  0
    1.3193    0.3623   -1.0890 H   0  0  0  0  0  0  0  0  0  0  0  0
  1  2  1  0
  2  3  1  0
  3  4  1  0
  2  5  1  0
  5  6  1  0
  6  7  2  0
  7  8  1  0
  8  9  1  0
  9 10  2  0
 10 11  1  0
 11 12  2  0
 12 13  1  0
 12 14  1  0
 14 15  2  0
  8 16  2  0
 16 17  1  0
 17 18  1  0
 18 19  2  0
 19 20  1  0
 20 21  2  0
 21 22  1  0
 22 23  2  0
 23 24  1  0
 24 25  1  0
 24 26  2  0
 23 27  1  0
 27 28  1  0
 16  5  1  0
 28 17  2  0
 15  9  1  0
 27 20  1  0
  1 29  1  0
  1 30  1  0
  1 31  1  0
  2 32  1  0
  3 33  1  0
  3 34  1  0
  4 35  1  0
  6 36  1  0
 10 37  1  0
 11 38  1  0
 14 39  1  0
 15 40  1  0
 18 41  1  0
 19 42  1  0
 22 43  1  0
 25 44  1  0
 25 45  1  0
 28 46  1  0
M  END
$$$$
