@<TRIPOS>MOLECULE
*****
 46 49 0 0 0
SMALL
GASTEIGER

@<TRIPOS>ATOM
      1 C           0.0955    3.3199   -1.5414 C.3     1  UNL1       -0.0420
      2 C          -0.4491    2.8918   -0.2128 C.3     1  UNL1        0.0562
      3 C          -1.2499    4.0505    0.3699 C.3     1  UNL1        0.0647
      4 O          -0.4912    5.1837    0.5548 O.3     1  UNL1       -0.3930
      5 N          -1.3954    1.8009   -0.4506 N.ar    1  UNL1       -0.3245
      6 C          -2.6135    1.8895   -1.0195 C.ar    1  UNL1        0.0974
      7 N          -3.1676    0.6631   -1.0548 N.ar    1  UNL1       -0.2351
      8 C          -2.3291   -0.2387   -0.5148 C.ar    1  UNL1        0.0967
      9 C          -2.5163   -1.6693   -0.3463 C.ar    1  UNL1        0.0026
     10 C          -1.6633   -2.5404   -0.9874 C.ar    1  UNL1       -0.0498
     11 C          -1.8130   -3.9269   -0.8491 C.ar    1  UNL1       -0.0258
     12 C          -2.8211   -4.4272   -0.0659 C.ar    1  UNL1        0.1234
     13 F          -2.9629   -5.7560    0.0643 F       1  UNL1       -0.2055
     14 C          -3.6979   -3.5583    0.5937 C.ar    1  UNL1       -0.0258
     15 C          -3.5147   -2.2045    0.4303 C.ar    1  UNL1       -0.0498
     16 C          -1.2070    0.5076   -0.1369 C.ar    1  UNL1        0.0781
     17 C          -0.0475   -0.0991    0.4972 C.ar    1  UNL1        0.0173
     18 C          -0.1329   -0.7085    1.7446 C.ar    1  UNL1       -0.0477
     19 C           0.9755   -1.2791    2.3274 C.ar    1  UNL1       -0.0182
     20 C           2.1778   -1.2421    1.6622 C.ar    1  UNL1        0.1381
     21 N           3.3916   -1.7067    1.9825 N.ar    1  UNL1       -0.2353
     22 C           4.2572   -1.4245    0.9974 C.ar    1  UNL1        0.0588
     23 C           3.5594   -0.7433   -0.0060 C.ar    1  UNL1        0.1280
     24 C           4.1392   -0.2593   -1.2517 C.2     1  UNL1        0.2599
     25 N           5.5034   -0.4528   -1.5505 N.am    1  UNL1       -0.3241
     26 O           3.4248    0.3435   -2.0862 O.2     1  UNL1       -0.2687
     27 N           2.2976   -0.6573    0.4463 N.ar    1  UNL1       -0.2949
     28 C           1.1911   -0.1029   -0.1054 C.ar    1  UNL1        0.0211
     29 H           0.6597    2.4987   -2.0227 H       1  UNL1        0.0250
     30 H           0.7239    4.2145   -1.3758 H       1  UNL1        0.0250
     31 H          -0.7630    3.6110   -2.2093 H       1  UNL1        0.0250
     32 H           0.3325    2.6069    0.4885 H       1  UNL1        0.0548
     33 H          -2.1215    4.2508   -0.3037 H       1  UNL1        0.0578
     34 H          -1.6213    3.7190    1.3577 H       1  UNL1        0.0578
     35 H          -0.8025    5.7291    1.3266 H       1  UNL1        0.2095
     36 H          -3.0984    2.7902   -1.3981 H       1  UNL1        0.1029
     37 H          -0.8636   -2.1495   -1.6091 H       1  UNL1        0.0625
     38 H          -1.1383   -4.6094   -1.3562 H       1  UNL1        0.0646
     39 H          -4.4669   -4.0056    1.1924 H       1  UNL1        0.0646
     40 H          -4.1930   -1.5415    0.9403 H       1  UNL1        0.0625
     41 H          -1.1146   -0.7010    2.2130 H       1  UNL1        0.0626
     42 H           0.8672   -1.7384    3.2899 H       1  UNL1        0.0654
     43 H           5.3100   -1.6638    0.9511 H       1  UNL1        0.0853
     44 H           5.8446   -1.3068   -2.0245 H       1  UNL1        0.1453
     45 H           6.1854    0.2798   -1.2888 H       1  UNL1        0.1453
     46 H           1.3193    0.3623   -1.0890 H       1  UNL1        0.0820
@<TRIPOS>BOND
     1     1     2    1
     2     2     3    1
     3     3     4    1
     4     2     5    1
     5     5     6   ar
     6     6     7   ar
     7     7     8   ar
     8     8     9    1
     9     9    10   ar
    10    10    11   ar
    11    11    12   ar
    12    12    13    1
    13    12    14   ar
    14    14    15   ar
    15     8    16   ar
    16    16    17    1
    17    17    18   ar
    18    18    19   ar
    19    19    20   ar
    20    20    21   ar
    21    21    22   ar
    22    22    23   ar
    23    23    24    1
    24    24    25   am
    25    24    26    2
    26    23    27   ar
    27    27    28   ar
    28    16     5   ar
    29    28    17   ar
    30    15     9   ar
    31    27    20   ar
    32     1    29    1
    33     1    30    1
    34     1    31    1
    35     2    32    1
    36     3    33    1
    37     3    34    1
    38     4    35    1
    39     6    36    1
    40    10    37    1
    41    11    38    1
    42    14    39    1
    43    15    40    1
    44    18    41    1
    45    19    42    1
    46    22    43    1
    47    25    44    1
    48    25    45    1
    49    28    46    1
