
     RDKit          3D

 66 69  0  0  0  0  0  0  0  0999 V2000
    0.6952   -6.9629   -0.5801 C   0  0  0  0  0  0  0  0  0  0  0  0
   -0.0272   -5.9859   -1.5107 C   0  0  0  0  0  0  0  0  0  0  0  0
   -1.3851   -6.6183   -1.8618 C   0  0  0  0  0  0  0  0  0  0  0  0
   -0.2998   -4.8104   -0.7564 N   0  0  0  0  0  0  0  0  0  0  0  0
    0.0563   -3.4537   -1.1442 C   0  0  0  0  0  0  0  0  0  0  0  0
    0.6463   -3.3501   -2.2722 O   0  0  0  0  0  0  0  0  0  0  0  0
   -0.2268   -2.3391   -0.3156 N   0  0  0  0  0  0  0  0  0  0  0  0
    0.3313   -1.0343   -0.7039 C   0  0  0  0  0  0  0  0  0  0  0  0
    1.7573   -0.9738   -0.2715 C   0  0  0  0  0  0  0  0  0  0  0  0
    2.3242   -2.0940    0.2483 C   0  0  0  0  0  0  0  0  0  0  0  0
    3.6258   -1.9864    0.6906 C   0  0  0  0  0  0  0  0  0  0  0  0
    4.2890   -0.8200    0.5985 C   0  0  0  0  0  0  0  0  0  0  0  0
    3.7542    0.4324    0.0582 C   0  0  0  0  0  0  0  0  0  0  0  0
    4.3696    1.4740    0.1883 C   0  0  0  0  0  0  0  0  0  0  0  0
    5.0494    2.6426    0.3210 C   0  0  0  0  0  0  0  0  0  0  0  0
    5.7681    3.8579    0.4395 C   0  0  0  0  0  0  0  0  0  0  0  0
    7.0837    3.8740    0.9233 C   0  0  0  0  0  0  0  0  0  0  0  0
    7.6107    5.1769    1.0258 C   0  0  0  0  0  0  0  0  0  0  0  0
    6.9412    6.3204    0.7038 C   0  0  0  0  0  0  0  0  0  0  0  0
    7.7057    7.9094    0.9583 Cl  0  0  0  0  0  0  0  0  0  0  0  0
    5.6486    6.2433    0.2340 C   0  0  0  0  0  0  0  0  0  0  0  0
    5.1072    4.9879    0.1223 C   0  0  0  0  0  0  0  0  0  0  0  0
    2.4035    0.2343   -0.3794 C   0  0  0  0  0  0  0  0  0  0  0  0
   -1.1630   -2.4367    0.7955 C   0  0  0  0  0  0  0  0  0  0  0  0
   -1.7573   -1.1876    1.1081 C   0  0  0  0  0  0  0  0  0  0  0  0
   -1.0943   -0.4488    2.2957 C   0  0  0  0  0  0  0  0  0  0  0  0
   -1.5332    0.7411    2.5404 C   0  0  0  0  0  0  0  0  0  0  0  0
   -2.4795    1.4987    1.9515 C   0  0  0  0  0  0  0  0  0  0  0  0
   -3.0993    0.7552    0.8151 C   0  0  0  0  0  0  0  0  0  0  0  0
   -4.1703    1.5137    0.1222 C   0  0  0  0  0  0  0  0  0  0  0  0
   -5.0875    2.1379   -0.4653 C   0  0  0  0  0  0  0  0  0  0  0  0
   -6.1659    2.8770   -1.1426 C   0  0  0  0  0  0  0  0  0  0  0  0
   -7.0444    3.4524   -0.1782 C   0  0  0  0  0  0  0  0  0  0  0  0
   -8.1252    4.2171   -0.6430 C   0  0  0  0  0  0  0  0  0  0  0  0
   -8.2779    4.3730   -2.0661 C   0  0  0  0  0  0  0  0  0  0  0  0
   -7.3982    3.7868   -2.8836 C   0  0  0  0  0  0  0  0  0  0  0  0
   -6.3799    3.0612   -2.3388 N   0  0  0  0  0  0  0  0  0  0  0  0
   -2.6770   -0.4199    0.5566 C   0  0  0  0  0  0  0  0  0  0  0  0
    0.9805   -6.5629    0.3737 H   0  0  0  0  0  0  0  0  0  0  0  0
    1.5001   -7.5432   -1.1475 H   0  0  0  0  0  0  0  0  0  0  0  0
   -0.0692   -7.7939   -0.3807 H   0  0  0  0  0  0  0  0  0  0  0  0
    0.5571   -5.7659   -2.4471 H   0  0  0  0  0  0  0  0  0  0  0  0
   -1.1854   -7.5601   -2.3892 H   0  0  0  0  0  0  0  0  0  0  0  0
   -1.9666   -5.8667   -2.4432 H   0  0  0  0  0  0  0  0  0  0  0  0
   -1.8805   -6.8501   -0.8667 H   0  0  0  0  0  0  0  0  0  0  0  0
   -0.7851   -4.8564    0.1994 H   0  0  0  0  0  0  0  0  0  0  0  0
    0.2143   -0.9279   -1.7900 H   0  0  0  0  0  0  0  0  0  0  0  0
   -0.1781   -0.2170   -0.1451 H   0  0  0  0  0  0  0  0  0  0  0  0
    1.8110   -3.0395    0.3280 H   0  0  0  0  0  0  0  0  0  0  0  0
    4.0740   -2.8609    1.1414 H   0  0  0  0  0  0  0  0  0  0  0  0
    5.3448   -0.7389    0.9233 H   0  0  0  0  0  0  0  0  0  0  0  0
    7.5948    2.9721    1.1302 H   0  0  0  0  0  0  0  0  0  0  0  0
    8.6455    5.2012    1.4108 H   0  0  0  0  0  0  0  0  0  0  0  0
    5.0955    7.0922   -0.0387 H   0  0  0  0  0  0  0  0  0  0  0  0
    4.0790    4.9257   -0.2821 H   0  0  0  0  0  0  0  0  0  0  0  0
    1.9391    1.1110   -0.8210 H   0  0  0  0  0  0  0  0  0  0  0  0
   -0.7580   -2.9308    1.7159 H   0  0  0  0  0  0  0  0  0  0  0  0
   -2.0321   -3.1524    0.5318 H   0  0  0  0  0  0  0  0  0  0  0  0
   -0.3815   -1.0552    2.7800 H   0  0  0  0  0  0  0  0  0  0  0  0
   -1.0457    1.3206    3.4258 H   0  0  0  0  0  0  0  0  0  0  0  0
   -2.8645    2.4401    2.0878 H   0  0  0  0  0  0  0  0  0  0  0  0
   -6.8439    3.3146    0.8677 H   0  0  0  0  0  0  0  0  0  0  0  0
   -8.8220    4.7278   -0.0363 H   0  0  0  0  0  0  0  0  0  0  0  0
   -9.1026    5.0210   -2.4127 H   0  0  0  0  0  0  0  0  0  0  0  0
   -7.5325    3.8715   -3.9459 H   0  0  0  0  0  0  0  0  0  0  0  0
   -3.1633   -0.9217   -0.3863 H   0  0  0  0  0  0  0  0  0  0  0  0
  1  2  1  0
  2  3  1  0
  2  4  1  0
  4  5  1  0
  5  6  2  0
  5  7  1  0
  7  8  1  0
  8  9  1  0
  9 10  2  0
 10 11  1  0
 11 12  2  0
 12 13  1  0
 13 14  1  0
 14 15  3  0
 15 16  1  0
 16 17  2  0
 17 18  1  0
 18 19  2  0
 19 20  1  0
 19 21  1  0
 21 22  2  0
 13 23  2  0
  7 24  1  0
 24 25  1  0
 25 26  2  0
 26 27  1  0
 27 28  2  0
 28 29  1  0
 29 30  1  0
 30 31  3  0
 31 32  1  0
 32 33  2  0
 33 34  1  0
 34 35  2  0
 35 36  1  0
 36 37  2  0
 29 38  2  0
 23  9  1  0
 38 25  1  0
 22 16  1  0
 37 32  1  0
  1 39  1  0
  1 40  1  0
  1 41  1  0
  2 42  1  0
  3 43  1  0
  3 44  1  0
  3 45  1  0
  4 46  1  0
  8 47  1  0
  8 48  1  0
 10 49  1  0
 11 50  1  0
 12 51  1  0
 17 52  1  0
 18 53  1  0
 21 54  1  0
 22 55  1  0
 23 56  1  0
 24 57  1  0
 24 58  1  0
 26 59  1  0
 27 60  1  0
 28 61  1  0
 33 62  1  0
 34 63  1  0
 35 64  1  0
 36 65  1  0
 38 66  1  0
M  END
$$$$
