@<TRIPOS>MOLECULE
*****
 66 69 0 0 0
SMALL
GASTEIGER

@<TRIPOS>ATOM
      1 C           0.6952   -6.9629   -0.5801 C.3     1  UNL1       -0.0468
      2 C          -0.0272   -5.9859   -1.5107 C.3     1  UNL1        0.0189
      3 C          -1.3851   -6.6183   -1.8618 C.3     1  UNL1       -0.0468
      4 N          -0.2998   -4.8104   -0.7564 N.am    1  UNL1       -0.2969
      5 C           0.0563   -3.4537   -1.1442 C.2     1  UNL1        0.3030
      6 O           0.6463   -3.3501   -2.2722 O.2     1  UNL1       -0.2526
      7 N          -0.2268   -2.3391   -0.3156 N.am    1  UNL1       -0.2770
      8 C           0.3313   -1.0343   -0.7039 C.3     1  UNL1        0.0416
      9 C           1.7573   -0.9738   -0.2715 C.ar    1  UNL1       -0.0289
     10 C           2.3242   -2.0940    0.2483 C.ar    1  UNL1       -0.0570
     11 C           3.6258   -1.9864    0.6906 C.ar    1  UNL1       -0.0603
     12 C           4.2890   -0.8200    0.5985 C.ar    1  UNL1       -0.0463
     13 C           3.7542    0.4324    0.0582 C.ar    1  UNL1        0.0256
     14 C           4.3696    1.4740    0.1883 C.1     1  UNL1       -0.0610
     15 C           5.0494    2.6426    0.3210 C.1     1  UNL1       -0.0610
     16 C           5.7681    3.8579    0.4395 C.ar    1  UNL1        0.0254
     17 C           7.0837    3.8740    0.9233 C.ar    1  UNL1       -0.0449
     18 C           7.6107    5.1769    1.0258 C.ar    1  UNL1       -0.0422
     19 C           6.9412    6.3204    0.7038 C.ar    1  UNL1        0.0410
     20 CL          7.7057    7.9094    0.9583 Cl      1  UNL1       -0.0835
     21 C           5.6486    6.2433    0.2340 C.ar    1  UNL1       -0.0422
     22 C           5.1072    4.9879    0.1223 C.ar    1  UNL1       -0.0449
     23 C           2.4035    0.2343   -0.3794 C.ar    1  UNL1       -0.0416
     24 C          -1.1630   -2.4367    0.7955 C.3     1  UNL1        0.0416
     25 C          -1.7573   -1.1876    1.1081 C.ar    1  UNL1       -0.0289
     26 C          -1.0943   -0.4488    2.2957 C.ar    1  UNL1       -0.0570
     27 C          -1.5332    0.7411    2.5404 C.ar    1  UNL1       -0.0603
     28 C          -2.4795    1.4987    1.9515 C.ar    1  UNL1       -0.0463
     29 C          -3.0993    0.7552    0.8151 C.ar    1  UNL1        0.0256
     30 C          -4.1703    1.5137    0.1222 C.1     1  UNL1       -0.0595
     31 C          -5.0875    2.1379   -0.4653 C.1     1  UNL1       -0.0412
     32 C          -6.1659    2.8770   -1.1426 C.ar    1  UNL1        0.1137
     33 C          -7.0444    3.4524   -0.1782 C.ar    1  UNL1       -0.0278
     34 C          -8.1252    4.2171   -0.6430 C.ar    1  UNL1       -0.0577
     35 C          -8.2779    4.3730   -2.0661 C.ar    1  UNL1       -0.0435
     36 C          -7.3982    3.7868   -2.8836 C.ar    1  UNL1        0.0290
     37 N          -6.3799    3.0612   -2.3388 N.ar    1  UNL1       -0.2467
     38 C          -2.6770   -0.4199    0.5566 C.ar    1  UNL1       -0.0416
     39 H           0.9805   -6.5629    0.3737 H       1  UNL1        0.0247
     40 H           1.5001   -7.5432   -1.1475 H       1  UNL1        0.0247
     41 H          -0.0692   -7.7939   -0.3807 H       1  UNL1        0.0247
     42 H           0.5571   -5.7659   -2.4471 H       1  UNL1        0.0493
     43 H          -1.1854   -7.5601   -2.3892 H       1  UNL1        0.0247
     44 H          -1.9666   -5.8667   -2.4432 H       1  UNL1        0.0247
     45 H          -1.8805   -6.8501   -0.8667 H       1  UNL1        0.0247
     46 H          -0.7851   -4.8564    0.1994 H       1  UNL1        0.1505
     47 H           0.2143   -0.9279   -1.7900 H       1  UNL1        0.0514
     48 H          -0.1781   -0.2170   -0.1451 H       1  UNL1        0.0514
     49 H           1.8110   -3.0395    0.3280 H       1  UNL1        0.0621
     50 H           4.0740   -2.8609    1.1414 H       1  UNL1        0.0618
     51 H           5.3448   -0.7389    0.9233 H       1  UNL1        0.0630
     52 H           7.5948    2.9721    1.1302 H       1  UNL1        0.0630
     53 H           8.6455    5.2012    1.4108 H       1  UNL1        0.0632
     54 H           5.0955    7.0922   -0.0387 H       1  UNL1        0.0632
     55 H           4.0790    4.9257   -0.2821 H       1  UNL1        0.0630
     56 H           1.9391    1.1110   -0.8210 H       1  UNL1        0.0633
     57 H          -0.7580   -2.9308    1.7159 H       1  UNL1        0.0514
     58 H          -2.0321   -3.1524    0.5318 H       1  UNL1        0.0514
     59 H          -0.3815   -1.0552    2.7800 H       1  UNL1        0.0621
     60 H          -1.0457    1.3206    3.4258 H       1  UNL1        0.0618
     61 H          -2.8645    2.4401    2.0878 H       1  UNL1        0.0630
     62 H          -6.8439    3.3146    0.8677 H       1  UNL1        0.0645
     63 H          -8.8220    4.7278   -0.0363 H       1  UNL1        0.0619
     64 H          -9.1026    5.0210   -2.4127 H       1  UNL1        0.0633
     65 H          -7.5325    3.8715   -3.9459 H       1  UNL1        0.0830
     66 H          -3.1633   -0.9217   -0.3863 H       1  UNL1        0.0633
@<TRIPOS>BOND
     1     1     2    1
     2     2     3    1
     3     2     4    1
     4     4     5   am
     5     5     6    2
     6     5     7   am
     7     7     8    1
     8     8     9    1
     9     9    10   ar
    10    10    11   ar
    11    11    12   ar
    12    12    13   ar
    13    13    14    1
    14    14    15    3
    15    15    16    1
    16    16    17   ar
    17    17    18   ar
    18    18    19   ar
    19    19    20    1
    20    19    21   ar
    21    21    22   ar
    22    13    23   ar
    23     7    24    1
    24    24    25    1
    25    25    26   ar
    26    26    27   ar
    27    27    28   ar
    28    28    29   ar
    29    29    30    1
    30    30    31    3
    31    31    32    1
    32    32    33   ar
    33    33    34   ar
    34    34    35   ar
    35    35    36   ar
    36    36    37   ar
    37    29    38   ar
    38    23     9   ar
    39    38    25   ar
    40    22    16   ar
    41    37    32   ar
    42     1    39    1
    43     1    40    1
    44     1    41    1
    45     2    42    1
    46     3    43    1
    47     3    44    1
    48     3    45    1
    49     4    46    1
    50     8    47    1
    51     8    48    1
    52    10    49    1
    53    11    50    1
    54    12    51    1
    55    17    52    1
    56    18    53    1
    57    21    54    1
    58    22    55    1
    59    23    56    1
    60    24    57    1
    61    24    58    1
    62    26    59    1
    63    27    60    1
    64    28    61    1
    65    33    62    1
    66    34    63    1
    67    35    64    1
    68    36    65    1
    69    38    66    1
