@<TRIPOS>MOLECULE
*****
 58 62 0 0 0
SMALL
GASTEIGER

@<TRIPOS>ATOM
      1 C          -3.4915    2.5541   -2.9864 C.3     1  UNL1        0.0333
      2 C          -3.3435    1.2888   -2.1782 C.2     1  UNL1        0.3049
      3 O          -3.4172    0.1879   -2.7545 O.2     1  UNL1       -0.2511
      4 O          -3.1306    1.3218   -0.8294 O.3     1  UNL1       -0.4500
      5 C          -2.9709    0.1923    0.0247 C.3     1  UNL1        0.1759
      6 C          -4.0949   -0.7126    0.0086 C.2     1  UNL1        0.1741
      7 C          -4.3747   -1.9497    0.7049 C.3     1  UNL1       -0.0020
      8 O          -5.0202   -0.3513   -0.7686 O.2     1  UNL1       -0.2934
      9 C          -3.0352    0.8466    1.4366 C.3     1  UNL1       -0.0049
     10 C          -1.6671    1.2901    1.7859 C.3     1  UNL1       -0.0450
     11 C          -0.8692    0.9227    0.5647 C.3     1  UNL1       -0.0248
     12 C           0.5664    0.6982    0.8025 C.3     1  UNL1       -0.0141
     13 C           1.2720    2.0304    0.9922 C.2     1  UNL1       -0.0617
     14 C           2.5786    2.0232    0.9256 C.2     1  UNL1        0.0412
     15 CL          3.5104    3.4909    1.1275 Cl      1  UNL1       -0.0836
     16 C           3.3027    0.7872    0.6753 C.2     1  UNL1       -0.0196
     17 C           4.6033    0.7124    0.9129 C.2     1  UNL1       -0.0138
     18 C           5.2605   -0.5617    0.6337 C.2     1  UNL1        0.1598
     19 O           6.1878   -0.9557    1.3651 O.2     1  UNL1       -0.2924
     20 C           4.7957   -1.3511   -0.5250 C.3     1  UNL1        0.0255
     21 C           4.3678   -0.5405   -1.7905 C.3     1  UNL1       -0.0386
     22 C           3.3841   -1.1588   -0.8990 C.3     1  UNL1       -0.0208
     23 C           2.6218   -0.4370    0.1640 C.3     1  UNL1        0.0013
     24 C           2.5041   -1.4225    1.3358 C.3     1  UNL1       -0.0549
     25 C           1.2699    0.0334   -0.3204 C.3     1  UNL1       -0.0247
     26 C           0.4894   -1.0416   -1.0007 C.3     1  UNL1       -0.0482
     27 C          -0.9483   -0.6075   -1.2615 C.3     1  UNL1       -0.0430
     28 C          -1.5725   -0.3229    0.0609 C.3     1  UNL1        0.0182
     29 C          -1.4445   -1.4204    1.0498 C.3     1  UNL1       -0.0552
     30 H          -3.6959    3.4225   -2.3128 H       1  UNL1        0.0342
     31 H          -2.5973    2.7744   -3.5707 H       1  UNL1        0.0342
     32 H          -4.3638    2.4649   -3.6554 H       1  UNL1        0.0342
     33 H          -3.6977   -2.7888    0.5999 H       1  UNL1        0.0307
     34 H          -5.3977   -2.3489    0.4175 H       1  UNL1        0.0307
     35 H          -4.5155   -1.7677    1.8147 H       1  UNL1        0.0307
     36 H          -3.7904    1.6585    1.4236 H       1  UNL1        0.0308
     37 H          -3.3914    0.1089    2.1728 H       1  UNL1        0.0308
     38 H          -1.6458    2.3818    1.9833 H       1  UNL1        0.0270
     39 H          -1.2443    0.7978    2.6895 H       1  UNL1        0.0270
     40 H          -1.0351    1.7177   -0.2192 H       1  UNL1        0.0313
     41 H           0.7222    0.1991    1.7830 H       1  UNL1        0.0349
     42 H           0.7066    2.9283    1.1722 H       1  UNL1        0.0589
     43 H           5.1523    1.5663    1.3070 H       1  UNL1        0.0656
     44 H           5.3237   -2.3034   -0.7231 H       1  UNL1        0.0384
     45 H           4.5345    0.5423   -1.7477 H       1  UNL1        0.0275
     46 H           4.5515   -1.0649   -2.7571 H       1  UNL1        0.0275
     47 H           2.8150   -2.0722   -1.2566 H       1  UNL1        0.0316
     48 H           1.7213   -2.1848    1.1666 H       1  UNL1        0.0238
     49 H           2.3257   -0.9159    2.2889 H       1  UNL1        0.0238
     50 H           3.4536   -2.0190    1.4171 H       1  UNL1        0.0238
     51 H           1.5205    0.8348   -1.0870 H       1  UNL1        0.0315
     52 H           0.9410   -1.2226   -1.9986 H       1  UNL1        0.0269
     53 H           0.5271   -2.0045   -0.4565 H       1  UNL1        0.0269
     54 H          -1.3894   -1.3717   -1.8772 H       1  UNL1        0.0272
     55 H          -0.8660    0.3361   -1.8322 H       1  UNL1        0.0272
     56 H          -1.3686   -2.4317    0.5697 H       1  UNL1        0.0237
     57 H          -2.1789   -1.4509    1.8500 H       1  UNL1        0.0237
     58 H          -0.4514   -1.3334    1.5821 H       1  UNL1        0.0237
@<TRIPOS>BOND
     1     1     2    1
     2     2     3    2
     3     2     4    1
     4     5     4    1
     5     5     6    1
     6     6     7    1
     7     6     8    2
     8     5     9    1
     9     9    10    1
    10    10    11    1
    11    11    12    1
    12    12    13    1
    13    13    14    2
    14    14    15    1
    15    14    16    1
    16    16    17    2
    17    17    18    1
    18    18    19    2
    19    18    20    1
    20    20    21    1
    21    21    22    1
    22    22    23    1
    23    23    24    1
    24    23    25    1
    25    25    26    1
    26    26    27    1
    27    27    28    1
    28    28    29    1
    29    28     5    1
    30    28    11    1
    31    25    12    1
    32    23    16    1
    33    22    20    1
    34     1    30    1
    35     1    31    1
    36     1    32    1
    37     7    33    1
    38     7    34    1
    39     7    35    1
    40     9    36    1
    41     9    37    1
    42    10    38    1
    43    10    39    1
    44    11    40    1
    45    12    41    1
    46    13    42    1
    47    17    43    1
    48    20    44    1
    49    21    45    1
    50    21    46    1
    51    22    47    1
    52    24    48    1
    53    24    49    1
    54    24    50    1
    55    25    51    1
    56    26    52    1
    57    26    53    1
    58    27    54    1
    59    27    55    1
    60    29    56    1
    61    29    57    1
    62    29    58    1
