
     RDKit          3D

 58 62  0  0  0  0  0  0  0  0999 V2000
   -3.4915    2.5541   -2.9864 C   0  0  0  0  0  0  0  0  0  0  0  0
   -3.3435    1.2888   -2.1782 C   0  0  0  0  0  0  0  0  0  0  0  0
   -3.4172    0.1879   -2.7545 O   0  0  0  0  0  0  0  0  0  0  0  0
   -3.1306    1.3218   -0.8294 O   0  0  0  0  0  0  0  0  0  0  0  0
   -2.9709    0.1923    0.0247 C   0  0  2  0  0  0  0  0  0  0  0  0
   -4.0949   -0.7126    0.0086 C   0  0  0  0  0  0  0  0  0  0  0  0
   -4.3747   -1.9497    0.7049 C   0  0  0  0  0  0  0  0  0  0  0  0
   -5.0202   -0.3513   -0.7686 O   0  0  0  0  0  0  0  0  0  0  0  0
   -3.0352    0.8466    1.4366 C   0  0  0  0  0  0  0  0  0  0  0  0
   -1.6671    1.2901    1.7859 C   0  0  0  0  0  0  0  0  0  0  0  0
   -0.8692    0.9227    0.5647 C   0  0  1  0  0  0  0  0  0  0  0  0
    0.5664    0.6982    0.8025 C   0  0  2  0  0  0  0  0  0  0  0  0
    1.2720    2.0304    0.9922 C   0  0  0  0  0  0  0  0  0  0  0  0
    2.5786    2.0232    0.9256 C   0  0  0  0  0  0  0  0  0  0  0  0
    3.5104    3.4909    1.1275 Cl  0  0  0  0  0  0  0  0  0  0  0  0
    3.3027    0.7872    0.6753 C   0  0  0  0  0  0  0  0  0  0  0  0
    4.6033    0.7124    0.9129 C   0  0  0  0  0  0  0  0  0  0  0  0
    5.2605   -0.5617    0.6337 C   0  0  0  0  0  0  0  0  0  0  0  0
    6.1878   -0.9557    1.3651 O   0  0  0  0  0  0  0  0  0  0  0  0
    4.7957   -1.3511   -0.5250 C   0  0  2  0  0  0  0  0  0  0  0  0
    4.3678   -0.5405   -1.7905 C   0  0  0  0  0  0  0  0  0  0  0  0
    3.3841   -1.1588   -0.8990 C   0  0  2  0  0  0  0  0  0  0  0  0
    2.6218   -0.4370    0.1640 C   0  0  1  0  0  0  0  0  0  0  0  0
    2.5041   -1.4225    1.3358 C   0  0  0  0  0  0  0  0  0  0  0  0
    1.2699    0.0334   -0.3204 C   0  0  1  0  0  0  0  0  0  0  0  0
    0.4894   -1.0416   -1.0007 C   0  0  0  0  0  0  0  0  0  0  0  0
   -0.9483   -0.6075   -1.2615 C   0  0  0  0  0  0  0  0  0  0  0  0
   -1.5725   -0.3229    0.0609 C   0  0  2  0  0  0  0  0  0  0  0  0
   -1.4445   -1.4204    1.0498 C   0  0  0  0  0  0  0  0  0  0  0  0
   -3.6959    3.4225   -2.3128 H   0  0  0  0  0  0  0  0  0  0  0  0
   -2.5973    2.7744   -3.5707 H   0  0  0  0  0  0  0  0  0  0  0  0
   -4.3638    2.4649   -3.6554 H   0  0  0  0  0  0  0  0  0  0  0  0
   -3.6977   -2.7888    0.5999 H   0  0  0  0  0  0  0  0  0  0  0  0
   -5.3977   -2.3489    0.4175 H   0  0  0  0  0  0  0  0  0  0  0  0
   -4.5155   -1.7677    1.8147 H   0  0  0  0  0  0  0  0  0  0  0  0
   -3.7904    1.6585    1.4236 H   0  0  0  0  0  0  0  0  0  0  0  0
   -3.3914    0.1089    2.1728 H   0  0  0  0  0  0  0  0  0  0  0  0
   -1.6458    2.3818    1.9833 H   0  0  0  0  0  0  0  0  0  0  0  0
   -1.2443    0.7978    2.6895 H   0  0  0  0  0  0  0  0  0  0  0  0
   -1.0351    1.7177   -0.2192 H   0  0  0  0  0  0  0  0  0  0  0  0
    0.7222    0.1991    1.7830 H   0  0  0  0  0  0  0  0  0  0  0  0
    0.7066    2.9283    1.1722 H   0  0  0  0  0  0  0  0  0  0  0  0
    5.1523    1.5663    1.3070 H   0  0  0  0  0  0  0  0  0  0  0  0
    5.3237   -2.3034   -0.7231 H   0  0  0  0  0  0  0  0  0  0  0  0
    4.5345    0.5423   -1.7477 H   0  0  0  0  0  0  0  0  0  0  0  0
    4.5515   -1.0649   -2.7571 H   0  0  0  0  0  0  0  0  0  0  0  0
    2.8150   -2.0722   -1.2566 H   0  0  0  0  0  0  0  0  0  0  0  0
    1.7213   -2.1848    1.1666 H   0  0  0  0  0  0  0  0  0  0  0  0
    2.3257   -0.9159    2.2889 H   0  0  0  0  0  0  0  0  0  0  0  0
    3.4536   -2.0190    1.4171 H   0  0  0  0  0  0  0  0  0  0  0  0
    1.5205    0.8348   -1.0870 H   0  0  0  0  0  0  0  0  0  0  0  0
    0.9410   -1.2226   -1.9986 H   0  0  0  0  0  0  0  0  0  0  0  0
    0.5271   -2.0045   -0.4565 H   0  0  0  0  0  0  0  0  0  0  0  0
   -1.3894   -1.3717   -1.8772 H   0  0  0  0  0  0  0  0  0  0  0  0
   -0.8660    0.3361   -1.8322 H   0  0  0  0  0  0  0  0  0  0  0  0
   -1.3686   -2.4317    0.5697 H   0  0  0  0  0  0  0  0  0  0  0  0
   -2.1789   -1.4509    1.8500 H   0  0  0  0  0  0  0  0  0  0  0  0
   -0.4514   -1.3334    1.5821 H   0  0  0  0  0  0  0  0  0  0  0  0
  1  2  1  0
  2  3  2  0
  2  4  1  0
  5  4  1  6
  5  6  1  0
  6  7  1  0
  6  8  2  0
  5  9  1  0
  9 10  1  0
 10 11  1  0
 11 12  1  0
 12 13  1  0
 13 14  2  0
 14 15  1  0
 14 16  1  0
 16 17  2  0
 17 18  1  0
 18 19  2  0
 18 20  1  0
 20 21  1  0
 21 22  1  0
 22 23  1  0
 23 24  1  1
 23 25  1  0
 25 26  1  0
 26 27  1  0
 27 28  1  0
 28 29  1  1
 28  5  1  0
 28 11  1  0
 25 12  1  0
 23 16  1  0
 22 20  1  0
  1 30  1  0
  1 31  1  0
  1 32  1  0
  7 33  1  0
  7 34  1  0
  7 35  1  0
  9 36  1  0
  9 37  1  0
 10 38  1  0
 10 39  1  0
 11 40  1  6
 12 41  1  1
 13 42  1  0
 17 43  1  0
 20 44  1  6
 21 45  1  0
 21 46  1  0
 22 47  1  6
 24 48  1  0
 24 49  1  0
 24 50  1  0
 25 51  1  6
 26 52  1  0
 26 53  1  0
 27 54  1  0
 27 55  1  0
 29 56  1  0
 29 57  1  0
 29 58  1  0
M  END
$$$$
