@<TRIPOS>MOLECULE
*****
 56 58 0 0 0
SMALL
GASTEIGER

@<TRIPOS>ATOM
      1 C           4.0744    0.1292   -0.1350 C.3     1  UNL1        0.0870
      2 C           5.0795   -1.0319   -0.1108 C.3     1  UNL1        0.0259
      3 S           6.5119   -0.1117   -0.8124 S.3     1  UNL1       -0.0657
      4 C           5.9585    1.5137   -0.2245 C.2     1  UNL1        0.2724
      5 O           6.5468    2.5889   -0.4494 O.2     1  UNL1       -0.2630
      6 N           4.7465    1.2492    0.5171 N.am    1  UNL1       -0.2975
      7 C           2.8175   -0.2152    0.5814 C.3     1  UNL1        0.1903
      8 O           3.2040   -0.5578    1.9022 O.3     1  UNL1       -0.3630
      9 C           1.9055    0.9585    0.7174 C.3     1  UNL1        0.0403
     10 C           1.1306    1.2972   -0.5464 C.3     1  UNL1        0.1107
     11 C           1.0012    0.0161   -1.3432 C.3     1  UNL1        0.0110
     12 C           0.8856   -1.1129   -0.3385 C.3     1  UNL1        0.0654
     13 C           0.4162   -2.3918   -1.0163 C.3     1  UNL1       -0.0258
     14 C          -0.9576   -2.2846   -1.5453 C.3     1  UNL1       -0.0447
     15 C          -2.0611   -2.1822   -0.4791 C.3     1  UNL1       -0.0257
     16 C          -2.1903   -3.5308    0.1417 C.3     1  UNL1       -0.0590
     17 C          -3.2681   -1.8125   -1.2419 C.2     1  UNL1       -0.0851
     18 C          -3.9983   -0.7482   -0.9170 C.2     1  UNL1       -0.0874
     19 C          -3.7140    0.1537    0.2191 C.3     1  UNL1       -0.0311
     20 C          -3.2414    1.5127   -0.1601 C.3     1  UNL1       -0.0281
     21 C          -3.0975    2.4709    0.9555 C.2     1  UNL1       -0.0656
     22 C          -4.2787    2.9979    1.6601 C.3     1  UNL1       -0.0433
     23 C          -1.9006    2.8574    1.3232 C.2     1  UNL1        0.0215
     24 C          -0.5960    2.4782    0.8089 C.2     1  UNL1        0.3321
     25 O           0.4584    2.9542    1.2422 O.2     1  UNL1       -0.2456
     26 O          -0.1638    1.6184   -0.1408 O.3     1  UNL1       -0.4580
     27 O           2.1862   -1.3476    0.0934 O.3     1  UNL1       -0.3435
     28 H           3.9524    0.4441   -1.1872 H       1  UNL1        0.0560
     29 H           4.7399   -1.8075   -0.7893 H       1  UNL1        0.0401
     30 H           5.3072   -1.3202    0.9132 H       1  UNL1        0.0401
     31 H           4.5073    1.8430    1.3690 H       1  UNL1        0.1500
     32 H           4.0937   -0.2134    2.1248 H       1  UNL1        0.2128
     33 H           2.5193    1.8528    0.9385 H       1  UNL1        0.0354
     34 H           1.2164    0.7988    1.6003 H       1  UNL1        0.0354
     35 H           1.6157    2.1168   -1.1170 H       1  UNL1        0.0736
     36 H           0.0804    0.1195   -1.9557 H       1  UNL1        0.0326
     37 H           1.8117   -0.1643   -2.0513 H       1  UNL1        0.0326
     38 H           0.2757   -0.8489    0.5354 H       1  UNL1        0.0598
     39 H           1.1576   -2.6947   -1.7511 H       1  UNL1        0.0290
     40 H           0.4124   -3.1531   -0.2010 H       1  UNL1        0.0290
     41 H          -1.1296   -1.4893   -2.2715 H       1  UNL1        0.0272
     42 H          -1.1919   -3.2483   -2.0675 H       1  UNL1        0.0272
     43 H          -1.7607   -1.4076    0.2712 H       1  UNL1        0.0340
     44 H          -1.4662   -3.7235    0.9455 H       1  UNL1        0.0235
     45 H          -1.9582   -4.2987   -0.6534 H       1  UNL1        0.0235
     46 H          -3.2358   -3.7745    0.4350 H       1  UNL1        0.0235
     47 H          -3.5617   -2.4233   -2.0830 H       1  UNL1        0.0572
     48 H          -4.8680   -0.5427   -1.5493 H       1  UNL1        0.0569
     49 H          -3.1718   -0.3313    1.0415 H       1  UNL1        0.0310
     50 H          -4.7525    0.3288    0.6857 H       1  UNL1        0.0310
     51 H          -4.0414    1.9409   -0.8349 H       1  UNL1        0.0313
     52 H          -2.2955    1.4125   -0.6846 H       1  UNL1        0.0313
     53 H          -4.4840    2.5151    2.6367 H       1  UNL1        0.0274
     54 H          -5.1709    2.9180    0.9764 H       1  UNL1        0.0274
     55 H          -4.2175    4.0985    1.8726 H       1  UNL1        0.0274
     56 H          -1.8395    3.5836    2.1497 H       1  UNL1        0.0688
@<TRIPOS>BOND
     1     1     2    1
     2     2     3    1
     3     3     4    1
     4     4     5    2
     5     4     6   am
     6     1     7    1
     7     7     8    1
     8     7     9    1
     9     9    10    1
    10    10    11    1
    11    11    12    1
    12    12    13    1
    13    13    14    1
    14    14    15    1
    15    15    16    1
    16    15    17    1
    17    17    18    2
    18    18    19    1
    19    19    20    1
    20    20    21    1
    21    21    22    1
    22    21    23    2
    23    23    24    1
    24    24    25    2
    25    24    26    1
    26    12    27    1
    27     6     1    1
    28    27     7    1
    29    26    10    1
    30     1    28    1
    31     2    29    1
    32     2    30    1
    33     6    31    1
    34     8    32    1
    35     9    33    1
    36     9    34    1
    37    10    35    1
    38    11    36    1
    39    11    37    1
    40    12    38    1
    41    13    39    1
    42    13    40    1
    43    14    41    1
    44    14    42    1
    45    15    43    1
    46    16    44    1
    47    16    45    1
    48    16    46    1
    49    17    47    1
    50    18    48    1
    51    19    49    1
    52    19    50    1
    53    20    51    1
    54    20    52    1
    55    22    53    1
    56    22    54    1
    57    22    55    1
    58    23    56    1
