@<TRIPOS>MOLECULE
*****
 37 39 0 0 0
SMALL
GASTEIGER

@<TRIPOS>ATOM
      1 C          -3.8799   -2.9291   -0.0799 C.3     1  UNL1       -0.0200
      2 C          -2.9619   -1.7533    0.0784 C.ar    1  UNL1        0.0681
      3 N          -1.7296   -1.7344    0.6150 N.ar    1  UNL1       -0.1705
      4 N          -1.2107   -0.5212    0.5904 N.ar    1  UNL1       -0.2304
      5 C           0.0830   -0.1179    1.0740 C.ar    1  UNL1        0.0844
      6 C           0.2609    0.4199    2.3317 C.ar    1  UNL1        0.0530
      7 N           1.4667    0.7985    2.7894 N.ar    1  UNL1       -0.2608
      8 C           2.5761    0.6641    2.0179 C.ar    1  UNL1        0.0339
      9 C           2.4421    0.1314    0.7549 C.ar    1  UNL1        0.0123
     10 C           3.6272   -0.0328   -0.1340 C.3     1  UNL1        0.1843
     11 C           3.2152   -0.7005   -1.4334 C.3     1  UNL1       -0.0232
     12 O           4.5711   -0.8358    0.4759 O.3     1  UNL1       -0.3757
     13 C           4.2705    1.3121   -0.4441 C.3     1  UNL1        0.4222
     14 F           3.3978    2.1682   -1.0751 F       1  UNL1       -0.1673
     15 F           4.7784    1.8492    0.6988 F       1  UNL1       -0.1673
     16 F           5.3435    1.0140   -1.2954 F       1  UNL1       -0.1673
     17 C           1.1943   -0.2613    0.2793 C.ar    1  UNL1       -0.0271
     18 C          -2.1336    0.2727    0.0206 C.ar    1  UNL1        0.0749
     19 C          -2.0818    1.6245   -0.2375 C.ar    1  UNL1       -0.0356
     20 C          -3.1633    2.2163   -0.8348 C.ar    1  UNL1       -0.0597
     21 C          -4.2785    1.4769   -1.1703 C.ar    1  UNL1       -0.0610
     22 C          -4.3537    0.1216   -0.9217 C.ar    1  UNL1       -0.0508
     23 C          -3.2550   -0.4585   -0.3192 C.ar    1  UNL1        0.0231
     24 H          -3.3523   -3.8384    0.2635 H       1  UNL1        0.0293
     25 H          -4.0831   -3.0428   -1.1518 H       1  UNL1        0.0293
     26 H          -4.7955   -2.8137    0.5327 H       1  UNL1        0.0293
     27 H          -0.6050    0.5381    2.9667 H       1  UNL1        0.0851
     28 H           3.5494    0.9635    2.3812 H       1  UNL1        0.0833
     29 H           4.1573   -0.8697   -2.0011 H       1  UNL1        0.0263
     30 H           2.5197   -0.0619   -2.0035 H       1  UNL1        0.0263
     31 H           2.7856   -1.6789   -1.1818 H       1  UNL1        0.0263
     32 H           5.2133   -0.2405    0.9479 H       1  UNL1        0.2110
     33 H           1.0789   -0.6798   -0.7087 H       1  UNL1        0.0643
     34 H          -1.1973    2.1893    0.0331 H       1  UNL1        0.0639
     35 H          -3.1017    3.2934   -1.0316 H       1  UNL1        0.0618
     36 H          -5.1235    1.9864   -1.6468 H       1  UNL1        0.0618
     37 H          -5.2244   -0.4697   -1.1806 H       1  UNL1        0.0625
@<TRIPOS>BOND
     1     1     2    1
     2     2     3   ar
     3     3     4   ar
     4     4     5    1
     5     5     6   ar
     6     6     7   ar
     7     7     8   ar
     8     8     9   ar
     9     9    10    1
    10    10    11    1
    11    10    12    1
    12    10    13    1
    13    13    14    1
    14    13    15    1
    15    13    16    1
    16     9    17   ar
    17     4    18   ar
    18    18    19   ar
    19    19    20   ar
    20    20    21   ar
    21    21    22   ar
    22    22    23   ar
    23    23     2   ar
    24    17     5   ar
    25    23    18   ar
    26     1    24    1
    27     1    25    1
    28     1    26    1
    29     6    27    1
    30     8    28    1
    31    11    29    1
    32    11    30    1
    33    11    31    1
    34    12    32    1
    35    17    33    1
    36    19    34    1
    37    20    35    1
    38    21    36    1
    39    22    37    1
