@<TRIPOS>MOLECULE
*****
 42 45 0 0 0
SMALL
GASTEIGER

@<TRIPOS>ATOM
      1 C          -5.2674   -2.0484   -1.0629 C.3     1  UNL1        0.0788
      2 O          -4.5273   -1.5183   -2.1654 O.3     1  UNL1       -0.4951
      3 C          -3.4186   -0.6921   -1.9319 C.ar    1  UNL1        0.1201
      4 C          -3.0132   -0.3683   -0.6609 C.ar    1  UNL1       -0.0193
      5 C          -1.9114    0.4540   -0.4419 C.ar    1  UNL1       -0.0490
      6 C          -1.1824    0.9760   -1.4870 C.ar    1  UNL1        0.0027
      7 C          -0.0355    1.8263   -1.1918 C.ar    1  UNL1        0.0982
      8 N           0.1662    3.1133   -1.4819 N.ar    1  UNL1       -0.2351
      9 C           1.3696    3.4897   -1.0221 C.ar    1  UNL1        0.0973
     10 N           1.9682    2.4261   -0.4177 N.ar    1  UNL1       -0.3229
     11 C           3.2707    2.4069    0.2072 C.3     1  UNL1        0.0852
     12 C           3.1703    2.7651    1.6708 C.3     1  UNL1        0.2569
     13 F           4.4689    2.7219    2.1943 F       1  UNL1       -0.2073
     14 F           2.7388    4.0649    1.8470 F       1  UNL1       -0.2073
     15 C           1.1069    1.3995   -0.5194 C.ar    1  UNL1        0.0968
     16 C           1.3640    0.0675    0.0104 C.ar    1  UNL1        0.1103
     17 C           2.1723   -0.8394   -0.6862 C.ar    1  UNL1       -0.0290
     18 C           2.4110   -2.0964   -0.1725 C.ar    1  UNL1       -0.0153
     19 C           1.8534   -2.4735    1.0374 C.ar    1  UNL1        0.1555
     20 N           1.8946   -3.6018    1.7874 N.ar    1  UNL1       -0.2333
     21 C           1.1558   -3.4271    2.8990 C.ar    1  UNL1        0.0659
     22 C           0.6544   -2.1594    2.8189 C.ar    1  UNL1        0.1618
     23 C          -0.2095   -1.5822    3.8402 C.1     1  UNL1        0.1208
     24 N          -0.9044   -1.1201    4.6364 N.1     1  UNL1       -0.1892
     25 N           1.0690   -1.5663    1.6936 N.ar    1  UNL1       -0.2023
     26 N           0.8660   -0.3657    1.1612 N.ar    1  UNL1       -0.1623
     27 C          -1.5910    0.6494   -2.7582 C.ar    1  UNL1       -0.0490
     28 C          -2.6968   -0.1757   -2.9897 C.ar    1  UNL1       -0.0193
     29 H          -4.5714   -2.4840   -0.2954 H       1  UNL1        0.0660
     30 H          -5.9779   -2.8272   -1.4041 H       1  UNL1        0.0660
     31 H          -5.8266   -1.2379   -0.5535 H       1  UNL1        0.0660
     32 H          -3.5779   -0.7727    0.1886 H       1  UNL1        0.0654
     33 H          -1.6416    0.6782    0.5793 H       1  UNL1        0.0625
     34 H           1.8299    4.4634   -1.0947 H       1  UNL1        0.1029
     35 H           3.8278    1.4934    0.0206 H       1  UNL1        0.0548
     36 H           3.8647    3.2424   -0.2657 H       1  UNL1        0.0548
     37 H           2.5354    2.0415    2.2220 H       1  UNL1        0.1037
     38 H           2.6269   -0.5946   -1.6282 H       1  UNL1        0.0641
     39 H           3.0274   -2.8103   -0.6892 H       1  UNL1        0.0655
     40 H           0.9927   -4.1339    3.6854 H       1  UNL1        0.0859
     41 H          -1.0313    1.0506   -3.5897 H       1  UNL1        0.0625
     42 H          -3.0209   -0.4348   -3.9900 H       1  UNL1        0.0654
@<TRIPOS>BOND
     1     1     2    1
     2     2     3    1
     3     3     4   ar
     4     4     5   ar
     5     5     6   ar
     6     6     7    1
     7     7     8   ar
     8     8     9   ar
     9     9    10   ar
    10    10    11    1
    11    11    12    1
    12    12    13    1
    13    12    14    1
    14    10    15   ar
    15    15    16    1
    16    16    17   ar
    17    17    18   ar
    18    18    19   ar
    19    19    20   ar
    20    20    21   ar
    21    21    22   ar
    22    22    23    1
    23    23    24    3
    24    22    25   ar
    25    25    26   ar
    26     6    27   ar
    27    27    28   ar
    28    28     3   ar
    29    15     7   ar
    30    26    16   ar
    31    25    19   ar
    32     1    29    1
    33     1    30    1
    34     1    31    1
    35     4    32    1
    36     5    33    1
    37     9    34    1
    38    11    35    1
    39    11    36    1
    40    12    37    1
    41    17    38    1
    42    18    39    1
    43    21    40    1
    44    27    41    1
    45    28    42    1
