
     RDKit          3D

 42 45  0  0  0  0  0  0  0  0999 V2000
   -5.2674   -2.0484   -1.0629 C   0  0  0  0  0  0  0  0  0  0  0  0
   -4.5273   -1.5183   -2.1654 O   0  0  0  0  0  0  0  0  0  0  0  0
   -3.4186   -0.6921   -1.9319 C   0  0  0  0  0  0  0  0  0  0  0  0
   -3.0132   -0.3683   -0.6609 C   0  0  0  0  0  0  0  0  0  0  0  0
   -1.9114    0.4540   -0.4419 C   0  0  0  0  0  0  0  0  0  0  0  0
   -1.1824    0.9760   -1.4870 C   0  0  0  0  0  0  0  0  0  0  0  0
   -0.0355    1.8263   -1.1918 C   0  0  0  0  0  0  0  0  0  0  0  0
    0.1662    3.1133   -1.4819 N   0  0  0  0  0  0  0  0  0  0  0  0
    1.3696    3.4897   -1.0221 C   0  0  0  0  0  0  0  0  0  0  0  0
    1.9682    2.4261   -0.4177 N   0  0  0  0  0  0  0  0  0  0  0  0
    3.2707    2.4069    0.2072 C   0  0  0  0  0  0  0  0  0  0  0  0
    3.1703    2.7651    1.6708 C   0  0  0  0  0  0  0  0  0  0  0  0
    4.4689    2.7219    2.1943 F   0  0  0  0  0  0  0  0  0  0  0  0
    2.7388    4.0649    1.8470 F   0  0  0  0  0  0  0  0  0  0  0  0
    1.1069    1.3995   -0.5194 C   0  0  0  0  0  0  0  0  0  0  0  0
    1.3640    0.0675    0.0104 C   0  0  0  0  0  0  0  0  0  0  0  0
    2.1723   -0.8394   -0.6862 C   0  0  0  0  0  0  0  0  0  0  0  0
    2.4110   -2.0964   -0.1725 C   0  0  0  0  0  0  0  0  0  0  0  0
    1.8534   -2.4735    1.0374 C   0  0  0  0  0  0  0  0  0  0  0  0
    1.8946   -3.6018    1.7874 N   0  0  0  0  0  0  0  0  0  0  0  0
    1.1558   -3.4271    2.8990 C   0  0  0  0  0  0  0  0  0  0  0  0
    0.6544   -2.1594    2.8189 C   0  0  0  0  0  0  0  0  0  0  0  0
   -0.2095   -1.5822    3.8402 C   0  0  0  0  0  0  0  0  0  0  0  0
   -0.9044   -1.1201    4.6364 N   0  0  0  0  0  0  0  0  0  0  0  0
    1.0690   -1.5663    1.6936 N   0  0  0  0  0  0  0  0  0  0  0  0
    0.8660   -0.3657    1.1612 N   0  0  0  0  0  0  0  0  0  0  0  0
   -1.5910    0.6494   -2.7582 C   0  0  0  0  0  0  0  0  0  0  0  0
   -2.6968   -0.1757   -2.9897 C   0  0  0  0  0  0  0  0  0  0  0  0
   -4.5714   -2.4840   -0.2954 H   0  0  0  0  0  0  0  0  0  0  0  0
   -5.9779   -2.8272   -1.4041 H   0  0  0  0  0  0  0  0  0  0  0  0
   -5.8266   -1.2379   -0.5535 H   0  0  0  0  0  0  0  0  0  0  0  0
   -3.5779   -0.7727    0.1886 H   0  0  0  0  0  0  0  0  0  0  0  0
   -1.6416    0.6782    0.5793 H   0  0  0  0  0  0  0  0  0  0  0  0
    1.8299    4.4634   -1.0947 H   0  0  0  0  0  0  0  0  0  0  0  0
    3.8278    1.4934    0.0206 H   0  0  0  0  0  0  0  0  0  0  0  0
    3.8647    3.2424   -0.2657 H   0  0  0  0  0  0  0  0  0  0  0  0
    2.5354    2.0415    2.2220 H   0  0  0  0  0  0  0  0  0  0  0  0
    2.6269   -0.5946   -1.6282 H   0  0  0  0  0  0  0  0  0  0  0  0
    3.0274   -2.8103   -0.6892 H   0  0  0  0  0  0  0  0  0  0  0  0
    0.9927   -4.1339    3.6854 H   0  0  0  0  0  0  0  0  0  0  0  0
   -1.0313    1.0506   -3.5897 H   0  0  0  0  0  0  0  0  0  0  0  0
   -3.0209   -0.4348   -3.9900 H   0  0  0  0  0  0  0  0  0  0  0  0
  1  2  1  0
  2  3  1  0
  3  4  2  0
  4  5  1  0
  5  6  2  0
  6  7  1  0
  7  8  1  0
  8  9  2  0
  9 10  1  0
 10 11  1  0
 11 12  1  0
 12 13  1  0
 12 14  1  0
 10 15  1  0
 15 16  1  0
 16 17  1  0
 17 18  2  0
 18 19  1  0
 19 20  2  0
 20 21  1  0
 21 22  2  0
 22 23  1  0
 23 24  3  0
 22 25  1  0
 25 26  1  0
  6 27  1  0
 27 28  2  0
 28  3  1  0
 15  7  2  0
 26 16  2  0
 25 19  1  0
  1 29  1  0
  1 30  1  0
  1 31  1  0
  4 32  1  0
  5 33  1  0
  9 34  1  0
 11 35  1  0
 11 36  1  0
 12 37  1  0
 17 38  1  0
 18 39  1  0
 21 40  1  0
 27 41  1  0
 28 42  1  0
M  END
$$$$
