@<TRIPOS>MOLECULE
*****
 127 129 0 0 0
SMALL
GASTEIGER

@<TRIPOS>ATOM
      1 C          -2.9985    2.8504    0.5896 C.3     1  UNL1        0.0371
      2 O          -3.0065    2.2024   -0.6445 O.3     1  UNL1       -0.3735
      3 C          -3.4188    0.8974   -0.5674 C.3     1  UNL1        0.1220
      4 C          -4.7435    0.7770   -1.2457 C.3     1  UNL1        0.1415
      5 C          -5.7584    1.5189   -0.4243 C.3     1  UNL1        0.0845
      6 C          -7.1473    1.2360   -0.9000 C.2     1  UNL1        0.3110
      7 O          -7.4936    0.7625   -2.0104 O.2     1  UNL1       -0.2507
      8 O          -8.2457    1.4773   -0.0861 O.3     1  UNL1       -0.4612
      9 C          -9.5622    1.1746   -0.4893 C.3     1  UNL1        0.1037
     10 C         -10.3760    2.4620   -0.6545 C.3     1  UNL1       -0.0274
     11 C         -10.2913    0.3747    0.5587 C.3     1  UNL1        0.0026
     12 C          -9.6373   -0.9280    0.9058 C.2     1  UNL1       -0.0805
     13 C          -8.6348   -1.7086    0.6447 C.2     1  UNL1       -0.0658
     14 C          -7.5681   -2.6594    0.4462 C.2     1  UNL1       -0.0636
     15 C          -6.5266   -2.6585   -0.3633 C.2     1  UNL1       -0.0557
     16 C          -5.3410   -3.4057   -0.7842 C.3     1  UNL1        0.0762
     17 O          -5.6228   -4.8046   -0.8096 O.3     1  UNL1       -0.3875
     18 C          -4.1344   -3.2768    0.0931 C.3     1  UNL1       -0.0138
     19 C          -4.5703   -3.7075    1.5117 C.3     1  UNL1       -0.0598
     20 C          -3.4559   -1.9670    0.2019 C.3     1  UNL1       -0.0422
     21 C          -2.8920   -1.4434   -1.0557 C.3     1  UNL1       -0.0053
     22 C          -1.9691   -2.4836   -1.6324 C.3     1  UNL1        0.0081
     23 C          -0.8582   -2.9030   -0.7541 C.2     1  UNL1        0.1207
     24 O          -0.0365   -3.7500   -1.1014 O.2     1  UNL1       -0.3010
     25 C          -2.3502   -0.0361   -1.0450 C.3     1  UNL1        0.0945
     26 O          -1.2857    0.2374   -0.2533 O.3     1  UNL1       -0.3425
     27 C          -0.1227    0.6734   -0.7789 C.3     1  UNL1        0.1873
     28 O           0.8351   -0.3132   -0.5841 O.3     1  UNL1       -0.3431
     29 C           1.3546   -0.3657    0.6689 C.3     1  UNL1        0.0867
     30 C           0.4001   -0.6420    1.7948 C.3     1  UNL1       -0.0361
     31 C           2.1980    0.8403    0.9006 C.3     1  UNL1        0.1055
     32 O           3.4201    0.6233    0.2672 O.3     1  UNL1       -0.3438
     33 C           4.4760    0.6402    1.1771 C.3     1  UNL1        0.1629
     34 C           5.0871   -0.7171    1.1986 C.3     1  UNL1        0.0306
     35 C           6.4255   -0.5869    1.9395 C.3     1  UNL1        0.1070
     36 C           6.2346   -0.0549    3.3439 C.3     1  UNL1       -0.0323
     37 O           7.0393   -1.8517    2.0308 O.3     1  UNL1       -0.3849
     38 C           7.2776    0.2852    1.0904 C.3     1  UNL1        0.1571
     39 O           8.0449   -0.5262    0.2227 O.3     1  UNL1       -0.4558
     40 C           9.4347   -0.5401    0.2052 C.2     1  UNL1        0.3078
     41 O          10.0257    0.2296    1.0237 O.2     1  UNL1       -0.2508
     42 C          10.1378   -1.4349   -0.7498 C.3     1  UNL1        0.0473
     43 C          11.6319   -1.2053   -0.5646 C.3     1  UNL1       -0.0367
     44 C          12.3993   -2.0981   -1.5186 C.3     1  UNL1       -0.0622
     45 C          12.0635   -1.3704    0.8635 C.3     1  UNL1       -0.0622
     46 C           6.5163    1.2676    0.2546 C.3     1  UNL1        0.0984
     47 C           7.3982    2.4712    0.0252 C.3     1  UNL1       -0.0350
     48 O           5.3056    1.6458    0.7528 O.3     1  UNL1       -0.3445
     49 C           1.5802    2.1286    0.4291 C.3     1  UNL1        0.0695
     50 C           0.4378    2.0062   -0.5061 C.3     1  UNL1        0.1238
     51 O           0.9252    2.5492   -1.7430 O.3     1  UNL1       -0.3851
     52 N           1.1822    2.9704    1.5692 N.3     1  UNL1       -0.3006
     53 C           0.6758    4.2084    1.0098 C.3     1  UNL1       -0.0126
     54 C           2.3089    3.2902    2.4112 C.3     1  UNL1       -0.0126
     55 O          -4.7501    1.2311   -2.5705 O.3     1  UNL1       -0.4583
     56 C          -5.1330    0.4126   -3.5990 C.2     1  UNL1        0.3043
     57 C          -5.1257    0.9357   -4.9891 C.3     1  UNL1        0.0332
     58 O          -5.5389   -0.7933   -3.7498 O.2     1  UNL1       -0.2512
     59 H          -2.6743    3.9078    0.5008 H       1  UNL1        0.0524
     60 H          -3.9001    2.7176    1.1966 H       1  UNL1        0.0524
     61 H          -2.1765    2.3786    1.2122 H       1  UNL1        0.0524
     62 H          -3.6095    0.7404    0.5506 H       1  UNL1        0.0659
     63 H          -5.1172   -0.2645   -1.2800 H       1  UNL1        0.0766
     64 H          -5.5660    2.6303   -0.4580 H       1  UNL1        0.0415
     65 H          -5.6571    1.2171    0.6348 H       1  UNL1        0.0415
     66 H          -9.5477    0.6983   -1.4830 H       1  UNL1        0.0734
     67 H          -9.7738    3.2769   -1.0812 H       1  UNL1        0.0265
     68 H         -10.8352    2.7608    0.3087 H       1  UNL1        0.0265
     69 H         -11.2005    2.2252   -1.3562 H       1  UNL1        0.0265
     70 H         -11.2982    0.1722    0.1546 H       1  UNL1        0.0343
     71 H         -10.4200    0.9824    1.4822 H       1  UNL1        0.0343
     72 H         -10.3083   -1.3601    1.7022 H       1  UNL1        0.0573
     73 H          -8.3564   -1.0058   -0.1421 H       1  UNL1        0.0614
     74 H          -8.1069   -3.2149    1.2319 H       1  UNL1        0.0615
     75 H          -6.6931   -1.7406   -0.9012 H       1  UNL1        0.0598
     76 H          -5.0939   -3.1903   -1.8573 H       1  UNL1        0.0640
     77 H          -6.5908   -4.8838   -0.8194 H       1  UNL1        0.2102
     78 H          -3.4417   -4.0915   -0.2763 H       1  UNL1        0.0326
     79 H          -5.4083   -4.4217    1.4354 H       1  UNL1        0.0233
     80 H          -4.9711   -2.8108    2.0233 H       1  UNL1        0.0233
     81 H          -3.7083   -4.0612    2.0966 H       1  UNL1        0.0233
     82 H          -4.1913   -1.2784    0.6910 H       1  UNL1        0.0272
     83 H          -2.6472   -2.0841    0.9668 H       1  UNL1        0.0272
     84 H          -3.7281   -1.4203   -1.8233 H       1  UNL1        0.0331
     85 H          -1.5276   -2.1479   -2.6055 H       1  UNL1        0.0342
     86 H          -2.5217   -3.4025   -1.9131 H       1  UNL1        0.0342
     87 H          -0.0576   -3.1822   -0.0784 H       1  UNL1        0.1026
     88 H          -2.1813    0.1942   -2.1282 H       1  UNL1        0.0627
     89 H          -0.3027    0.6459   -1.9042 H       1  UNL1        0.0937
     90 H           2.0521   -1.2568    0.6623 H       1  UNL1        0.0620
     91 H          -0.5207   -1.1180    1.4801 H       1  UNL1        0.0255
     92 H           0.8865   -1.2534    2.5860 H       1  UNL1        0.0255
     93 H           0.1899    0.3523    2.2811 H       1  UNL1        0.0255
     94 H           2.3912    0.9502    2.0043 H       1  UNL1        0.0639
     95 H           4.0379    0.8199    2.1799 H       1  UNL1        0.0911
     96 H           4.4589   -1.3669    1.8462 H       1  UNL1        0.0343
     97 H           5.3187   -1.1295    0.2134 H       1  UNL1        0.0343
     98 H           5.8295    0.9637    3.3520 H       1  UNL1        0.0258
     99 H           5.5095   -0.7105    3.8654 H       1  UNL1        0.0258
    100 H           7.2139   -0.1263    3.8360 H       1  UNL1        0.0258
    101 H           7.5647   -1.9426    2.8756 H       1  UNL1        0.2103
    102 H           7.9635    0.8716    1.7502 H       1  UNL1        0.0789
    103 H           9.9358   -2.5047   -0.4894 H       1  UNL1        0.0380
    104 H           9.8146   -1.2281   -1.7741 H       1  UNL1        0.0380
    105 H          11.8793   -0.1607   -0.8769 H       1  UNL1        0.0301
    106 H          13.4761   -1.9545   -1.3257 H       1  UNL1        0.0232
    107 H          12.1145   -3.1585   -1.3922 H       1  UNL1        0.0232
    108 H          12.1519   -1.7260   -2.5550 H       1  UNL1        0.0232
    109 H          12.2787   -0.3769    1.3304 H       1  UNL1        0.0232
    110 H          12.9837   -2.0104    0.8600 H       1  UNL1        0.0232
    111 H          11.2387   -1.8461    1.4412 H       1  UNL1        0.0232
    112 H           6.3353    0.7950   -0.7331 H       1  UNL1        0.0632
    113 H           7.7298    2.5748   -1.0290 H       1  UNL1        0.0256
    114 H           6.8831    3.4164    0.2841 H       1  UNL1        0.0256
    115 H           8.3467    2.4169    0.6245 H       1  UNL1        0.0256
    116 H           2.4308    2.7188   -0.0142 H       1  UNL1        0.0516
    117 H          -0.3306    2.7547   -0.2354 H       1  UNL1        0.0661
    118 H           1.2920    1.7855   -2.2874 H       1  UNL1        0.2101
    119 H           1.1919    5.0995    1.4819 H       1  UNL1        0.0391
    120 H           0.9154    4.3357   -0.0760 H       1  UNL1        0.0391
    121 H          -0.4103    4.3262    1.1140 H       1  UNL1        0.0391
    122 H           2.3335    2.5841    3.2639 H       1  UNL1        0.0391
    123 H           3.2717    3.3739    1.8777 H       1  UNL1        0.0391
    124 H           2.1303    4.2954    2.8823 H       1  UNL1        0.0391
    125 H          -6.1799    0.9702   -5.3345 H       1  UNL1        0.0342
    126 H          -4.5201    0.3266   -5.6897 H       1  UNL1        0.0342
    127 H          -4.7973    2.0038   -4.9883 H       1  UNL1        0.0342
@<TRIPOS>BOND
     1     1     2    1
     2     2     3    1
     3     3     4    1
     4     4     5    1
     5     5     6    1
     6     6     7    2
     7     6     8    1
     8     8     9    1
     9     9    10    1
    10     9    11    1
    11    11    12    1
    12    12    13    2
    13    13    14    1
    14    14    15    2
    15    15    16    1
    16    16    17    1
    17    16    18    1
    18    18    19    1
    19    18    20    1
    20    20    21    1
    21    21    22    1
    22    22    23    1
    23    23    24    2
    24    21    25    1
    25    25    26    1
    26    26    27    1
    27    27    28    1
    28    28    29    1
    29    29    30    1
    30    29    31    1
    31    31    32    1
    32    32    33    1
    33    33    34    1
    34    34    35    1
    35    35    36    1
    36    35    37    1
    37    35    38    1
    38    38    39    1
    39    39    40    1
    40    40    41    2
    41    40    42    1
    42    42    43    1
    43    43    44    1
    44    43    45    1
    45    38    46    1
    46    46    47    1
    47    46    48    1
    48    31    49    1
    49    49    50    1
    50    50    51    1
    51    49    52    1
    52    52    53    1
    53    52    54    1
    54     4    55    1
    55    55    56    1
    56    56    57    1
    57    56    58    2
    58    25     3    1
    59    50    27    1
    60    48    33    1
    61     1    59    1
    62     1    60    1
    63     1    61    1
    64     3    62    1
    65     4    63    1
    66     5    64    1
    67     5    65    1
    68     9    66    1
    69    10    67    1
    70    10    68    1
    71    10    69    1
    72    11    70    1
    73    11    71    1
    74    12    72    1
    75    13    73    1
    76    14    74    1
    77    15    75    1
    78    16    76    1
    79    17    77    1
    80    18    78    1
    81    19    79    1
    82    19    80    1
    83    19    81    1
    84    20    82    1
    85    20    83    1
    86    21    84    1
    87    22    85    1
    88    22    86    1
    89    23    87    1
    90    25    88    1
    91    27    89    1
    92    29    90    1
    93    30    91    1
    94    30    92    1
    95    30    93    1
    96    31    94    1
    97    33    95    1
    98    34    96    1
    99    34    97    1
   100    36    98    1
   101    36    99    1
   102    36   100    1
   103    37   101    1
   104    38   102    1
   105    42   103    1
   106    42   104    1
   107    43   105    1
   108    44   106    1
   109    44   107    1
   110    44   108    1
   111    45   109    1
   112    45   110    1
   113    45   111    1
   114    46   112    1
   115    47   113    1
   116    47   114    1
   117    47   115    1
   118    49   116    1
   119    50   117    1
   120    51   118    1
   121    53   119    1
   122    53   120    1
   123    53   121    1
   124    54   122    1
   125    54   123    1
   126    54   124    1
   127    57   125    1
   128    57   126    1
   129    57   127    1
