
     RDKit          3D

 76 80  0  0  0  0  0  0  0  0999 V2000
    5.8374    2.3091    2.7397 C   0  0  0  0  0  0  0  0  0  0  0  0
    5.6429    1.0255    2.0233 C   0  0  1  0  0  0  0  0  0  0  0  0
    4.4769    0.9544    1.1737 N   0  0  0  0  0  0  0  0  0  0  0  0
    3.5439   -0.1093    1.2173 C   0  0  0  0  0  0  0  0  0  0  0  0
    3.8051   -1.0246    2.0746 O   0  0  0  0  0  0  0  0  0  0  0  0
    2.3548   -0.2336    0.3917 C   0  0  0  0  0  0  0  0  0  0  0  0
    1.0788   -0.2220    0.9828 C   0  0  0  0  0  0  0  0  0  0  0  0
   -0.0868   -0.3297    0.2617 C   0  0  0  0  0  0  0  0  0  0  0  0
   -1.3952   -0.3204    0.9144 C   0  0  0  0  0  0  0  0  0  0  0  0
   -1.4757   -0.1734    2.1821 O   0  0  0  0  0  0  0  0  0  0  0  0
   -2.6141   -0.4649    0.2482 N   0  0  0  0  0  0  0  0  0  0  0  0
   -3.9174   -0.4556    0.9192 C   0  0  1  0  0  0  0  0  0  0  0  0
   -4.8219    0.4506    0.1655 C   0  0  0  0  0  0  0  0  0  0  0  0
   -4.3755    1.8449    0.0610 C   0  0  0  0  0  0  0  0  0  0  0  0
   -3.6020    2.1694   -1.0395 C   0  0  0  0  0  0  0  0  0  0  0  0
   -3.1149    3.4553   -1.2420 C   0  0  0  0  0  0  0  0  0  0  0  0
   -3.4047    4.4227   -0.3362 C   0  0  0  0  0  0  0  0  0  0  0  0
   -4.1803    4.0923    0.7652 C   0  0  0  0  0  0  0  0  0  0  0  0
   -4.6644    2.8276    0.9727 C   0  0  0  0  0  0  0  0  0  0  0  0
   -4.4256   -1.8939    0.7129 C   0  0  2  0  0  0  0  0  0  0  0  0
   -4.5441   -2.1971   -0.6061 O   0  0  0  0  0  0  0  0  0  0  0  0
   -5.7075   -2.0816    1.4466 C   0  0  0  0  0  0  0  0  0  0  0  0
   -6.2336   -3.3978    1.4002 N   0  0  0  0  0  0  0  0  0  0  0  0
   -6.8087   -3.8554    0.1868 C   0  0  0  0  0  0  0  0  0  0  0  0
   -8.3315   -3.5112    0.0736 C   0  0  0  0  0  0  0  0  0  0  0  0
   -7.3533   -2.9318   -0.8452 C   0  0  0  0  0  0  0  0  0  0  0  0
    0.0583   -0.4538   -1.1140 C   0  0  0  0  0  0  0  0  0  0  0  0
    1.2691   -0.4692   -1.7241 C   0  0  0  0  0  0  0  0  0  0  0  0
    2.4473   -0.3580   -0.9608 C   0  0  0  0  0  0  0  0  0  0  0  0
    3.7519   -0.3932   -1.6471 C   0  0  0  0  0  0  0  0  0  0  0  0
    3.7173    0.2990   -2.9785 C   0  0  0  0  0  0  0  0  0  0  0  0
    2.4582    0.2294   -3.7432 C   0  0  0  0  0  0  0  0  0  0  0  0
    1.5093   -0.5866   -3.0861 O   0  0  0  0  0  0  0  0  0  0  0  0
    6.8853    0.6297    1.3431 C   0  0  0  0  0  0  0  0  0  0  0  0
    7.1097    1.0998    0.0622 C   0  0  0  0  0  0  0  0  0  0  0  0
    8.2516    0.7675   -0.6430 C   0  0  0  0  0  0  0  0  0  0  0  0
    9.2070   -0.0375   -0.1089 C   0  0  0  0  0  0  0  0  0  0  0  0
    9.0007   -0.5243    1.1859 C   0  0  0  0  0  0  0  0  0  0  0  0
    7.8538   -0.1895    1.8923 C   0  0  0  0  0  0  0  0  0  0  0  0
    4.8836    2.5698    3.2701 H   0  0  0  0  0  0  0  0  0  0  0  0
    6.1587    3.0956    2.0512 H   0  0  0  0  0  0  0  0  0  0  0  0
    6.5769    2.1638    3.5631 H   0  0  0  0  0  0  0  0  0  0  0  0
    5.4838    0.2172    2.8066 H   0  0  0  0  0  0  0  0  0  0  0  0
    4.2960    1.7257    0.4921 H   0  0  0  0  0  0  0  0  0  0  0  0
    1.0667   -0.1225    2.0469 H   0  0  0  0  0  0  0  0  0  0  0  0
   -2.6210   -0.5894   -0.7815 H   0  0  0  0  0  0  0  0  0  0  0  0
   -3.8565   -0.3152    1.9892 H   0  0  0  0  0  0  0  0  0  0  0  0
   -4.9877    0.0662   -0.8593 H   0  0  0  0  0  0  0  0  0  0  0  0
   -5.8553    0.4953    0.6210 H   0  0  0  0  0  0  0  0  0  0  0  0
   -3.3340    1.4505   -1.8024 H   0  0  0  0  0  0  0  0  0  0  0  0
   -2.5082    3.7229   -2.0998 H   0  0  0  0  0  0  0  0  0  0  0  0
   -3.0265    5.4463   -0.4807 H   0  0  0  0  0  0  0  0  0  0  0  0
   -4.4178    4.8538    1.4947 H   0  0  0  0  0  0  0  0  0  0  0  0
   -5.2738    2.5264    1.8180 H   0  0  0  0  0  0  0  0  0  0  0  0
   -3.6673   -2.5523    1.2120 H   0  0  0  0  0  0  0  0  0  0  0  0
   -3.6936   -2.2998   -1.0991 H   0  0  0  0  0  0  0  0  0  0  0  0
   -6.4967   -1.3453    1.1697 H   0  0  0  0  0  0  0  0  0  0  0  0
   -5.4987   -1.8588    2.5348 H   0  0  0  0  0  0  0  0  0  0  0  0
   -6.9011   -3.5341    2.2160 H   0  0  0  0  0  0  0  0  0  0  0  0
   -6.5736   -4.9112   -0.0894 H   0  0  0  0  0  0  0  0  0  0  0  0
   -8.9868   -4.3395   -0.2761 H   0  0  0  0  0  0  0  0  0  0  0  0
   -8.7631   -2.8687    0.8409 H   0  0  0  0  0  0  0  0  0  0  0  0
   -7.3337   -3.3568   -1.8860 H   0  0  0  0  0  0  0  0  0  0  0  0
   -7.1130   -1.8616   -0.8380 H   0  0  0  0  0  0  0  0  0  0  0  0
   -0.8390   -0.5381   -1.6988 H   0  0  0  0  0  0  0  0  0  0  0  0
    4.5941    0.0156   -1.0724 H   0  0  0  0  0  0  0  0  0  0  0  0
    3.9764   -1.4898   -1.8228 H   0  0  0  0  0  0  0  0  0  0  0  0
    3.9703    1.3878   -2.7857 H   0  0  0  0  0  0  0  0  0  0  0  0
    4.5513   -0.1555   -3.5948 H   0  0  0  0  0  0  0  0  0  0  0  0
    2.6527   -0.1367   -4.7800 H   0  0  0  0  0  0  0  0  0  0  0  0
    2.0081    1.2669   -3.7994 H   0  0  0  0  0  0  0  0  0  0  0  0
    6.4001    1.7524   -0.4522 H   0  0  0  0  0  0  0  0  0  0  0  0
    8.4144    1.1512   -1.6639 H   0  0  0  0  0  0  0  0  0  0  0  0
   10.0923   -0.2882   -0.6711 H   0  0  0  0  0  0  0  0  0  0  0  0
    9.7519   -1.1560    1.6015 H   0  0  0  0  0  0  0  0  0  0  0  0
    7.6679   -0.5507    2.8921 H   0  0  0  0  0  0  0  0  0  0  0  0
  1  2  1  0
  2  3  1  0
  3  4  1  0
  4  5  2  0
  4  6  1  0
  6  7  2  0
  7  8  1  0
  8  9  1  0
  9 10  2  0
  9 11  1  0
 11 12  1  0
 12 13  1  0
 13 14  1  0
 14 15  2  0
 15 16  1  0
 16 17  2  0
 17 18  1  0
 18 19  2  0
 12 20  1  0
 20 21  1  0
 20 22  1  0
 22 23  1  0
 23 24  1  0
 24 25  1  0
 25 26  1  0
  8 27  2  0
 27 28  1  0
 28 29  2  0
 29 30  1  0
 30 31  1  0
 31 32  1  0
 32 33  1  0
  2 34  1  0
 34 35  2  0
 35 36  1  0
 36 37  2  0
 37 38  1  0
 38 39  2  0
 29  6  1  0
 39 34  1  0
 19 14  1  0
 26 24  1  0
 33 28  1  0
  1 40  1  0
  1 41  1  0
  1 42  1  0
  2 43  1  1
  3 44  1  0
  7 45  1  0
 11 46  1  0
 12 47  1  1
 13 48  1  0
 13 49  1  0
 15 50  1  0
 16 51  1  0
 17 52  1  0
 18 53  1  0
 19 54  1  0
 20 55  1  1
 21 56  1  0
 22 57  1  0
 22 58  1  0
 23 59  1  0
 24 60  1  0
 25 61  1  0
 25 62  1  0
 26 63  1  0
 26 64  1  0
 27 65  1  0
 30 66  1  0
 30 67  1  0
 31 68  1  0
 31 69  1  0
 32 70  1  0
 32 71  1  0
 35 72  1  0
 36 73  1  0
 37 74  1  0
 38 75  1  0
 39 76  1  0
M  END
$$$$
