@<TRIPOS>MOLECULE
*****
 76 80 0 0 0
SMALL
GASTEIGER

@<TRIPOS>ATOM
      1 C           5.8374    2.3091    2.7397 C.3     1  UNL1       -0.0424
      2 C           5.6429    1.0255    2.0233 C.3     1  UNL1        0.0458
      3 N           4.4769    0.9544    1.1737 N.am    1  UNL1       -0.3048
      4 C           3.5439   -0.1093    1.2173 C.2     1  UNL1        0.2449
      5 O           3.8051   -1.0246    2.0746 O.2     1  UNL1       -0.2702
      6 C           2.3548   -0.2336    0.3917 C.ar    1  UNL1        0.0441
      7 C           1.0788   -0.2220    0.9828 C.ar    1  UNL1       -0.0370
      8 C          -0.0868   -0.3297    0.2617 C.ar    1  UNL1        0.0409
      9 C          -1.3952   -0.3204    0.9144 C.2     1  UNL1        0.2445
     10 O          -1.4757   -0.1734    2.1821 O.2     1  UNL1       -0.2702
     11 N          -2.6141   -0.4649    0.2482 N.am    1  UNL1       -0.3057
     12 C          -3.9174   -0.4556    0.9192 C.3     1  UNL1        0.0545
     13 C          -4.8219    0.4506    0.1655 C.3     1  UNL1       -0.0067
     14 C          -4.3755    1.8449    0.0610 C.ar    1  UNL1       -0.0455
     15 C          -3.6020    2.1694   -1.0395 C.ar    1  UNL1       -0.0585
     16 C          -3.1149    3.4553   -1.2420 C.ar    1  UNL1       -0.0615
     17 C          -3.4047    4.4227   -0.3362 C.ar    1  UNL1       -0.0617
     18 C          -4.1803    4.0923    0.7652 C.ar    1  UNL1       -0.0615
     19 C          -4.6644    2.8276    0.9727 C.ar    1  UNL1       -0.0585
     20 C          -4.4256   -1.8939    0.7129 C.3     1  UNL1        0.0862
     21 O          -4.5441   -2.1971   -0.6061 O.3     1  UNL1       -0.3887
     22 C          -5.7075   -2.0816    1.4466 C.3     1  UNL1        0.0240
     23 N          -6.2336   -3.3978    1.4002 N.3     1  UNL1       -0.3107
     24 C          -6.8087   -3.8554    0.1868 C.3     1  UNL1        0.0078
     25 C          -8.3315   -3.5112    0.0736 C.3     1  UNL1       -0.0361
     26 C          -7.3533   -2.9318   -0.8452 C.3     1  UNL1       -0.0361
     27 C           0.0583   -0.4538   -1.1140 C.ar    1  UNL1       -0.0075
     28 C           1.2691   -0.4692   -1.7241 C.ar    1  UNL1        0.1251
     29 C           2.4473   -0.3580   -0.9608 C.ar    1  UNL1        0.0065
     30 C           3.7519   -0.3932   -1.6471 C.3     1  UNL1       -0.0204
     31 C           3.7173    0.2990   -2.9785 C.3     1  UNL1       -0.0145
     32 C           2.4582    0.2294   -3.7432 C.3     1  UNL1        0.0899
     33 O           1.5093   -0.5866   -3.0861 O.3     1  UNL1       -0.4916
     34 C           6.8853    0.6297    1.3431 C.ar    1  UNL1       -0.0275
     35 C           7.1097    1.0998    0.0622 C.ar    1  UNL1       -0.0568
     36 C           8.2516    0.7675   -0.6430 C.ar    1  UNL1       -0.0614
     37 C           9.2070   -0.0375   -0.1089 C.ar    1  UNL1       -0.0617
     38 C           9.0007   -0.5243    1.1859 C.ar    1  UNL1       -0.0614
     39 C           7.8538   -0.1895    1.8923 C.ar    1  UNL1       -0.0568
     40 H           4.8836    2.5698    3.2701 H       1  UNL1        0.0251
     41 H           6.1587    3.0956    2.0512 H       1  UNL1        0.0251
     42 H           6.5769    2.1638    3.5631 H       1  UNL1        0.0251
     43 H           5.4838    0.2172    2.8066 H       1  UNL1        0.0545
     44 H           4.2960    1.7257    0.4921 H       1  UNL1        0.1496
     45 H           1.0667   -0.1225    2.0469 H       1  UNL1        0.0633
     46 H          -2.6210   -0.5894   -0.7815 H       1  UNL1        0.1494
     47 H          -3.8565   -0.3152    1.9892 H       1  UNL1        0.0527
     48 H          -4.9877    0.0662   -0.8593 H       1  UNL1        0.0332
     49 H          -5.8553    0.4953    0.6210 H       1  UNL1        0.0332
     50 H          -3.3340    1.4505   -1.8024 H       1  UNL1        0.0620
     51 H          -2.5082    3.7229   -2.0998 H       1  UNL1        0.0618
     52 H          -3.0265    5.4463   -0.4807 H       1  UNL1        0.0618
     53 H          -4.4178    4.8538    1.4947 H       1  UNL1        0.0618
     54 H          -5.2738    2.5264    1.8180 H       1  UNL1        0.0620
     55 H          -3.6673   -2.5523    1.2120 H       1  UNL1        0.0624
     56 H          -3.6936   -2.2998   -1.0991 H       1  UNL1        0.2099
     57 H          -6.4967   -1.3453    1.1697 H       1  UNL1        0.0450
     58 H          -5.4987   -1.8588    2.5348 H       1  UNL1        0.0450
     59 H          -6.9011   -3.5341    2.2160 H       1  UNL1        0.1223
     60 H          -6.5736   -4.9112   -0.0894 H       1  UNL1        0.0460
     61 H          -8.9868   -4.3395   -0.2761 H       1  UNL1        0.0281
     62 H          -8.7631   -2.8687    0.8409 H       1  UNL1        0.0281
     63 H          -7.3337   -3.3568   -1.8860 H       1  UNL1        0.0281
     64 H          -7.1130   -1.8616   -0.8380 H       1  UNL1        0.0281
     65 H          -0.8390   -0.5381   -1.6988 H       1  UNL1        0.0662
     66 H           4.5941    0.0156   -1.0724 H       1  UNL1        0.0316
     67 H           3.9764   -1.4898   -1.8228 H       1  UNL1        0.0316
     68 H           3.9703    1.3878   -2.7857 H       1  UNL1        0.0301
     69 H           4.5513   -0.1555   -3.5948 H       1  UNL1        0.0301
     70 H           2.6527   -0.1367   -4.7800 H       1  UNL1        0.0696
     71 H           2.0081    1.2669   -3.7994 H       1  UNL1        0.0696
     72 H           6.4001    1.7524   -0.4522 H       1  UNL1        0.0621
     73 H           8.4144    1.1512   -1.6639 H       1  UNL1        0.0618
     74 H          10.0923   -0.2882   -0.6711 H       1  UNL1        0.0618
     75 H           9.7519   -1.1560    1.6015 H       1  UNL1        0.0618
     76 H           7.6679   -0.5507    2.8921 H       1  UNL1        0.0621
@<TRIPOS>BOND
     1     1     2    1
     2     2     3    1
     3     3     4   am
     4     4     5    2
     5     4     6    1
     6     6     7   ar
     7     7     8   ar
     8     8     9    1
     9     9    10    2
    10     9    11   am
    11    11    12    1
    12    12    13    1
    13    13    14    1
    14    14    15   ar
    15    15    16   ar
    16    16    17   ar
    17    17    18   ar
    18    18    19   ar
    19    12    20    1
    20    20    21    1
    21    20    22    1
    22    22    23    1
    23    23    24    1
    24    24    25    1
    25    25    26    1
    26     8    27   ar
    27    27    28   ar
    28    28    29   ar
    29    29    30    1
    30    30    31    1
    31    31    32    1
    32    32    33    1
    33     2    34    1
    34    34    35   ar
    35    35    36   ar
    36    36    37   ar
    37    37    38   ar
    38    38    39   ar
    39    29     6   ar
    40    39    34   ar
    41    19    14   ar
    42    26    24    1
    43    33    28    1
    44     1    40    1
    45     1    41    1
    46     1    42    1
    47     2    43    1
    48     3    44    1
    49     7    45    1
    50    11    46    1
    51    12    47    1
    52    13    48    1
    53    13    49    1
    54    15    50    1
    55    16    51    1
    56    17    52    1
    57    18    53    1
    58    19    54    1
    59    20    55    1
    60    21    56    1
    61    22    57    1
    62    22    58    1
    63    23    59    1
    64    24    60    1
    65    25    61    1
    66    25    62    1
    67    26    63    1
    68    26    64    1
    69    27    65    1
    70    30    66    1
    71    30    67    1
    72    31    68    1
    73    31    69    1
    74    32    70    1
    75    32    71    1
    76    35    72    1
    77    36    73    1
    78    37    74    1
    79    38    75    1
    80    39    76    1
