@<TRIPOS>MOLECULE
*****
 47 51 0 0 0
SMALL
GASTEIGER

@<TRIPOS>ATOM
      1 O          -2.5103    2.3985   -3.0524 O.2     1  UNL1       -0.2656
      2 C          -1.9904    1.8082   -2.0850 C.ar    1  UNL1        0.2748
      3 N          -0.6530    1.8070   -1.9761 N.ar    1  UNL1       -0.3203
      4 C          -0.1090    1.1772   -0.9447 C.ar    1  UNL1        0.0516
      5 C           1.2801    1.1679   -0.8189 C.ar    1  UNL1       -0.0345
      6 C           1.9028    0.5342    0.2247 C.ar    1  UNL1       -0.0451
      7 C           3.3694    0.5464    0.3230 C.3     1  UNL1       -0.0236
      8 C           3.8949   -0.6605   -0.4178 C.3     1  UNL1       -0.0237
      9 C           5.3688   -0.7548   -0.3872 C.ar    1  UNL1       -0.0470
     10 C           6.0413   -1.4237    0.5991 C.ar    1  UNL1       -0.0586
     11 C           7.4314   -1.4929    0.5973 C.ar    1  UNL1       -0.0615
     12 C           8.1839   -0.8934   -0.3930 C.ar    1  UNL1       -0.0617
     13 C           7.5094   -0.2204   -1.3856 C.ar    1  UNL1       -0.0615
     14 C           6.1189   -0.1520   -1.3826 C.ar    1  UNL1       -0.0586
     15 C           1.1390   -0.1046    1.1655 C.ar    1  UNL1       -0.0578
     16 C          -0.2575   -0.1174    1.0739 C.ar    1  UNL1       -0.0503
     17 C          -0.8403    0.5332    0.0068 C.ar    1  UNL1        0.0260
     18 C          -2.2071    0.5137   -0.0720 C.ar    1  UNL1        0.1039
     19 N          -3.1890    0.0018    0.6523 N.ar    1  UNL1       -0.2269
     20 C          -4.3879    0.2896    0.1048 C.ar    1  UNL1        0.1408
     21 C          -5.6783   -0.1227    0.6482 C.ar    1  UNL1        0.0356
     22 C          -6.8562    0.2113    0.0302 C.ar    1  UNL1       -0.0497
     23 C          -8.0801   -0.1933    0.5669 C.ar    1  UNL1       -0.0610
     24 C          -8.1367   -0.9256    1.7108 C.ar    1  UNL1       -0.0603
     25 C          -6.9695   -1.2695    2.3433 C.ar    1  UNL1       -0.0427
     26 C          -5.7415   -0.8654    1.8079 C.ar    1  UNL1        0.0516
     27 CL         -4.2890   -1.3412    2.6702 Cl      1  UNL1       -0.0828
     28 N          -4.1163    1.0013   -0.9896 N.ar    1  UNL1       -0.3336
     29 C          -2.7898    1.1758   -1.1571 C.ar    1  UNL1        0.1322
     30 H          -0.0462    2.2815   -2.6716 H       1  UNL1        0.1690
     31 H           1.8971    1.6642   -1.5479 H       1  UNL1        0.0641
     32 H           3.6751    0.5481    1.3902 H       1  UNL1        0.0316
     33 H           3.8332    1.4374   -0.1365 H       1  UNL1        0.0316
     34 H           3.5189   -0.6209   -1.4499 H       1  UNL1        0.0316
     35 H           3.4088   -1.5520    0.0610 H       1  UNL1        0.0316
     36 H           5.4428   -1.8941    1.3769 H       1  UNL1        0.0620
     37 H           7.9457   -2.0233    1.3809 H       1  UNL1        0.0618
     38 H           9.2704   -0.9740   -0.3533 H       1  UNL1        0.0618
     39 H           8.1031    0.2486   -2.1607 H       1  UNL1        0.0618
     40 H           5.5963    0.3865   -2.1781 H       1  UNL1        0.0620
     41 H           1.5766   -0.6226    2.0129 H       1  UNL1        0.0620
     42 H          -0.8245   -0.6310    1.8340 H       1  UNL1        0.0625
     43 H          -6.8833    0.7909   -0.8809 H       1  UNL1        0.0625
     44 H          -9.0097    0.0677    0.0832 H       1  UNL1        0.0618
     45 H          -9.0694   -1.2506    2.1458 H       1  UNL1        0.0618
     46 H          -7.0251   -1.8554    3.2578 H       1  UNL1        0.0632
     47 H          -4.8478    1.3704   -1.6271 H       1  UNL1        0.1675
@<TRIPOS>BOND
     1     1     2    2
     2     2     3   ar
     3     3     4   ar
     4     4     5   ar
     5     5     6   ar
     6     6     7    1
     7     7     8    1
     8     8     9    1
     9     9    10   ar
    10    10    11   ar
    11    11    12   ar
    12    12    13   ar
    13    13    14   ar
    14     6    15   ar
    15    15    16   ar
    16    16    17   ar
    17    17    18   ar
    18    18    19   ar
    19    19    20   ar
    20    20    21    1
    21    21    22   ar
    22    22    23   ar
    23    23    24   ar
    24    24    25   ar
    25    25    26   ar
    26    26    27    1
    27    20    28   ar
    28    28    29   ar
    29    29     2   ar
    30    17     4   ar
    31    29    18   ar
    32    14     9   ar
    33    26    21   ar
    34     3    30    1
    35     5    31    1
    36     7    32    1
    37     7    33    1
    38     8    34    1
    39     8    35    1
    40    10    36    1
    41    11    37    1
    42    12    38    1
    43    13    39    1
    44    14    40    1
    45    15    41    1
    46    16    42    1
    47    22    43    1
    48    23    44    1
    49    24    45    1
    50    25    46    1
    51    28    47    1
