
     RDKit          3D

 47 51  0  0  0  0  0  0  0  0999 V2000
   -2.5103    2.3985   -3.0524 O   0  0  0  0  0  0  0  0  0  0  0  0
   -1.9904    1.8082   -2.0850 C   0  0  0  0  0  0  0  0  0  0  0  0
   -0.6530    1.8070   -1.9761 N   0  0  0  0  0  0  0  0  0  0  0  0
   -0.1090    1.1772   -0.9447 C   0  0  0  0  0  0  0  0  0  0  0  0
    1.2801    1.1679   -0.8189 C   0  0  0  0  0  0  0  0  0  0  0  0
    1.9028    0.5342    0.2247 C   0  0  0  0  0  0  0  0  0  0  0  0
    3.3694    0.5464    0.3230 C   0  0  0  0  0  0  0  0  0  0  0  0
    3.8949   -0.6605   -0.4178 C   0  0  0  0  0  0  0  0  0  0  0  0
    5.3688   -0.7548   -0.3872 C   0  0  0  0  0  0  0  0  0  0  0  0
    6.0413   -1.4237    0.5991 C   0  0  0  0  0  0  0  0  0  0  0  0
    7.4314   -1.4929    0.5973 C   0  0  0  0  0  0  0  0  0  0  0  0
    8.1839   -0.8934   -0.3930 C   0  0  0  0  0  0  0  0  0  0  0  0
    7.5094   -0.2204   -1.3856 C   0  0  0  0  0  0  0  0  0  0  0  0
    6.1189   -0.1520   -1.3826 C   0  0  0  0  0  0  0  0  0  0  0  0
    1.1390   -0.1046    1.1655 C   0  0  0  0  0  0  0  0  0  0  0  0
   -0.2575   -0.1174    1.0739 C   0  0  0  0  0  0  0  0  0  0  0  0
   -0.8403    0.5332    0.0068 C   0  0  0  0  0  0  0  0  0  0  0  0
   -2.2071    0.5137   -0.0720 C   0  0  0  0  0  0  0  0  0  0  0  0
   -3.1890    0.0018    0.6523 N   0  0  0  0  0  0  0  0  0  0  0  0
   -4.3879    0.2896    0.1048 C   0  0  0  0  0  0  0  0  0  0  0  0
   -5.6783   -0.1227    0.6482 C   0  0  0  0  0  0  0  0  0  0  0  0
   -6.8562    0.2113    0.0302 C   0  0  0  0  0  0  0  0  0  0  0  0
   -8.0801   -0.1933    0.5669 C   0  0  0  0  0  0  0  0  0  0  0  0
   -8.1367   -0.9256    1.7108 C   0  0  0  0  0  0  0  0  0  0  0  0
   -6.9695   -1.2695    2.3433 C   0  0  0  0  0  0  0  0  0  0  0  0
   -5.7415   -0.8654    1.8079 C   0  0  0  0  0  0  0  0  0  0  0  0
   -4.2890   -1.3412    2.6702 Cl  0  0  0  0  0  0  0  0  0  0  0  0
   -4.1163    1.0013   -0.9896 N   0  0  0  0  0  0  0  0  0  0  0  0
   -2.7898    1.1758   -1.1571 C   0  0  0  0  0  0  0  0  0  0  0  0
   -0.0462    2.2815   -2.6716 H   0  0  0  0  0  0  0  0  0  0  0  0
    1.8971    1.6642   -1.5479 H   0  0  0  0  0  0  0  0  0  0  0  0
    3.6751    0.5481    1.3902 H   0  0  0  0  0  0  0  0  0  0  0  0
    3.8332    1.4374   -0.1365 H   0  0  0  0  0  0  0  0  0  0  0  0
    3.5189   -0.6209   -1.4499 H   0  0  0  0  0  0  0  0  0  0  0  0
    3.4088   -1.5520    0.0610 H   0  0  0  0  0  0  0  0  0  0  0  0
    5.4428   -1.8941    1.3769 H   0  0  0  0  0  0  0  0  0  0  0  0
    7.9457   -2.0233    1.3809 H   0  0  0  0  0  0  0  0  0  0  0  0
    9.2704   -0.9740   -0.3533 H   0  0  0  0  0  0  0  0  0  0  0  0
    8.1031    0.2486   -2.1607 H   0  0  0  0  0  0  0  0  0  0  0  0
    5.5963    0.3865   -2.1781 H   0  0  0  0  0  0  0  0  0  0  0  0
    1.5766   -0.6226    2.0129 H   0  0  0  0  0  0  0  0  0  0  0  0
   -0.8245   -0.6310    1.8340 H   0  0  0  0  0  0  0  0  0  0  0  0
   -6.8833    0.7909   -0.8809 H   0  0  0  0  0  0  0  0  0  0  0  0
   -9.0097    0.0677    0.0832 H   0  0  0  0  0  0  0  0  0  0  0  0
   -9.0694   -1.2506    2.1458 H   0  0  0  0  0  0  0  0  0  0  0  0
   -7.0251   -1.8554    3.2578 H   0  0  0  0  0  0  0  0  0  0  0  0
   -4.8478    1.3704   -1.6271 H   0  0  0  0  0  0  0  0  0  0  0  0
  1  2  2  0
  2  3  1  0
  3  4  1  0
  4  5  2  0
  5  6  1  0
  6  7  1  0
  7  8  1  0
  8  9  1  0
  9 10  2  0
 10 11  1  0
 11 12  2  0
 12 13  1  0
 13 14  2  0
  6 15  2  0
 15 16  1  0
 16 17  2  0
 17 18  1  0
 18 19  1  0
 19 20  2  0
 20 21  1  0
 21 22  2  0
 22 23  1  0
 23 24  2  0
 24 25  1  0
 25 26  2  0
 26 27  1  0
 20 28  1  0
 28 29  1  0
 29  2  1  0
 17  4  1  0
 29 18  2  0
 14  9  1  0
 26 21  1  0
  3 30  1  0
  5 31  1  0
  7 32  1  0
  7 33  1  0
  8 34  1  0
  8 35  1  0
 10 36  1  0
 11 37  1  0
 12 38  1  0
 13 39  1  0
 14 40  1  0
 15 41  1  0
 16 42  1  0
 22 43  1  0
 23 44  1  0
 24 45  1  0
 25 46  1  0
 28 47  1  0
M  END
$$$$
