
     RDKit          3D

 17 18  0  0  0  0  0  0  0  0999 V2000
   -3.5468    1.7582   -1.1514 Cl  0  0  0  0  0  0  0  0  0  0  0  0
   -2.4620    0.5880   -0.4162 C   0  0  0  0  0  0  0  0  0  0  0  0
   -1.0926    0.7403   -0.5131 C   0  0  0  0  0  0  0  0  0  0  0  0
   -0.2852   -0.2053    0.0810 C   0  0  0  0  0  0  0  0  0  0  0  0
    1.1767   -0.1150    0.0230 C   0  0  0  0  0  0  0  0  0  0  0  0
    1.9091    0.8720   -0.5985 C   0  0  0  0  0  0  0  0  0  0  0  0
    3.2365    0.6098   -0.4346 N   0  0  0  0  0  0  0  0  0  0  0  0
    3.3111   -0.5137    0.2720 N   0  0  0  0  0  0  0  0  0  0  0  0
    2.0805   -0.9563    0.5514 N   0  0  0  0  0  0  0  0  0  0  0  0
   -0.9056   -1.2474    0.7371 C   0  0  0  0  0  0  0  0  0  0  0  0
   -2.2751   -1.3624    0.8106 C   0  0  0  0  0  0  0  0  0  0  0  0
   -3.0395   -0.4449    0.2340 N   0  0  0  0  0  0  0  0  0  0  0  0
   -0.6473    1.5631   -1.0311 H   0  0  0  0  0  0  0  0  0  0  0  0
    1.4916    1.7191   -1.1310 H   0  0  0  0  0  0  0  0  0  0  0  0
    4.0399    1.1732   -0.7897 H   0  0  0  0  0  0  0  0  0  0  0  0
   -0.2823   -1.9913    1.2045 H   0  0  0  0  0  0  0  0  0  0  0  0
   -2.7089   -2.1874    1.3299 H   0  0  0  0  0  0  0  0  0  0  0  0
  1  2  1  0
  2  3  2  0
  3  4  1  0
  4  5  1  0
  5  6  2  0
  6  7  1  0
  7  8  1  0
  8  9  2  0
  4 10  2  0
 10 11  1  0
 11 12  2  0
 12  2  1  0
  9  5  1  0
  3 13  1  0
  6 14  1  0
  7 15  1  0
 10 16  1  0
 11 17  1  0
M  END
$$$$
