@<TRIPOS>MOLECULE
*****
 17 18 0 0 0
SMALL
GASTEIGER

@<TRIPOS>ATOM
      1 CL         -3.5468    1.7582   -1.1514 Cl      1  UNL1       -0.0620
      2 C          -2.4620    0.5880   -0.4162 C.ar    1  UNL1        0.1298
      3 C          -1.0926    0.7403   -0.5131 C.ar    1  UNL1       -0.0155
      4 C          -0.2852   -0.2053    0.0810 C.ar    1  UNL1        0.0079
      5 C           1.1767   -0.1150    0.0230 C.ar    1  UNL1        0.1124
      6 C           1.9091    0.8720   -0.5985 C.ar    1  UNL1        0.0502
      7 N           3.2365    0.6098   -0.4346 N.ar    1  UNL1       -0.2643
      8 N           3.3111   -0.5137    0.2720 N.ar    1  UNL1       -0.0678
      9 N           2.0805   -0.9563    0.5514 N.ar    1  UNL1       -0.1297
     10 C          -0.9056   -1.2474    0.7371 C.ar    1  UNL1       -0.0342
     11 C          -2.2751   -1.3624    0.8106 C.ar    1  UNL1        0.0299
     12 N          -3.0395   -0.4449    0.2340 N.ar    1  UNL1       -0.2435
     13 H          -0.6473    1.5631   -1.0311 H       1  UNL1        0.0654
     14 H           1.4916    1.7191   -1.1310 H       1  UNL1        0.0846
     15 H           4.0399    1.1732   -0.7897 H       1  UNL1        0.1900
     16 H          -0.2823   -1.9913    1.2045 H       1  UNL1        0.0639
     17 H          -2.7089   -2.1874    1.3299 H       1  UNL1        0.0830
@<TRIPOS>BOND
     1     1     2    1
     2     2     3   ar
     3     3     4   ar
     4     4     5    1
     5     5     6   ar
     6     6     7   ar
     7     7     8   ar
     8     8     9   ar
     9     4    10   ar
    10    10    11   ar
    11    11    12   ar
    12    12     2   ar
    13     9     5   ar
    14     3    13    1
    15     6    14    1
    16     7    15    1
    17    10    16    1
    18    11    17    1
