
     RDKit          3D

 61 60  0  0  0  0  0  0  0  0999 V2000
   -5.2839   -0.3391   -1.3909 C   0  0  0  0  0  0  0  0  0  0  0  0
   -4.9114   -0.5829    0.0121 C   0  0  0  0  0  0  0  0  0  0  0  0
   -5.6554    0.3277    0.9687 C   0  0  0  0  0  0  0  0  0  0  0  0
   -7.1282    0.1086    0.8493 C   0  0  0  0  0  0  0  0  0  0  0  0
   -7.9194    0.9991    1.7948 C   0  0  0  0  0  0  0  0  0  0  0  0
   -9.3871    0.6893    1.5845 C   0  0  0  0  0  0  0  0  0  0  0  0
   -4.3743    0.0332   -2.2813 C   0  0  0  0  0  0  0  0  0  0  0  0
   -2.9341    0.3268   -2.3752 C   0  0  0  0  0  0  0  0  0  0  0  0
   -2.3423   -0.5900   -3.3585 C   0  0  0  0  0  0  0  0  0  0  0  0
   -1.3749   -1.4339   -3.0767 C   0  0  0  0  0  0  0  0  0  0  0  0
   -0.5069   -1.8967   -1.9703 C   0  0  0  0  0  0  0  0  0  0  0  0
   -0.7202   -1.2817   -0.6668 C   0  0  0  0  0  0  0  0  0  0  0  0
    0.3037   -0.6161   -0.1661 C   0  0  0  0  0  0  0  0  0  0  0  0
    1.6735   -0.3100   -0.5899 C   0  0  0  0  0  0  0  0  0  0  0  0
    1.8985    1.1626   -0.6846 C   0  0  0  0  0  0  0  0  0  0  0  0
    2.8402    1.6395    0.1099 C   0  0  0  0  0  0  0  0  0  0  0  0
    3.7044    0.9728    1.0722 C   0  0  0  0  0  0  0  0  0  0  0  0
    5.1354    1.2072    0.6159 C   0  0  0  0  0  0  0  0  0  0  0  0
    6.1470    0.5626    1.5341 C   0  0  0  0  0  0  0  0  0  0  0  0
    7.5258    0.8564    0.9894 C   0  0  0  0  0  0  0  0  0  0  0  0
    8.7985    0.1124    2.0426 P   0  0  2  0  0  5  0  0  0  0  0  0
    8.2867    0.2863    3.6236 F   0  0  0  0  0  0  0  0  0  0  0  0
   10.1026    0.8216    1.7890 O   0  0  0  0  0  0  0  0  0  0  0  0
    8.9629   -1.5239    1.6574 O   0  0  0  0  0  0  0  0  0  0  0  0
    8.6986   -1.7027    0.2869 C   0  0  0  0  0  0  0  0  0  0  0  0
   -6.3142   -0.4695   -1.6926 H   0  0  0  0  0  0  0  0  0  0  0  0
   -5.2376   -1.6401    0.2358 H   0  0  0  0  0  0  0  0  0  0  0  0
   -3.8309   -0.5823    0.1907 H   0  0  0  0  0  0  0  0  0  0  0  0
   -5.4303    1.3983    0.6890 H   0  0  0  0  0  0  0  0  0  0  0  0
   -5.2739    0.2271    1.9967 H   0  0  0  0  0  0  0  0  0  0  0  0
   -7.4455    0.2571   -0.1834 H   0  0  0  0  0  0  0  0  0  0  0  0
   -7.3262   -0.9521    1.1202 H   0  0  0  0  0  0  0  0  0  0  0  0
   -7.6969    0.7389    2.8493 H   0  0  0  0  0  0  0  0  0  0  0  0
   -7.6740    2.0672    1.5724 H   0  0  0  0  0  0  0  0  0  0  0  0
   -9.4727   -0.3565    1.2353 H   0  0  0  0  0  0  0  0  0  0  0  0
   -9.9683    0.8151    2.5316 H   0  0  0  0  0  0  0  0  0  0  0  0
   -9.8559    1.3355    0.8107 H   0  0  0  0  0  0  0  0  0  0  0  0
   -4.7790    0.1841   -3.2985 H   0  0  0  0  0  0  0  0  0  0  0  0
   -2.4357    0.3637   -1.3917 H   0  0  0  0  0  0  0  0  0  0  0  0
   -2.7852    1.3692   -2.7840 H   0  0  0  0  0  0  0  0  0  0  0  0
   -2.8089   -0.4690   -4.3162 H   0  0  0  0  0  0  0  0  0  0  0  0
   -1.1195   -1.9986   -3.9982 H   0  0  0  0  0  0  0  0  0  0  0  0
   -0.7127   -3.0219   -1.8991 H   0  0  0  0  0  0  0  0  0  0  0  0
    0.5442   -1.8794   -2.3116 H   0  0  0  0  0  0  0  0  0  0  0  0
   -1.5867   -1.2986   -0.0278 H   0  0  0  0  0  0  0  0  0  0  0  0
    0.2546   -0.1138    0.8115 H   0  0  0  0  0  0  0  0  0  0  0  0
    2.4032   -0.8498    0.0283 H   0  0  0  0  0  0  0  0  0  0  0  0
    1.9206   -0.6752   -1.6386 H   0  0  0  0  0  0  0  0  0  0  0  0
    1.2901    1.7230   -1.3799 H   0  0  0  0  0  0  0  0  0  0  0  0
    2.9885    2.7311    0.0198 H   0  0  0  0  0  0  0  0  0  0  0  0
    3.4907   -0.0292    1.3925 H   0  0  0  0  0  0  0  0  0  0  0  0
    3.6338    1.5956    2.0287 H   0  0  0  0  0  0  0  0  0  0  0  0
    5.2151    0.8150   -0.4190 H   0  0  0  0  0  0  0  0  0  0  0  0
    5.2697    2.3055    0.5572 H   0  0  0  0  0  0  0  0  0  0  0  0
    6.0538    1.1141    2.5068 H   0  0  0  0  0  0  0  0  0  0  0  0
    5.9809   -0.5028    1.6754 H   0  0  0  0  0  0  0  0  0  0  0  0
    7.5980    0.4815   -0.0644 H   0  0  0  0  0  0  0  0  0  0  0  0
    7.6605    1.9583    0.9391 H   0  0  0  0  0  0  0  0  0  0  0  0
    7.6153   -1.7830    0.1855 H   0  0  0  0  0  0  0  0  0  0  0  0
    9.1284   -2.6702   -0.0191 H   0  0  0  0  0  0  0  0  0  0  0  0
    9.1671   -0.9104   -0.3222 H   0  0  0  0  0  0  0  0  0  0  0  0
  1  2  1  0
  2  3  1  0
  3  4  1  0
  4  5  1  0
  5  6  1  0
  1  7  2  0
  7  8  1  0
  8  9  1  0
  9 10  2  0
 10 11  1  0
 11 12  1  0
 12 13  2  0
 13 14  1  0
 14 15  1  0
 15 16  2  0
 16 17  1  0
 17 18  1  0
 18 19  1  0
 19 20  1  0
 20 21  1  0
 21 22  1  1
 21 23  2  0
 21 24  1  0
 24 25  1  0
  1 26  1  0
  2 27  1  0
  2 28  1  0
  3 29  1  0
  3 30  1  0
  4 31  1  0
  4 32  1  0
  5 33  1  0
  5 34  1  0
  6 35  1  0
  6 36  1  0
  6 37  1  0
  7 38  1  0
  8 39  1  0
  8 40  1  0
  9 41  1  0
 10 42  1  0
 11 43  1  0
 11 44  1  0
 12 45  1  0
 13 46  1  0
 14 47  1  0
 14 48  1  0
 15 49  1  0
 16 50  1  0
 17 51  1  0
 17 52  1  0
 18 53  1  0
 18 54  1  0
 19 55  1  0
 19 56  1  0
 20 57  1  0
 20 58  1  0
 25 59  1  0
 25 60  1  0
 25 61  1  0
M  END
$$$$
