@<TRIPOS>MOLECULE
*****
 61 60 0 0 0
SMALL
GASTEIGER

@<TRIPOS>ATOM
      1 C          -5.2839   -0.3391   -1.3909 C.2     1  UNL1       -0.0876
      2 C          -4.9114   -0.5829    0.0121 C.3     1  UNL1       -0.0348
      3 C          -5.6554    0.3277    0.9687 C.3     1  UNL1       -0.0496
      4 C          -7.1282    0.1086    0.8493 C.3     1  UNL1       -0.0530
      5 C          -7.9194    0.9991    1.7948 C.3     1  UNL1       -0.0559
      6 C          -9.3871    0.6893    1.5845 C.3     1  UNL1       -0.0653
      7 C          -4.3743    0.0332   -2.2813 C.2     1  UNL1       -0.0842
      8 C          -2.9341    0.3268   -2.3752 C.3     1  UNL1       -0.0165
      9 C          -2.3423   -0.5900   -3.3585 C.2     1  UNL1       -0.0839
     10 C          -1.3749   -1.4339   -3.0767 C.2     1  UNL1       -0.0839
     11 C          -0.5069   -1.8967   -1.9703 C.3     1  UNL1       -0.0165
     12 C          -0.7202   -1.2817   -0.6668 C.2     1  UNL1       -0.0839
     13 C           0.3037   -0.6161   -0.1661 C.2     1  UNL1       -0.0839
     14 C           1.6735   -0.3100   -0.5899 C.3     1  UNL1       -0.0165
     15 C           1.8985    1.1626   -0.6846 C.2     1  UNL1       -0.0842
     16 C           2.8402    1.6395    0.1099 C.2     1  UNL1       -0.0876
     17 C           3.7044    0.9728    1.0722 C.3     1  UNL1       -0.0347
     18 C           5.1354    1.2072    0.6159 C.3     1  UNL1       -0.0491
     19 C           6.1470    0.5626    1.5341 C.3     1  UNL1       -0.0416
     20 C           7.5258    0.8564    0.9894 C.3     1  UNL1        0.0537
     21 P           8.7985    0.1124    2.0426 P.3     1  UNL1        0.3689
     22 F           8.2867    0.2863    3.6236 F       1  UNL1       -0.1561
     23 O          10.1026    0.8216    1.7890 O.2     1  UNL1       -0.2537
     24 O           8.9629   -1.5239    1.6574 O.3     1  UNL1       -0.3083
     25 C           8.6986   -1.7027    0.2869 C.3     1  UNL1        0.0460
     26 H          -6.3142   -0.4695   -1.6926 H       1  UNL1        0.0569
     27 H          -5.2376   -1.6401    0.2358 H       1  UNL1        0.0307
     28 H          -3.8309   -0.5823    0.1907 H       1  UNL1        0.0307
     29 H          -5.4303    1.3983    0.6890 H       1  UNL1        0.0268
     30 H          -5.2739    0.2271    1.9967 H       1  UNL1        0.0268
     31 H          -7.4455    0.2571   -0.1834 H       1  UNL1        0.0265
     32 H          -7.3262   -0.9521    1.1202 H       1  UNL1        0.0265
     33 H          -7.6969    0.7389    2.8493 H       1  UNL1        0.0263
     34 H          -7.6740    2.0672    1.5724 H       1  UNL1        0.0263
     35 H          -9.4727   -0.3565    1.2353 H       1  UNL1        0.0230
     36 H          -9.9683    0.8151    2.5316 H       1  UNL1        0.0230
     37 H          -9.8559    1.3355    0.8107 H       1  UNL1        0.0230
     38 H          -4.7790    0.1841   -3.2985 H       1  UNL1        0.0572
     39 H          -2.4357    0.3637   -1.3917 H       1  UNL1        0.0350
     40 H          -2.7852    1.3692   -2.7840 H       1  UNL1        0.0350
     41 H          -2.8089   -0.4690   -4.3162 H       1  UNL1        0.0572
     42 H          -1.1195   -1.9986   -3.9982 H       1  UNL1        0.0572
     43 H          -0.7127   -3.0219   -1.8991 H       1  UNL1        0.0350
     44 H           0.5442   -1.8794   -2.3116 H       1  UNL1        0.0350
     45 H          -1.5867   -1.2986   -0.0278 H       1  UNL1        0.0572
     46 H           0.2546   -0.1138    0.8115 H       1  UNL1        0.0572
     47 H           2.4032   -0.8498    0.0283 H       1  UNL1        0.0350
     48 H           1.9206   -0.6752   -1.6386 H       1  UNL1        0.0350
     49 H           1.2901    1.7230   -1.3799 H       1  UNL1        0.0572
     50 H           2.9885    2.7311    0.0198 H       1  UNL1        0.0569
     51 H           3.4907   -0.0292    1.3925 H       1  UNL1        0.0307
     52 H           3.6338    1.5956    2.0287 H       1  UNL1        0.0307
     53 H           5.2151    0.8150   -0.4190 H       1  UNL1        0.0268
     54 H           5.2697    2.3055    0.5572 H       1  UNL1        0.0268
     55 H           6.0538    1.1141    2.5068 H       1  UNL1        0.0271
     56 H           5.9809   -0.5028    1.6754 H       1  UNL1        0.0271
     57 H           7.5980    0.4815   -0.0644 H       1  UNL1        0.0390
     58 H           7.6605    1.9583    0.9391 H       1  UNL1        0.0390
     59 H           7.6153   -1.7830    0.1855 H       1  UNL1        0.0529
     60 H           9.1284   -2.6702   -0.0191 H       1  UNL1        0.0529
     61 H           9.1671   -0.9104   -0.3222 H       1  UNL1        0.0529
@<TRIPOS>BOND
     1     1     2    1
     2     2     3    1
     3     3     4    1
     4     4     5    1
     5     5     6    1
     6     1     7    2
     7     7     8    1
     8     8     9    1
     9     9    10    2
    10    10    11    1
    11    11    12    1
    12    12    13    2
    13    13    14    1
    14    14    15    1
    15    15    16    2
    16    16    17    1
    17    17    18    1
    18    18    19    1
    19    19    20    1
    20    20    21    1
    21    21    22    1
    22    21    23    2
    23    21    24    1
    24    24    25    1
    25     1    26    1
    26     2    27    1
    27     2    28    1
    28     3    29    1
    29     3    30    1
    30     4    31    1
    31     4    32    1
    32     5    33    1
    33     5    34    1
    34     6    35    1
    35     6    36    1
    36     6    37    1
    37     7    38    1
    38     8    39    1
    39     8    40    1
    40     9    41    1
    41    10    42    1
    42    11    43    1
    43    11    44    1
    44    12    45    1
    45    13    46    1
    46    14    47    1
    47    14    48    1
    48    15    49    1
    49    16    50    1
    50    17    51    1
    51    17    52    1
    52    18    53    1
    53    18    54    1
    54    19    55    1
    55    19    56    1
    56    20    57    1
    57    20    58    1
    58    25    59    1
    59    25    60    1
    60    25    61    1
