@<TRIPOS>MOLECULE
*****
 50 54 0 0 0
SMALL
GASTEIGER

@<TRIPOS>ATOM
      1 O           6.3063    1.0532   -1.2516 O.2     1  UNL1       -0.2698
      2 C           5.1438    0.7336   -0.8816 C.2     1  UNL1        0.2490
      3 N           3.9020    1.2185   -1.3897 N.am    1  UNL1       -0.2809
      4 C           2.8169    0.6248   -0.7159 C.ar    1  UNL1        0.0433
      5 C           1.4187    0.7191   -0.7931 C.ar    1  UNL1       -0.0186
      6 C           0.6202   -0.0251    0.0381 C.ar    1  UNL1        0.0355
      7 N          -0.8186    0.0676   -0.0336 N.am    1  UNL1       -0.2813
      8 C          -1.5096    1.0047    0.7654 C.2     1  UNL1        0.2534
      9 O          -0.7678    1.7380    1.5311 O.2     1  UNL1       -0.2697
     10 C          -2.9501    1.2023    0.7920 C.ar    1  UNL1        0.1000
     11 C          -3.4906    2.1759    1.6504 C.ar    1  UNL1        0.0176
     12 N          -4.8127    2.3798    1.7026 N.ar    1  UNL1       -0.3656
     13 C          -5.6771    1.6641    0.9379 C.ar    1  UNL1        0.0132
     14 C          -5.2094    0.6999    0.0802 C.ar    1  UNL1        0.0482
     15 C          -6.1544   -0.0520   -0.7326 C.ar    1  UNL1        0.0224
     16 C          -6.6955   -1.2325   -0.2542 C.ar    1  UNL1       -0.0511
     17 C          -7.5968   -1.9930   -0.9677 C.ar    1  UNL1       -0.0610
     18 C          -7.9679   -1.5315   -2.2320 C.ar    1  UNL1       -0.0590
     19 C          -7.4476   -0.3568   -2.7413 C.ar    1  UNL1       -0.0258
     20 C          -6.5546    0.3546   -1.9822 C.ar    1  UNL1        0.1312
     21 F          -6.0509    1.5008   -2.4878 F       1  UNL1       -0.2048
     22 C          -3.8310    0.4856    0.0245 C.ar    1  UNL1        0.2016
     23 O          -3.4773   -0.4094   -0.7800 O.2     1  UNL1       -0.2864
     24 C           1.1759   -0.8764    0.9618 C.ar    1  UNL1       -0.0398
     25 C           2.5499   -0.9910    1.0620 C.ar    1  UNL1       -0.0503
     26 C           3.3414   -0.2276    0.2097 C.ar    1  UNL1        0.0085
     27 C           4.8219   -0.2090    0.1592 C.2     1  UNL1        0.0479
     28 C           5.6327   -0.9098    0.8867 C.2     1  UNL1       -0.0256
     29 C           7.0873   -0.8738    0.7745 C.ar    1  UNL1        0.0400
     30 C           7.9528   -0.6716    1.8424 C.ar    1  UNL1       -0.0370
     31 C           9.2310   -0.7496    1.3570 C.ar    1  UNL1       -0.0438
     32 C           9.1496   -0.9953    0.0160 C.ar    1  UNL1        0.0022
     33 N           7.8495   -1.0660   -0.3084 N.ar    1  UNL1       -0.3611
     34 H           3.8452    1.9184   -2.1577 H       1  UNL1        0.1552
     35 H           1.0271    1.3901   -1.5214 H       1  UNL1        0.0655
     36 H          -1.3361   -0.5625   -0.6789 H       1  UNL1        0.1551
     37 H          -2.7890    2.7343    2.2493 H       1  UNL1        0.0815
     38 H          -5.1845    3.1160    2.3560 H       1  UNL1        0.1648
     39 H          -6.7503    1.8467    0.9960 H       1  UNL1        0.0814
     40 H          -6.3863   -1.5710    0.7405 H       1  UNL1        0.0625
     41 H          -8.0194   -2.9300   -0.5734 H       1  UNL1        0.0618
     42 H          -8.6662   -2.1161   -2.7910 H       1  UNL1        0.0618
     43 H          -7.7652   -0.0350   -3.7310 H       1  UNL1        0.0646
     44 H           0.5785   -1.4765    1.6315 H       1  UNL1        0.0636
     45 H           2.9418   -1.6636    1.7931 H       1  UNL1        0.0625
     46 H           5.2402   -1.5779    1.6387 H       1  UNL1        0.0646
     47 H           7.6055   -0.4905    2.8467 H       1  UNL1        0.0638
     48 H          10.1530   -0.6330    1.9499 H       1  UNL1        0.0633
     49 H           9.9906   -1.1165   -0.6841 H       1  UNL1        0.0807
     50 H           7.5270   -1.2693   -1.3040 H       1  UNL1        0.1653
@<TRIPOS>BOND
     1     1     2    2
     2     2     3   am
     3     3     4    1
     4     4     5   ar
     5     5     6   ar
     6     6     7    1
     7     7     8   am
     8     8     9    2
     9     8    10    1
    10    10    11   ar
    11    11    12   ar
    12    12    13   ar
    13    13    14   ar
    14    14    15    1
    15    15    16   ar
    16    16    17   ar
    17    17    18   ar
    18    18    19   ar
    19    19    20   ar
    20    20    21    1
    21    14    22   ar
    22    22    23    2
    23     6    24   ar
    24    24    25   ar
    25    25    26   ar
    26    26    27    1
    27    27    28    2
    28    28    29    1
    29    29    30   ar
    30    30    31   ar
    31    31    32   ar
    32    32    33   ar
    33    27     2    1
    34    33    29   ar
    35    26     4   ar
    36    22    10   ar
    37    20    15   ar
    38     3    34    1
    39     5    35    1
    40     7    36    1
    41    11    37    1
    42    12    38    1
    43    13    39    1
    44    16    40    1
    45    17    41    1
    46    18    42    1
    47    19    43    1
    48    24    44    1
    49    25    45    1
    50    28    46    1
    51    30    47    1
    52    31    48    1
    53    32    49    1
    54    33    50    1
