@<TRIPOS>MOLECULE
*****
 62 66 0 0 0
SMALL
GASTEIGER

@<TRIPOS>ATOM
      1 C          -3.8557    1.6896    2.7984 C.3     1  UNL1       -0.0274
      2 C          -3.6702    1.1987    1.3885 C.3     1  UNL1        0.1037
      3 O          -3.9024   -0.1824    1.3284 O.3     1  UNL1       -0.4725
      4 C          -2.9310   -1.1196    0.9850 C.ar    1  UNL1        0.2265
      5 N          -1.6697   -0.7603    0.6785 N.ar    1  UNL1       -0.2122
      6 C          -0.7157   -1.6561    0.3434 C.ar    1  UNL1        0.0769
      7 C           0.6435   -1.1701    0.0219 C.ar    1  UNL1        0.0006
      8 C           1.6345   -2.0358   -0.3202 C.ar    1  UNL1       -0.0508
      9 C           2.9043   -1.5600   -0.6184 C.ar    1  UNL1       -0.0400
     10 C           3.2222   -0.2247   -0.5855 C.ar    1  UNL1        0.0298
     11 N           4.5098    0.3042   -0.8775 N.pl3   1  UNL1       -0.3275
     12 C           5.6051   -0.5812   -1.1002 C.3     1  UNL1        0.0250
     13 C           6.9666    0.0205   -0.9190 C.3     1  UNL1        0.0144
     14 N           7.0481    1.4312   -1.0694 N.3     1  UNL1       -0.3024
     15 C           7.4265    2.1399    0.1214 C.3     1  UNL1       -0.0126
     16 C           5.9379    2.0016   -1.7587 C.3     1  UNL1        0.0144
     17 C           4.6852    1.7402   -0.9496 C.3     1  UNL1        0.0250
     18 C           2.1761    0.6337   -0.2293 C.ar    1  UNL1       -0.0400
     19 C           0.9173    0.1819    0.0680 C.ar    1  UNL1       -0.0508
     20 C          -1.0746   -2.9771    0.3229 C.ar    1  UNL1       -0.0077
     21 C          -2.3792   -3.3832    0.6369 C.ar    1  UNL1        0.0999
     22 N          -2.9895   -4.5756    0.6949 N.ar    1  UNL1       -0.1712
     23 N          -4.2636   -4.4132    1.0508 N.ar    1  UNL1       -0.2732
     24 C          -5.2794   -5.4433    1.2319 C.3     1  UNL1        0.0302
     25 C          -4.5197   -3.1007    1.2356 C.ar    1  UNL1        0.0380
     26 C          -3.3251   -2.4413    0.9738 C.ar    1  UNL1        0.0812
     27 C          -4.5723    1.8788    0.3989 C.3     1  UNL1        0.0196
     28 C          -4.3600    3.3721    0.3399 C.3     1  UNL1        0.0182
     29 N          -4.5352    3.7194   -1.0583 N.am    1  UNL1       -0.3149
     30 C          -4.3887    2.5879   -1.8810 C.2     1  UNL1        0.2135
     31 O          -4.4006    2.4910   -3.1361 O.2     1  UNL1       -0.2758
     32 C          -4.2011    1.4183   -0.9862 C.3     1  UNL1        0.0315
     33 H          -4.7282    1.2576    3.3021 H       1  UNL1        0.0265
     34 H          -2.9587    1.4354    3.3882 H       1  UNL1        0.0265
     35 H          -3.9533    2.7952    2.8353 H       1  UNL1        0.0265
     36 H          -2.5941    1.3692    1.1151 H       1  UNL1        0.0734
     37 H           1.4695   -3.1282   -0.3725 H       1  UNL1        0.0625
     38 H           3.6912   -2.2734   -0.8944 H       1  UNL1        0.0636
     39 H           5.5450   -0.9306   -2.1717 H       1  UNL1        0.0476
     40 H           5.5201   -1.5301   -0.4953 H       1  UNL1        0.0476
     41 H           7.7274   -0.4702   -1.5785 H       1  UNL1        0.0442
     42 H           7.2803   -0.2265    0.1381 H       1  UNL1        0.0442
     43 H           8.0692    3.0023   -0.1642 H       1  UNL1        0.0391
     44 H           6.5676    2.4552    0.7441 H       1  UNL1        0.0391
     45 H           8.0742    1.4700    0.7354 H       1  UNL1        0.0391
     46 H           6.0953    3.0581   -1.9977 H       1  UNL1        0.0442
     47 H           5.8197    1.4458   -2.7212 H       1  UNL1        0.0442
     48 H           3.8454    2.1903   -1.5516 H       1  UNL1        0.0476
     49 H           4.6732    2.2341    0.0213 H       1  UNL1        0.0476
     50 H           2.4191    1.7084   -0.1977 H       1  UNL1        0.0636
     51 H           0.1408    0.8799    0.3377 H       1  UNL1        0.0625
     52 H          -0.3685   -3.7291    0.0672 H       1  UNL1        0.0661
     53 H          -4.8083   -6.4576    1.3730 H       1  UNL1        0.0473
     54 H          -5.8465   -5.1563    2.1516 H       1  UNL1        0.0473
     55 H          -5.9447   -5.4955    0.3387 H       1  UNL1        0.0473
     56 H          -5.4327   -2.6044    1.5242 H       1  UNL1        0.0834
     57 H          -5.6217    1.6471    0.6721 H       1  UNL1        0.0356
     58 H          -5.1833    3.8503    0.9015 H       1  UNL1        0.0466
     59 H          -3.3551    3.6844    0.6474 H       1  UNL1        0.0466
     60 H          -4.7400    4.6753   -1.3891 H       1  UNL1        0.1487
     61 H          -3.1620    1.0572   -0.9781 H       1  UNL1        0.0363
     62 H          -4.8844    0.6016   -1.2697 H       1  UNL1        0.0363
@<TRIPOS>BOND
     1     1     2    1
     2     2     3    1
     3     3     4    1
     4     4     5   ar
     5     5     6   ar
     6     6     7    1
     7     7     8   ar
     8     8     9   ar
     9     9    10   ar
    10    10    11    1
    11    11    12    1
    12    12    13    1
    13    13    14    1
    14    14    15    1
    15    14    16    1
    16    16    17    1
    17    10    18   ar
    18    18    19   ar
    19     6    20   ar
    20    20    21   ar
    21    21    22   ar
    22    22    23   ar
    23    23    24    1
    24    23    25   ar
    25    25    26   ar
    26     2    27    1
    27    27    28    1
    28    28    29    1
    29    29    30   am
    30    30    31    2
    31    30    32    1
    32    26     4   ar
    33    32    27    1
    34    19     7   ar
    35    26    21   ar
    36    17    11    1
    37     1    33    1
    38     1    34    1
    39     1    35    1
    40     2    36    1
    41     8    37    1
    42     9    38    1
    43    12    39    1
    44    12    40    1
    45    13    41    1
    46    13    42    1
    47    15    43    1
    48    15    44    1
    49    15    45    1
    50    16    46    1
    51    16    47    1
    52    17    48    1
    53    17    49    1
    54    18    50    1
    55    19    51    1
    56    20    52    1
    57    24    53    1
    58    24    54    1
    59    24    55    1
    60    25    56    1
    61    27    57    1
    62    28    58    1
    63    28    59    1
    64    29    60    1
    65    32    61    1
    66    32    62    1
