
     RDKit          3D

 62 66  0  0  0  0  0  0  0  0999 V2000
   -3.8557    1.6896    2.7984 C   0  0  0  0  0  0  0  0  0  0  0  0
   -3.6702    1.1987    1.3885 C   0  0  1  0  0  0  0  0  0  0  0  0
   -3.9024   -0.1824    1.3284 O   0  0  0  0  0  0  0  0  0  0  0  0
   -2.9310   -1.1196    0.9850 C   0  0  0  0  0  0  0  0  0  0  0  0
   -1.6697   -0.7603    0.6785 N   0  0  0  0  0  0  0  0  0  0  0  0
   -0.7157   -1.6561    0.3434 C   0  0  0  0  0  0  0  0  0  0  0  0
    0.6435   -1.1701    0.0219 C   0  0  0  0  0  0  0  0  0  0  0  0
    1.6345   -2.0358   -0.3202 C   0  0  0  0  0  0  0  0  0  0  0  0
    2.9043   -1.5600   -0.6184 C   0  0  0  0  0  0  0  0  0  0  0  0
    3.2222   -0.2247   -0.5855 C   0  0  0  0  0  0  0  0  0  0  0  0
    4.5098    0.3042   -0.8775 N   0  0  0  0  0  0  0  0  0  0  0  0
    5.6051   -0.5812   -1.1002 C   0  0  0  0  0  0  0  0  0  0  0  0
    6.9666    0.0205   -0.9190 C   0  0  0  0  0  0  0  0  0  0  0  0
    7.0481    1.4312   -1.0694 N   0  0  0  0  0  0  0  0  0  0  0  0
    7.4265    2.1399    0.1214 C   0  0  0  0  0  0  0  0  0  0  0  0
    5.9379    2.0016   -1.7587 C   0  0  0  0  0  0  0  0  0  0  0  0
    4.6852    1.7402   -0.9496 C   0  0  0  0  0  0  0  0  0  0  0  0
    2.1761    0.6337   -0.2293 C   0  0  0  0  0  0  0  0  0  0  0  0
    0.9173    0.1819    0.0680 C   0  0  0  0  0  0  0  0  0  0  0  0
   -1.0746   -2.9771    0.3229 C   0  0  0  0  0  0  0  0  0  0  0  0
   -2.3792   -3.3832    0.6369 C   0  0  0  0  0  0  0  0  0  0  0  0
   -2.9895   -4.5756    0.6949 N   0  0  0  0  0  0  0  0  0  0  0  0
   -4.2636   -4.4132    1.0508 N   0  0  0  0  0  0  0  0  0  0  0  0
   -5.2794   -5.4433    1.2319 C   0  0  0  0  0  0  0  0  0  0  0  0
   -4.5197   -3.1007    1.2356 C   0  0  0  0  0  0  0  0  0  0  0  0
   -3.3251   -2.4413    0.9738 C   0  0  0  0  0  0  0  0  0  0  0  0
   -4.5723    1.8788    0.3989 C   0  0  1  0  0  0  0  0  0  0  0  0
   -4.3600    3.3721    0.3399 C   0  0  0  0  0  0  0  0  0  0  0  0
   -4.5352    3.7194   -1.0583 N   0  0  0  0  0  0  0  0  0  0  0  0
   -4.3887    2.5879   -1.8810 C   0  0  0  0  0  0  0  0  0  0  0  0
   -4.4006    2.4910   -3.1361 O   0  0  0  0  0  0  0  0  0  0  0  0
   -4.2011    1.4183   -0.9862 C   0  0  0  0  0  0  0  0  0  0  0  0
   -4.7282    1.2576    3.3021 H   0  0  0  0  0  0  0  0  0  0  0  0
   -2.9587    1.4354    3.3882 H   0  0  0  0  0  0  0  0  0  0  0  0
   -3.9533    2.7952    2.8353 H   0  0  0  0  0  0  0  0  0  0  0  0
   -2.5941    1.3692    1.1151 H   0  0  0  0  0  0  0  0  0  0  0  0
    1.4695   -3.1282   -0.3725 H   0  0  0  0  0  0  0  0  0  0  0  0
    3.6912   -2.2734   -0.8944 H   0  0  0  0  0  0  0  0  0  0  0  0
    5.5450   -0.9306   -2.1717 H   0  0  0  0  0  0  0  0  0  0  0  0
    5.5201   -1.5301   -0.4953 H   0  0  0  0  0  0  0  0  0  0  0  0
    7.7274   -0.4702   -1.5785 H   0  0  0  0  0  0  0  0  0  0  0  0
    7.2803   -0.2265    0.1381 H   0  0  0  0  0  0  0  0  0  0  0  0
    8.0692    3.0023   -0.1642 H   0  0  0  0  0  0  0  0  0  0  0  0
    6.5676    2.4552    0.7441 H   0  0  0  0  0  0  0  0  0  0  0  0
    8.0742    1.4700    0.7354 H   0  0  0  0  0  0  0  0  0  0  0  0
    6.0953    3.0581   -1.9977 H   0  0  0  0  0  0  0  0  0  0  0  0
    5.8197    1.4458   -2.7212 H   0  0  0  0  0  0  0  0  0  0  0  0
    3.8454    2.1903   -1.5516 H   0  0  0  0  0  0  0  0  0  0  0  0
    4.6732    2.2341    0.0213 H   0  0  0  0  0  0  0  0  0  0  0  0
    2.4191    1.7084   -0.1977 H   0  0  0  0  0  0  0  0  0  0  0  0
    0.1408    0.8799    0.3377 H   0  0  0  0  0  0  0  0  0  0  0  0
   -0.3685   -3.7291    0.0672 H   0  0  0  0  0  0  0  0  0  0  0  0
   -4.8083   -6.4576    1.3730 H   0  0  0  0  0  0  0  0  0  0  0  0
   -5.8465   -5.1563    2.1516 H   0  0  0  0  0  0  0  0  0  0  0  0
   -5.9447   -5.4955    0.3387 H   0  0  0  0  0  0  0  0  0  0  0  0
   -5.4327   -2.6044    1.5242 H   0  0  0  0  0  0  0  0  0  0  0  0
   -5.6217    1.6471    0.6721 H   0  0  0  0  0  0  0  0  0  0  0  0
   -5.1833    3.8503    0.9015 H   0  0  0  0  0  0  0  0  0  0  0  0
   -3.3551    3.6844    0.6474 H   0  0  0  0  0  0  0  0  0  0  0  0
   -4.7400    4.6753   -1.3891 H   0  0  0  0  0  0  0  0  0  0  0  0
   -3.1620    1.0572   -0.9781 H   0  0  0  0  0  0  0  0  0  0  0  0
   -4.8844    0.6016   -1.2697 H   0  0  0  0  0  0  0  0  0  0  0  0
  1  2  1  0
  2  3  1  0
  3  4  1  0
  4  5  2  0
  5  6  1  0
  6  7  1  0
  7  8  2  0
  8  9  1  0
  9 10  2  0
 10 11  1  0
 11 12  1  0
 12 13  1  0
 13 14  1  0
 14 15  1  0
 14 16  1  0
 16 17  1  0
 10 18  1  0
 18 19  2  0
  6 20  2  0
 20 21  1  0
 21 22  2  0
 22 23  1  0
 23 24  1  0
 23 25  1  0
 25 26  2  0
  2 27  1  0
 27 28  1  0
 28 29  1  0
 29 30  1  0
 30 31  2  0
 30 32  1  0
 26  4  1  0
 32 27  1  0
 19  7  1  0
 26 21  1  0
 17 11  1  0
  1 33  1  0
  1 34  1  0
  1 35  1  0
  2 36  1  6
  8 37  1  0
  9 38  1  0
 12 39  1  0
 12 40  1  0
 13 41  1  0
 13 42  1  0
 15 43  1  0
 15 44  1  0
 15 45  1  0
 16 46  1  0
 16 47  1  0
 17 48  1  0
 17 49  1  0
 18 50  1  0
 19 51  1  0
 20 52  1  0
 24 53  1  0
 24 54  1  0
 24 55  1  0
 25 56  1  0
 27 57  1  1
 28 58  1  0
 28 59  1  0
 29 60  1  0
 32 61  1  0
 32 62  1  0
M  END
$$$$
