@<TRIPOS>MOLECULE
*****
 51 54 0 0 0
SMALL
GASTEIGER

@<TRIPOS>ATOM
      1 O           5.7727   -2.7531   -0.5516 O.2     1  UNL1       -0.1497
      2 S           4.8515   -2.0931    0.4601 S.O2    1  UNL1        0.1268
      3 O           4.4802   -3.1474    1.4487 O.2     1  UNL1       -0.1497
      4 N           3.4909   -1.5169   -0.3989 N.3     1  UNL1       -0.1834
      5 C           2.5262   -0.8431    0.4114 C.3     1  UNL1        0.0293
      6 C           1.2179   -1.6164    0.3569 C.3     1  UNL1       -0.0336
      7 C           0.0335   -0.7250    0.7141 C.3     1  UNL1       -0.0212
      8 C          -0.2391    0.2720   -0.3931 C.3     1  UNL1        0.1297
      9 S          -1.3437   -0.5063   -1.5478 S.O2    1  UNL1        0.0072
     10 O          -1.5823    0.4517   -2.7032 O.2     1  UNL1       -0.1685
     11 O          -0.6671   -1.7159   -2.1744 O.2     1  UNL1       -0.1685
     12 C          -2.8503   -0.9705   -0.8137 C.ar    1  UNL1        0.0893
     13 C          -3.9162   -0.1019   -0.7669 C.ar    1  UNL1       -0.0355
     14 C          -5.1232   -0.4385   -0.1945 C.ar    1  UNL1       -0.0416
     15 C          -5.3049   -1.6847    0.3620 C.ar    1  UNL1        0.0411
     16 CL         -6.8470   -2.1358    1.1016 Cl      1  UNL1       -0.0835
     17 C          -4.2527   -2.5726    0.3277 C.ar    1  UNL1       -0.0416
     18 C          -3.0505   -2.2103   -0.2530 C.ar    1  UNL1       -0.0355
     19 C          -0.8783    1.4988    0.1121 C.ar    1  UNL1        0.0600
     20 C          -1.6699    1.4868    1.2136 C.ar    1  UNL1        0.1323
     21 F          -1.9064    0.3481    1.8908 F       1  UNL1       -0.2050
     22 C          -2.2926    2.6325    1.7234 C.ar    1  UNL1       -0.0232
     23 C          -2.0689    3.8142    1.0482 C.ar    1  UNL1       -0.0201
     24 C          -1.2675    3.8482   -0.0739 C.ar    1  UNL1        0.1653
     25 F          -1.0576    5.0171   -0.7265 F       1  UNL1       -0.2016
     26 C          -0.6602    2.6820   -0.5561 C.ar    1  UNL1        0.1635
     27 O           0.1329    2.7223   -1.6695 O.3     1  UNL1       -0.4883
     28 C           1.1228    1.7713   -1.8936 C.3     1  UNL1        0.0949
     29 C           1.0696    0.5346   -1.0830 C.3     1  UNL1        0.0244
     30 C           2.2277    0.5507   -0.0768 C.3     1  UNL1       -0.0277
     31 C           5.7779   -0.8051    1.2337 C.3     1  UNL1        0.5357
     32 F           6.2389    0.0845    0.2823 F       1  UNL1       -0.1493
     33 F           5.1023   -0.1827    2.2481 F       1  UNL1       -0.1493
     34 F           6.9174   -1.3994    1.7822 F       1  UNL1       -0.1493
     35 H           3.7140   -1.0721   -1.2963 H       1  UNL1        0.1482
     36 H           2.8288   -0.8077    1.4778 H       1  UNL1        0.0477
     37 H           1.0271   -2.0739   -0.6175 H       1  UNL1        0.0281
     38 H           1.2073   -2.4377    1.1130 H       1  UNL1        0.0281
     39 H          -0.8209   -1.4148    0.8863 H       1  UNL1        0.0290
     40 H           0.3083   -0.1692    1.6389 H       1  UNL1        0.0290
     41 H          -3.8417    0.9071   -1.1910 H       1  UNL1        0.0637
     42 H          -5.9420    0.2638   -0.1724 H       1  UNL1        0.0633
     43 H          -4.4072   -3.5465    0.7672 H       1  UNL1        0.0633
     44 H          -2.2593   -2.9546   -0.2498 H       1  UNL1        0.0637
     45 H          -2.9183    2.6084    2.5987 H       1  UNL1        0.0647
     46 H          -2.5186    4.7544    1.3815 H       1  UNL1        0.0648
     47 H           1.1201    1.5693   -3.0067 H       1  UNL1        0.0700
     48 H           2.1111    2.2990   -1.7403 H       1  UNL1        0.0700
     49 H           1.2783   -0.3348   -1.7490 H       1  UNL1        0.0359
     50 H           3.1238    0.9142   -0.6189 H       1  UNL1        0.0285
     51 H           2.0054    1.1991    0.7872 H       1  UNL1        0.0285
@<TRIPOS>BOND
     1     1     2    2
     2     2     3    2
     3     2     4    1
     4     4     5    1
     5     5     6    1
     6     6     7    1
     7     7     8    1
     8     8     9    1
     9     9    10    2
    10     9    11    2
    11     9    12    1
    12    12    13   ar
    13    13    14   ar
    14    14    15   ar
    15    15    16    1
    16    15    17   ar
    17    17    18   ar
    18     8    19    1
    19    19    20   ar
    20    20    21    1
    21    20    22   ar
    22    22    23   ar
    23    23    24   ar
    24    24    25    1
    25    24    26   ar
    26    26    27    1
    27    27    28    1
    28    28    29    1
    29    29    30    1
    30     2    31    1
    31    31    32    1
    32    31    33    1
    33    31    34    1
    34    30     5    1
    35    29     8    1
    36    18    12   ar
    37    26    19   ar
    38     4    35    1
    39     5    36    1
    40     6    37    1
    41     6    38    1
    42     7    39    1
    43     7    40    1
    44    13    41    1
    45    14    42    1
    46    17    43    1
    47    18    44    1
    48    22    45    1
    49    23    46    1
    50    28    47    1
    51    28    48    1
    52    29    49    1
    53    30    50    1
    54    30    51    1
