
     RDKit          3D

 51 54  0  0  0  0  0  0  0  0999 V2000
    5.7727   -2.7531   -0.5516 O   0  0  0  0  0  0  0  0  0  0  0  0
    4.8515   -2.0931    0.4601 S   0  0  0  0  0  6  0  0  0  0  0  0
    4.4802   -3.1474    1.4487 O   0  0  0  0  0  0  0  0  0  0  0  0
    3.4909   -1.5169   -0.3989 N   0  0  0  0  0  0  0  0  0  0  0  0
    2.5262   -0.8431    0.4114 C   0  0  2  0  0  0  0  0  0  0  0  0
    1.2179   -1.6164    0.3569 C   0  0  0  0  0  0  0  0  0  0  0  0
    0.0335   -0.7250    0.7141 C   0  0  0  0  0  0  0  0  0  0  0  0
   -0.2391    0.2720   -0.3931 C   0  0  1  0  0  0  0  0  0  0  0  0
   -1.3437   -0.5063   -1.5478 S   0  0  0  0  0  6  0  0  0  0  0  0
   -1.5823    0.4517   -2.7032 O   0  0  0  0  0  0  0  0  0  0  0  0
   -0.6671   -1.7159   -2.1744 O   0  0  0  0  0  0  0  0  0  0  0  0
   -2.8503   -0.9705   -0.8137 C   0  0  0  0  0  0  0  0  0  0  0  0
   -3.9162   -0.1019   -0.7669 C   0  0  0  0  0  0  0  0  0  0  0  0
   -5.1232   -0.4385   -0.1945 C   0  0  0  0  0  0  0  0  0  0  0  0
   -5.3049   -1.6847    0.3620 C   0  0  0  0  0  0  0  0  0  0  0  0
   -6.8470   -2.1358    1.1016 Cl  0  0  0  0  0  0  0  0  0  0  0  0
   -4.2527   -2.5726    0.3277 C   0  0  0  0  0  0  0  0  0  0  0  0
   -3.0505   -2.2103   -0.2530 C   0  0  0  0  0  0  0  0  0  0  0  0
   -0.8783    1.4988    0.1121 C   0  0  0  0  0  0  0  0  0  0  0  0
   -1.6699    1.4868    1.2136 C   0  0  0  0  0  0  0  0  0  0  0  0
   -1.9064    0.3481    1.8908 F   0  0  0  0  0  0  0  0  0  0  0  0
   -2.2926    2.6325    1.7234 C   0  0  0  0  0  0  0  0  0  0  0  0
   -2.0689    3.8142    1.0482 C   0  0  0  0  0  0  0  0  0  0  0  0
   -1.2675    3.8482   -0.0739 C   0  0  0  0  0  0  0  0  0  0  0  0
   -1.0576    5.0171   -0.7265 F   0  0  0  0  0  0  0  0  0  0  0  0
   -0.6602    2.6820   -0.5561 C   0  0  0  0  0  0  0  0  0  0  0  0
    0.1329    2.7223   -1.6695 O   0  0  0  0  0  0  0  0  0  0  0  0
    1.1228    1.7713   -1.8936 C   0  0  0  0  0  0  0  0  0  0  0  0
    1.0696    0.5346   -1.0830 C   0  0  1  0  0  0  0  0  0  0  0  0
    2.2277    0.5507   -0.0768 C   0  0  0  0  0  0  0  0  0  0  0  0
    5.7779   -0.8051    1.2337 C   0  0  0  0  0  0  0  0  0  0  0  0
    6.2389    0.0845    0.2823 F   0  0  0  0  0  0  0  0  0  0  0  0
    5.1023   -0.1827    2.2481 F   0  0  0  0  0  0  0  0  0  0  0  0
    6.9174   -1.3994    1.7822 F   0  0  0  0  0  0  0  0  0  0  0  0
    3.7140   -1.0721   -1.2963 H   0  0  0  0  0  0  0  0  0  0  0  0
    2.8288   -0.8077    1.4778 H   0  0  0  0  0  0  0  0  0  0  0  0
    1.0271   -2.0739   -0.6175 H   0  0  0  0  0  0  0  0  0  0  0  0
    1.2073   -2.4377    1.1130 H   0  0  0  0  0  0  0  0  0  0  0  0
   -0.8209   -1.4148    0.8863 H   0  0  0  0  0  0  0  0  0  0  0  0
    0.3083   -0.1692    1.6389 H   0  0  0  0  0  0  0  0  0  0  0  0
   -3.8417    0.9071   -1.1910 H   0  0  0  0  0  0  0  0  0  0  0  0
   -5.9420    0.2638   -0.1724 H   0  0  0  0  0  0  0  0  0  0  0  0
   -4.4072   -3.5465    0.7672 H   0  0  0  0  0  0  0  0  0  0  0  0
   -2.2593   -2.9546   -0.2498 H   0  0  0  0  0  0  0  0  0  0  0  0
   -2.9183    2.6084    2.5987 H   0  0  0  0  0  0  0  0  0  0  0  0
   -2.5186    4.7544    1.3815 H   0  0  0  0  0  0  0  0  0  0  0  0
    1.1201    1.5693   -3.0067 H   0  0  0  0  0  0  0  0  0  0  0  0
    2.1111    2.2990   -1.7403 H   0  0  0  0  0  0  0  0  0  0  0  0
    1.2783   -0.3348   -1.7490 H   0  0  0  0  0  0  0  0  0  0  0  0
    3.1238    0.9142   -0.6189 H   0  0  0  0  0  0  0  0  0  0  0  0
    2.0054    1.1991    0.7872 H   0  0  0  0  0  0  0  0  0  0  0  0
  1  2  2  0
  2  3  2  0
  2  4  1  0
  4  5  1  0
  5  6  1  0
  6  7  1  0
  7  8  1  0
  8  9  1  6
  9 10  2  0
  9 11  2  0
  9 12  1  0
 12 13  2  0
 13 14  1  0
 14 15  2  0
 15 16  1  0
 15 17  1  0
 17 18  2  0
  8 19  1  0
 19 20  2  0
 20 21  1  0
 20 22  1  0
 22 23  2  0
 23 24  1  0
 24 25  1  0
 24 26  2  0
 26 27  1  0
 27 28  1  0
 28 29  1  0
 29 30  1  0
  2 31  1  0
 31 32  1  0
 31 33  1  0
 31 34  1  0
 30  5  1  0
 29  8  1  0
 18 12  1  0
 26 19  1  0
  4 35  1  0
  5 36  1  1
  6 37  1  0
  6 38  1  0
  7 39  1  0
  7 40  1  0
 13 41  1  0
 14 42  1  0
 17 43  1  0
 18 44  1  0
 22 45  1  0
 23 46  1  0
 28 47  1  0
 28 48  1  0
 29 49  1  6
 30 50  1  0
 30 51  1  0
M  END
$$$$
