@<TRIPOS>MOLECULE
*****
 51 53 0 0 0
SMALL
GASTEIGER

@<TRIPOS>ATOM
      1 N           8.1999    0.1297   -0.1088 N.pl3   1  UNL1       -0.1313
      2 C           7.6595   -0.6144   -1.0045 C.2     1  UNL1        0.3751
      3 N           8.4677   -1.3577   -1.8970 N.pl3   1  UNL1       -0.2906
      4 N           6.2325   -0.6741   -1.0789 N.am    1  UNL1       -0.1709
      5 C           5.3972    0.0550   -0.2041 C.2     1  UNL1        0.3066
      6 O           5.9845    0.7800    0.6682 O.2     1  UNL1       -0.2516
      7 C           3.9531    0.0421   -0.2221 C.ar    1  UNL1        0.0536
      8 C           3.2842   -0.7196   -1.1335 C.ar    1  UNL1       -0.0479
      9 C           1.9123   -0.7131   -1.1294 C.ar    1  UNL1       -0.0570
     10 C           1.1243    0.0433   -0.2285 C.ar    1  UNL1       -0.0325
     11 C          -0.2771   -0.0860   -0.3982 C.3     1  UNL1       -0.0125
     12 C          -0.7058   -1.3286    0.3792 C.3     1  UNL1       -0.0302
     13 C          -1.9006   -1.9569   -0.3530 C.3     1  UNL1        0.0155
     14 N          -2.9364   -0.9377   -0.3253 N.am    1  UNL1       -0.2975
     15 C          -4.1939   -1.1896    0.2719 C.2     1  UNL1        0.2466
     16 O          -4.4021   -2.3145    0.7807 O.2     1  UNL1       -0.2700
     17 C          -5.2347   -0.1789    0.3048 C.ar    1  UNL1        0.0369
     18 C          -5.7323    0.2696    1.5229 C.ar    1  UNL1       -0.0496
     19 C          -6.7208    1.2281    1.5938 C.ar    1  UNL1       -0.0610
     20 C          -7.2569    1.7825    0.4289 C.ar    1  UNL1       -0.0617
     21 C          -6.7676    1.3419   -0.7808 C.ar    1  UNL1       -0.0610
     22 C          -5.7793    0.3830   -0.8304 C.ar    1  UNL1       -0.0496
     23 C          -2.5923    0.3299   -0.9423 C.3     1  UNL1        0.0155
     24 C          -1.3133    0.9117   -0.2384 C.3     1  UNL1       -0.0302
     25 C           1.8091    0.7881    0.6642 C.ar    1  UNL1        0.0590
     26 C           1.1128    1.5825    1.6486 C.3     1  UNL1        0.4177
     27 F           2.0409    2.3183    2.4508 F       1  UNL1       -0.1659
     28 F           0.4717    2.6214    1.0024 F       1  UNL1       -0.1659
     29 F           0.1733    1.0146    2.4247 F       1  UNL1       -0.1659
     30 C           3.2157    0.7808    0.6587 C.ar    1  UNL1       -0.0363
     31 H           9.2365    0.1914   -0.0329 H       1  UNL1        0.3060
     32 H           9.4336   -1.6939   -1.6459 H       1  UNL1        0.2545
     33 H           8.1581   -1.6243   -2.8711 H       1  UNL1        0.2545
     34 H           5.8209   -1.2764   -1.8039 H       1  UNL1        0.2545
     35 H           3.8239   -1.3329   -1.8643 H       1  UNL1        0.0626
     36 H           1.4415   -1.3553   -1.8918 H       1  UNL1        0.0621
     37 H          -0.4361   -0.4547   -1.4876 H       1  UNL1        0.0350
     38 H           0.0876   -2.1085    0.3518 H       1  UNL1        0.0286
     39 H          -0.9378   -1.1429    1.4270 H       1  UNL1        0.0286
     40 H          -2.2027   -2.8797    0.1572 H       1  UNL1        0.0465
     41 H          -1.5708   -2.0945   -1.3939 H       1  UNL1        0.0465
     42 H          -5.3630   -0.1164    2.4623 H       1  UNL1        0.0625
     43 H          -7.1136    1.5826    2.5393 H       1  UNL1        0.0618
     44 H          -8.0287    2.5298    0.5256 H       1  UNL1        0.0618
     45 H          -7.1810    1.7695   -1.6793 H       1  UNL1        0.0618
     46 H          -5.4320    0.0736   -1.8066 H       1  UNL1        0.0625
     47 H          -3.4121    1.0685   -0.8646 H       1  UNL1        0.0465
     48 H          -2.3834    0.1884   -2.0210 H       1  UNL1        0.0465
     49 H          -1.7417    1.1600    0.7159 H       1  UNL1        0.0286
     50 H          -1.1353    1.7834   -0.9348 H       1  UNL1        0.0286
     51 H           3.7105    1.4007    1.4005 H       1  UNL1        0.0631
@<TRIPOS>BOND
     1     1     2    2
     2     2     3    1
     3     2     4    1
     4     4     5   am
     5     5     6    2
     6     5     7    1
     7     7     8   ar
     8     8     9   ar
     9     9    10   ar
    10    10    11    1
    11    11    12    1
    12    12    13    1
    13    13    14    1
    14    14    15   am
    15    15    16    2
    16    15    17    1
    17    17    18   ar
    18    18    19   ar
    19    19    20   ar
    20    20    21   ar
    21    21    22   ar
    22    14    23    1
    23    23    24    1
    24    10    25   ar
    25    25    26    1
    26    26    27    1
    27    26    28    1
    28    26    29    1
    29    25    30   ar
    30    30     7   ar
    31    24    11    1
    32    22    17   ar
    33     1    31    1
    34     3    32    1
    35     3    33    1
    36     4    34    1
    37     8    35    1
    38     9    36    1
    39    11    37    1
    40    12    38    1
    41    12    39    1
    42    13    40    1
    43    13    41    1
    44    18    42    1
    45    19    43    1
    46    20    44    1
    47    21    45    1
    48    22    46    1
    49    23    47    1
    50    23    48    1
    51    24    49    1
    52    24    50    1
    53    30    51    1
