
     RDKit          3D

 51 53  0  0  0  0  0  0  0  0999 V2000
    8.1999    0.1297   -0.1088 N   0  0  0  0  0  0  0  0  0  0  0  0
    7.6595   -0.6144   -1.0045 C   0  0  0  0  0  0  0  0  0  0  0  0
    8.4677   -1.3577   -1.8970 N   0  0  0  0  0  0  0  0  0  0  0  0
    6.2325   -0.6741   -1.0789 N   0  0  0  0  0  0  0  0  0  0  0  0
    5.3972    0.0550   -0.2041 C   0  0  0  0  0  0  0  0  0  0  0  0
    5.9845    0.7800    0.6682 O   0  0  0  0  0  0  0  0  0  0  0  0
    3.9531    0.0421   -0.2221 C   0  0  0  0  0  0  0  0  0  0  0  0
    3.2842   -0.7196   -1.1335 C   0  0  0  0  0  0  0  0  0  0  0  0
    1.9123   -0.7131   -1.1294 C   0  0  0  0  0  0  0  0  0  0  0  0
    1.1243    0.0433   -0.2285 C   0  0  0  0  0  0  0  0  0  0  0  0
   -0.2771   -0.0860   -0.3982 C   0  0  0  0  0  0  0  0  0  0  0  0
   -0.7058   -1.3286    0.3792 C   0  0  0  0  0  0  0  0  0  0  0  0
   -1.9006   -1.9569   -0.3530 C   0  0  0  0  0  0  0  0  0  0  0  0
   -2.9364   -0.9377   -0.3253 N   0  0  0  0  0  0  0  0  0  0  0  0
   -4.1939   -1.1896    0.2719 C   0  0  0  0  0  0  0  0  0  0  0  0
   -4.4021   -2.3145    0.7807 O   0  0  0  0  0  0  0  0  0  0  0  0
   -5.2347   -0.1789    0.3048 C   0  0  0  0  0  0  0  0  0  0  0  0
   -5.7323    0.2696    1.5229 C   0  0  0  0  0  0  0  0  0  0  0  0
   -6.7208    1.2281    1.5938 C   0  0  0  0  0  0  0  0  0  0  0  0
   -7.2569    1.7825    0.4289 C   0  0  0  0  0  0  0  0  0  0  0  0
   -6.7676    1.3419   -0.7808 C   0  0  0  0  0  0  0  0  0  0  0  0
   -5.7793    0.3830   -0.8304 C   0  0  0  0  0  0  0  0  0  0  0  0
   -2.5923    0.3299   -0.9423 C   0  0  0  0  0  0  0  0  0  0  0  0
   -1.3133    0.9117   -0.2384 C   0  0  0  0  0  0  0  0  0  0  0  0
    1.8091    0.7881    0.6642 C   0  0  0  0  0  0  0  0  0  0  0  0
    1.1128    1.5825    1.6486 C   0  0  0  0  0  0  0  0  0  0  0  0
    2.0409    2.3183    2.4508 F   0  0  0  0  0  0  0  0  0  0  0  0
    0.4717    2.6214    1.0024 F   0  0  0  0  0  0  0  0  0  0  0  0
    0.1733    1.0146    2.4247 F   0  0  0  0  0  0  0  0  0  0  0  0
    3.2157    0.7808    0.6587 C   0  0  0  0  0  0  0  0  0  0  0  0
    9.2365    0.1914   -0.0329 H   0  0  0  0  0  0  0  0  0  0  0  0
    9.4336   -1.6939   -1.6459 H   0  0  0  0  0  0  0  0  0  0  0  0
    8.1581   -1.6243   -2.8711 H   0  0  0  0  0  0  0  0  0  0  0  0
    5.8209   -1.2764   -1.8039 H   0  0  0  0  0  0  0  0  0  0  0  0
    3.8239   -1.3329   -1.8643 H   0  0  0  0  0  0  0  0  0  0  0  0
    1.4415   -1.3553   -1.8918 H   0  0  0  0  0  0  0  0  0  0  0  0
   -0.4361   -0.4547   -1.4876 H   0  0  0  0  0  0  0  0  0  0  0  0
    0.0876   -2.1085    0.3518 H   0  0  0  0  0  0  0  0  0  0  0  0
   -0.9378   -1.1429    1.4270 H   0  0  0  0  0  0  0  0  0  0  0  0
   -2.2027   -2.8797    0.1572 H   0  0  0  0  0  0  0  0  0  0  0  0
   -1.5708   -2.0945   -1.3939 H   0  0  0  0  0  0  0  0  0  0  0  0
   -5.3630   -0.1164    2.4623 H   0  0  0  0  0  0  0  0  0  0  0  0
   -7.1136    1.5826    2.5393 H   0  0  0  0  0  0  0  0  0  0  0  0
   -8.0287    2.5298    0.5256 H   0  0  0  0  0  0  0  0  0  0  0  0
   -7.1810    1.7695   -1.6793 H   0  0  0  0  0  0  0  0  0  0  0  0
   -5.4320    0.0736   -1.8066 H   0  0  0  0  0  0  0  0  0  0  0  0
   -3.4121    1.0685   -0.8646 H   0  0  0  0  0  0  0  0  0  0  0  0
   -2.3834    0.1884   -2.0210 H   0  0  0  0  0  0  0  0  0  0  0  0
   -1.7417    1.1600    0.7159 H   0  0  0  0  0  0  0  0  0  0  0  0
   -1.1353    1.7834   -0.9348 H   0  0  0  0  0  0  0  0  0  0  0  0
    3.7105    1.4007    1.4005 H   0  0  0  0  0  0  0  0  0  0  0  0
  1  2  2  3
  2  3  1  0
  2  4  1  0
  4  5  1  0
  5  6  2  0
  5  7  1  0
  7  8  2  0
  8  9  1  0
  9 10  2  0
 10 11  1  0
 11 12  1  0
 12 13  1  0
 13 14  1  0
 14 15  1  0
 15 16  2  0
 15 17  1  0
 17 18  2  0
 18 19  1  0
 19 20  2  0
 20 21  1  0
 21 22  2  0
 14 23  1  0
 23 24  1  0
 10 25  1  0
 25 26  1  0
 26 27  1  0
 26 28  1  0
 26 29  1  0
 25 30  2  0
 30  7  1  0
 24 11  1  0
 22 17  1  0
  1 31  1  0
  3 32  1  0
  3 33  1  0
  4 34  1  0
  8 35  1  0
  9 36  1  0
 11 37  1  0
 12 38  1  0
 12 39  1  0
 13 40  1  0
 13 41  1  0
 18 42  1  0
 19 43  1  0
 20 44  1  0
 21 45  1  0
 22 46  1  0
 23 47  1  0
 23 48  1  0
 24 49  1  0
 24 50  1  0
 30 51  1  0
M  END
$$$$
