@<TRIPOS>MOLECULE
*****
 66 69 0 0 0
SMALL
GASTEIGER

@<TRIPOS>ATOM
      1 C           3.3339   -4.6960    1.0634 C.3     1  UNL1       -0.0468
      2 C           2.2167   -4.9896    0.1258 C.3     1  UNL1        0.0189
      3 C           2.7721   -5.6258   -1.1393 C.3     1  UNL1       -0.0468
      4 N           1.5866   -3.7261   -0.3015 N.am    1  UNL1       -0.2969
      5 C           0.1839   -3.5814   -0.2251 C.2     1  UNL1        0.3030
      6 O          -0.4357   -4.6141    0.2287 O.2     1  UNL1       -0.2526
      7 N          -0.5517   -2.4240   -0.6004 N.am    1  UNL1       -0.2770
      8 C           0.1089   -1.2489   -1.0827 C.3     1  UNL1        0.0416
      9 C           0.9099   -0.5044   -0.1052 C.ar    1  UNL1       -0.0289
     10 C           0.5275   -0.3807    1.2032 C.ar    1  UNL1       -0.0570
     11 C           1.2756    0.4244    2.0482 C.ar    1  UNL1       -0.0603
     12 C           2.3824    1.0925    1.5858 C.ar    1  UNL1       -0.0463
     13 C           2.7860    0.9845    0.2643 C.ar    1  UNL1        0.0256
     14 C           3.8897    1.7907   -0.2733 C.1     1  UNL1       -0.0610
     15 C           4.8013    2.4574   -0.7093 C.1     1  UNL1       -0.0610
     16 C           5.8978    3.2334   -1.2272 C.ar    1  UNL1        0.0254
     17 C           6.3740    4.3339   -0.4955 C.ar    1  UNL1       -0.0449
     18 C           7.4300    5.0868   -0.9985 C.ar    1  UNL1       -0.0422
     19 C           8.0207    4.7887   -2.1894 C.ar    1  UNL1        0.0410
     20 CL          9.3520    5.7882   -2.7761 Cl      1  UNL1       -0.0835
     21 C           7.5658    3.7150   -2.9140 C.ar    1  UNL1       -0.0422
     22 C           6.5247    2.9737   -2.4153 C.ar    1  UNL1       -0.0449
     23 C           2.0615    0.1961   -0.5619 C.ar    1  UNL1       -0.0416
     24 C          -1.9765   -2.4983   -0.5719 C.3     1  UNL1        0.0416
     25 C          -2.7193   -1.9283    0.5171 C.ar    1  UNL1       -0.0289
     26 C          -2.6858   -2.4865    1.7769 C.ar    1  UNL1       -0.0570
     27 C          -3.5040   -1.9496    2.7442 C.ar    1  UNL1       -0.0603
     28 C          -4.3293   -0.8953    2.4637 C.ar    1  UNL1       -0.0463
     29 C          -4.3930   -0.3030    1.2006 C.ar    1  UNL1        0.0256
     30 C          -5.3426    0.7467    0.9891 C.1     1  UNL1       -0.0595
     31 C          -6.1367    1.6454    0.8259 C.1     1  UNL1       -0.0412
     32 C          -7.0979    2.7157    0.6172 C.ar    1  UNL1        0.1137
     33 C          -7.4419    3.2104   -0.6096 C.ar    1  UNL1       -0.0278
     34 C          -8.3865    4.2339   -0.7496 C.ar    1  UNL1       -0.0577
     35 C          -8.9896    4.7622    0.3582 C.ar    1  UNL1       -0.0435
     36 C          -8.6310    4.2509    1.5981 C.ar    1  UNL1        0.0290
     37 N          -7.7211    3.2703    1.6901 N.ar    1  UNL1       -0.2467
     38 C          -3.5718   -0.8450    0.2504 C.ar    1  UNL1       -0.0416
     39 H           3.3550   -3.6428    1.4148 H       1  UNL1        0.0247
     40 H           4.2869   -4.8846    0.5697 H       1  UNL1        0.0247
     41 H           3.2127   -5.3052    2.0006 H       1  UNL1        0.0247
     42 H           1.4718   -5.6605    0.5865 H       1  UNL1        0.0493
     43 H           1.8990   -6.0355   -1.7075 H       1  UNL1        0.0247
     44 H           3.4354   -6.4800   -0.9018 H       1  UNL1        0.0247
     45 H           3.2133   -4.8419   -1.7510 H       1  UNL1        0.0247
     46 H           2.1468   -2.9389   -0.6609 H       1  UNL1        0.1505
     47 H           0.8205   -1.5305   -1.9271 H       1  UNL1        0.0514
     48 H          -0.5856   -0.5214   -1.5798 H       1  UNL1        0.0514
     49 H          -0.3496   -0.9101    1.6059 H       1  UNL1        0.0621
     50 H           0.9878    0.5294    3.0845 H       1  UNL1        0.0618
     51 H           2.9920    1.7306    2.2405 H       1  UNL1        0.0630
     52 H           5.8831    4.5405    0.4390 H       1  UNL1        0.0630
     53 H           7.8026    5.9446   -0.4217 H       1  UNL1        0.0632
     54 H           8.0032    3.4559   -3.8486 H       1  UNL1        0.0632
     55 H           6.1371    2.1073   -2.9753 H       1  UNL1        0.0630
     56 H           2.3632    0.0964   -1.5814 H       1  UNL1        0.0633
     57 H          -2.3924   -2.0622   -1.5371 H       1  UNL1        0.0514
     58 H          -2.2573   -3.6074   -0.6510 H       1  UNL1        0.0514
     59 H          -2.0274   -3.3383    2.0140 H       1  UNL1        0.0621
     60 H          -3.4695   -2.3900    3.7347 H       1  UNL1        0.0618
     61 H          -4.9841   -0.4692    3.2387 H       1  UNL1        0.0630
     62 H          -6.9674    2.7992   -1.4931 H       1  UNL1        0.0645
     63 H          -8.6597    4.6283   -1.7175 H       1  UNL1        0.0619
     64 H          -9.7316    5.5567    0.3017 H       1  UNL1        0.0633
     65 H          -9.0620    4.6178    2.5148 H       1  UNL1        0.0830
     66 H          -3.6101   -0.3919   -0.7389 H       1  UNL1        0.0633
@<TRIPOS>BOND
     1     1     2    1
     2     2     3    1
     3     2     4    1
     4     4     5   am
     5     5     6    2
     6     5     7   am
     7     7     8    1
     8     8     9    1
     9     9    10   ar
    10    10    11   ar
    11    11    12   ar
    12    12    13   ar
    13    13    14    1
    14    14    15    3
    15    15    16    1
    16    16    17   ar
    17    17    18   ar
    18    18    19   ar
    19    19    20    1
    20    19    21   ar
    21    21    22   ar
    22    13    23   ar
    23     7    24    1
    24    24    25    1
    25    25    26   ar
    26    26    27   ar
    27    27    28   ar
    28    28    29   ar
    29    29    30    1
    30    30    31    3
    31    31    32    1
    32    32    33   ar
    33    33    34   ar
    34    34    35   ar
    35    35    36   ar
    36    36    37   ar
    37    29    38   ar
    38    23     9   ar
    39    38    25   ar
    40    22    16   ar
    41    37    32   ar
    42     1    39    1
    43     1    40    1
    44     1    41    1
    45     2    42    1
    46     3    43    1
    47     3    44    1
    48     3    45    1
    49     4    46    1
    50     8    47    1
    51     8    48    1
    52    10    49    1
    53    11    50    1
    54    12    51    1
    55    17    52    1
    56    18    53    1
    57    21    54    1
    58    22    55    1
    59    23    56    1
    60    24    57    1
    61    24    58    1
    62    26    59    1
    63    27    60    1
    64    28    61    1
    65    33    62    1
    66    34    63    1
    67    35    64    1
    68    36    65    1
    69    38    66    1
