
     RDKit          3D

 63 67  0  0  0  0  0  0  0  0999 V2000
   -0.0161    2.5999   -0.5338 C   0  0  0  0  0  0  0  0  0  0  0  0
    0.0791    1.1800   -1.1111 C   0  0  0  0  0  0  0  0  0  0  0  0
   -0.9161    0.2912   -0.4215 C   0  0  0  0  0  0  0  0  0  0  0  0
   -0.4916   -0.7028    0.2216 O   0  0  0  0  0  0  0  0  0  0  0  0
   -2.3055    0.5180   -0.4605 N   0  0  0  0  0  0  0  0  0  0  0  0
   -3.2742   -0.3322    0.2005 C   0  0  1  0  0  0  0  0  0  0  0  0
   -4.0268    0.3955    1.2816 C   0  0  0  0  0  0  0  0  0  0  0  0
   -5.0401    1.3646    0.7266 C   0  0  0  0  0  0  0  0  0  0  0  0
   -6.0366    0.5871   -0.0781 C   0  0  0  0  0  0  0  0  0  0  0  0
   -5.2889   -0.0363   -1.2560 C   0  0  0  0  0  0  0  0  0  0  0  0
   -4.2318   -0.9856   -0.7388 C   0  0  0  0  0  0  0  0  0  0  0  0
   -4.9737   -2.0670    0.0545 C   0  0  0  0  0  0  0  0  0  0  0  0
   -5.6743   -1.4480    1.2313 C   0  0  2  0  0  0  0  0  0  0  0  0
   -6.2481   -2.4630    1.9807 O   0  0  0  0  0  0  0  0  0  0  0  0
   -6.7221   -0.4844    0.7075 C   0  0  0  0  0  0  0  0  0  0  0  0
   -4.7444   -0.6708    2.1118 C   0  0  0  0  0  0  0  0  0  0  0  0
    1.3887    0.7205   -0.9065 N   0  0  0  0  0  0  0  0  0  0  0  0
    1.8798    0.6266    0.3957 C   0  0  0  0  0  0  0  0  0  0  0  0
    3.3262    1.0582    0.4471 C   0  0  0  0  0  0  0  0  0  0  0  0
    4.0848    0.1813   -0.4224 N   0  0  0  0  0  0  0  0  0  0  0  0
    5.4409   -0.1153   -0.1132 C   0  0  0  0  0  0  0  0  0  0  0  0
    6.2232   -0.9349   -0.8796 C   0  0  0  0  0  0  0  0  0  0  0  0
    7.5527   -1.2090   -0.5524 C   0  0  0  0  0  0  0  0  0  0  0  0
    8.1120   -0.6491    0.5686 C   0  0  0  0  0  0  0  0  0  0  0  0
    9.5171   -0.8896    0.9861 C   0  0  0  0  0  0  0  0  0  0  0  0
   10.0939   -1.7758    0.0954 F   0  0  0  0  0  0  0  0  0  0  0  0
   10.2024    0.2922    0.9807 F   0  0  0  0  0  0  0  0  0  0  0  0
    9.5277   -1.3972    2.2735 F   0  0  0  0  0  0  0  0  0  0  0  0
    7.2937    0.1797    1.3288 C   0  0  0  0  0  0  0  0  0  0  0  0
    6.0170    0.4222    0.9845 N   0  0  0  0  0  0  0  0  0  0  0  0
    3.4207   -0.3552   -1.5736 C   0  0  0  0  0  0  0  0  0  0  0  0
    2.2296    0.5105   -1.9908 C   0  0  0  0  0  0  0  0  0  0  0  0
    1.0072    3.0706   -0.5308 H   0  0  0  0  0  0  0  0  0  0  0  0
   -0.3554    2.4717    0.5147 H   0  0  0  0  0  0  0  0  0  0  0  0
   -0.7601    3.2014   -1.0609 H   0  0  0  0  0  0  0  0  0  0  0  0
   -0.1294    1.2761   -2.1864 H   0  0  0  0  0  0  0  0  0  0  0  0
   -2.6853    1.3386   -0.9890 H   0  0  0  0  0  0  0  0  0  0  0  0
   -2.7084   -1.1600    0.7184 H   0  0  0  0  0  0  0  0  0  0  0  0
   -3.3276    0.9659    1.9272 H   0  0  0  0  0  0  0  0  0  0  0  0
   -4.5185    2.0706    0.0615 H   0  0  0  0  0  0  0  0  0  0  0  0
   -5.4818    1.9169    1.5658 H   0  0  0  0  0  0  0  0  0  0  0  0
   -6.8154    1.2456   -0.5414 H   0  0  0  0  0  0  0  0  0  0  0  0
   -4.8995    0.7288   -1.9329 H   0  0  0  0  0  0  0  0  0  0  0  0
   -6.0275   -0.6473   -1.8047 H   0  0  0  0  0  0  0  0  0  0  0  0
   -3.7447   -1.4389   -1.6134 H   0  0  0  0  0  0  0  0  0  0  0  0
   -5.7167   -2.5384   -0.5955 H   0  0  0  0  0  0  0  0  0  0  0  0
   -4.2480   -2.8519    0.4121 H   0  0  0  0  0  0  0  0  0  0  0  0
   -5.5991   -2.7133    2.6861 H   0  0  0  0  0  0  0  0  0  0  0  0
   -7.4736   -0.9739    0.0776 H   0  0  0  0  0  0  0  0  0  0  0  0
   -7.2364   -0.0439    1.5750 H   0  0  0  0  0  0  0  0  0  0  0  0
   -5.3485   -0.1236    2.8626 H   0  0  0  0  0  0  0  0  0  0  0  0
   -3.9686   -1.2802    2.5965 H   0  0  0  0  0  0  0  0  0  0  0  0
    1.8384   -0.4051    0.7944 H   0  0  0  0  0  0  0  0  0  0  0  0
    1.3112    1.3326    1.0657 H   0  0  0  0  0  0  0  0  0  0  0  0
    3.6451    0.9794    1.5068 H   0  0  0  0  0  0  0  0  0  0  0  0
    3.4753    2.0933    0.0709 H   0  0  0  0  0  0  0  0  0  0  0  0
    5.8254   -1.3864   -1.7543 H   0  0  0  0  0  0  0  0  0  0  0  0
    8.1559   -1.8643   -1.1774 H   0  0  0  0  0  0  0  0  0  0  0  0
    7.7527    0.6177    2.2175 H   0  0  0  0  0  0  0  0  0  0  0  0
    4.1610   -0.4096   -2.4107 H   0  0  0  0  0  0  0  0  0  0  0  0
    3.0217   -1.3610   -1.3402 H   0  0  0  0  0  0  0  0  0  0  0  0
    1.7917    0.0048   -2.8737 H   0  0  0  0  0  0  0  0  0  0  0  0
    2.6596    1.4727   -2.3578 H   0  0  0  0  0  0  0  0  0  0  0  0
  1  2  1  0
  2  3  1  0
  3  4  2  0
  3  5  1  0
  5  6  1  0
  6  7  1  0
  7  8  1  0
  8  9  1  0
  9 10  1  0
 10 11  1  0
 11 12  1  0
 12 13  1  0
 13 14  1  1
 13 15  1  0
 13 16  1  0
  2 17  1  0
 17 18  1  0
 18 19  1  0
 19 20  1  0
 20 21  1  0
 21 22  2  0
 22 23  1  0
 23 24  2  0
 24 25  1  0
 25 26  1  0
 25 27  1  0
 25 28  1  0
 24 29  1  0
 29 30  2  0
 20 31  1  0
 31 32  1  0
 11  6  1  0
 32 17  1  0
 16  7  1  0
 30 21  1  0
 15  9  1  0
  1 33  1  0
  1 34  1  0
  1 35  1  0
  2 36  1  0
  5 37  1  0
  6 38  1  1
  7 39  1  0
  8 40  1  0
  8 41  1  0
  9 42  1  0
 10 43  1  0
 10 44  1  0
 11 45  1  0
 12 46  1  0
 12 47  1  0
 14 48  1  0
 15 49  1  0
 15 50  1  0
 16 51  1  0
 16 52  1  0
 18 53  1  0
 18 54  1  0
 19 55  1  0
 19 56  1  0
 22 57  1  0
 23 58  1  0
 29 59  1  0
 31 60  1  0
 31 61  1  0
 32 62  1  0
 32 63  1  0
M  END
$$$$
