@<TRIPOS>MOLECULE
*****
 63 67 0 0 0
SMALL
GASTEIGER

@<TRIPOS>ATOM
      1 C          -0.0161    2.5999   -0.5338 C.3     1  UNL1       -0.0409
      2 C           0.0791    1.1800   -1.1111 C.3     1  UNL1        0.0845
      3 C          -0.9161    0.2912   -0.4215 C.2     1  UNL1        0.2302
      4 O          -0.4916   -0.7028    0.2216 O.2     1  UNL1       -0.2741
      5 N          -2.3055    0.5180   -0.4605 N.am    1  UNL1       -0.3106
      6 C          -3.2742   -0.3322    0.2005 C.3     1  UNL1        0.0290
      7 C          -4.0268    0.3955    1.2816 C.3     1  UNL1       -0.0195
      8 C          -5.0401    1.3646    0.7266 C.3     1  UNL1       -0.0455
      9 C          -6.0366    0.5871   -0.0781 C.3     1  UNL1       -0.0378
     10 C          -5.2889   -0.0363   -1.2560 C.3     1  UNL1       -0.0455
     11 C          -4.2318   -0.9856   -0.7388 C.3     1  UNL1       -0.0195
     12 C          -4.9737   -2.0670    0.0545 C.3     1  UNL1       -0.0195
     13 C          -5.6743   -1.4480    1.2313 C.3     1  UNL1        0.0670
     14 O          -6.2481   -2.4630    1.9807 O.3     1  UNL1       -0.3885
     15 C          -6.7221   -0.4844    0.7075 C.3     1  UNL1       -0.0211
     16 C          -4.7444   -0.6708    2.1118 C.3     1  UNL1       -0.0195
     17 N           1.3887    0.7205   -0.9065 N.3     1  UNL1       -0.2887
     18 C           1.8798    0.6266    0.3957 C.3     1  UNL1        0.0154
     19 C           3.3262    1.0582    0.4471 C.3     1  UNL1        0.0263
     20 N           4.0848    0.1813   -0.4224 N.pl3   1  UNL1       -0.3127
     21 C           5.4409   -0.1153   -0.1132 C.ar    1  UNL1        0.1213
     22 C           6.2232   -0.9349   -0.8796 C.ar    1  UNL1       -0.0212
     23 C           7.5527   -1.2090   -0.5524 C.ar    1  UNL1       -0.0454
     24 C           8.1120   -0.6491    0.5686 C.ar    1  UNL1        0.0730
     25 C           9.5171   -0.8896    0.9861 C.3     1  UNL1        0.4188
     26 F          10.0939   -1.7758    0.0954 F       1  UNL1       -0.1658
     27 F          10.2024    0.2922    0.9807 F       1  UNL1       -0.1658
     28 F           9.5277   -1.3972    2.2735 F       1  UNL1       -0.1658
     29 C           7.2937    0.1797    1.3288 C.ar    1  UNL1        0.0413
     30 N           6.0170    0.4222    0.9845 N.ar    1  UNL1       -0.2398
     31 C           3.4207   -0.3552   -1.5736 C.3     1  UNL1        0.0263
     32 C           2.2296    0.5105   -1.9908 C.3     1  UNL1        0.0154
     33 H           1.0072    3.0706   -0.5308 H       1  UNL1        0.0249
     34 H          -0.3554    2.4717    0.5147 H       1  UNL1        0.0249
     35 H          -0.7601    3.2014   -1.0609 H       1  UNL1        0.0249
     36 H          -0.1294    1.2761   -2.1864 H       1  UNL1        0.0556
     37 H          -2.6853    1.3386   -0.9890 H       1  UNL1        0.1490
     38 H          -2.7084   -1.1600    0.7184 H       1  UNL1        0.0504
     39 H          -3.3276    0.9659    1.9272 H       1  UNL1        0.0320
     40 H          -4.5185    2.0706    0.0615 H       1  UNL1        0.0271
     41 H          -5.4818    1.9169    1.5658 H       1  UNL1        0.0271
     42 H          -6.8154    1.2456   -0.5414 H       1  UNL1        0.0302
     43 H          -4.8995    0.7288   -1.9329 H       1  UNL1        0.0271
     44 H          -6.0275   -0.6473   -1.8047 H       1  UNL1        0.0271
     45 H          -3.7447   -1.4389   -1.6134 H       1  UNL1        0.0320
     46 H          -5.7167   -2.5384   -0.5955 H       1  UNL1        0.0296
     47 H          -4.2480   -2.8519    0.4121 H       1  UNL1        0.0296
     48 H          -5.5991   -2.7133    2.6861 H       1  UNL1        0.2102
     49 H          -7.4736   -0.9739    0.0776 H       1  UNL1        0.0296
     50 H          -7.2364   -0.0439    1.5750 H       1  UNL1        0.0296
     51 H          -5.3485   -0.1236    2.8626 H       1  UNL1        0.0296
     52 H          -3.9686   -1.2802    2.5965 H       1  UNL1        0.0296
     53 H           1.8384   -0.4051    0.7944 H       1  UNL1        0.0442
     54 H           1.3112    1.3326    1.0657 H       1  UNL1        0.0442
     55 H           3.6451    0.9794    1.5068 H       1  UNL1        0.0477
     56 H           3.4753    2.0933    0.0709 H       1  UNL1        0.0477
     57 H           5.8254   -1.3864   -1.7543 H       1  UNL1        0.0652
     58 H           8.1559   -1.8643   -1.1774 H       1  UNL1        0.0625
     59 H           7.7527    0.6177    2.2175 H       1  UNL1        0.0836
     60 H           4.1610   -0.4096   -2.4107 H       1  UNL1        0.0477
     61 H           3.0217   -1.3610   -1.3402 H       1  UNL1        0.0477
     62 H           1.7917    0.0048   -2.8737 H       1  UNL1        0.0442
     63 H           2.6596    1.4727   -2.3578 H       1  UNL1        0.0442
@<TRIPOS>BOND
     1     1     2    1
     2     2     3    1
     3     3     4    2
     4     3     5   am
     5     5     6    1
     6     6     7    1
     7     7     8    1
     8     8     9    1
     9     9    10    1
    10    10    11    1
    11    11    12    1
    12    12    13    1
    13    13    14    1
    14    13    15    1
    15    13    16    1
    16     2    17    1
    17    17    18    1
    18    18    19    1
    19    19    20    1
    20    20    21    1
    21    21    22   ar
    22    22    23   ar
    23    23    24   ar
    24    24    25    1
    25    25    26    1
    26    25    27    1
    27    25    28    1
    28    24    29   ar
    29    29    30   ar
    30    20    31    1
    31    31    32    1
    32    11     6    1
    33    32    17    1
    34    16     7    1
    35    30    21   ar
    36    15     9    1
    37     1    33    1
    38     1    34    1
    39     1    35    1
    40     2    36    1
    41     5    37    1
    42     6    38    1
    43     7    39    1
    44     8    40    1
    45     8    41    1
    46     9    42    1
    47    10    43    1
    48    10    44    1
    49    11    45    1
    50    12    46    1
    51    12    47    1
    52    14    48    1
    53    15    49    1
    54    15    50    1
    55    16    51    1
    56    16    52    1
    57    18    53    1
    58    18    54    1
    59    19    55    1
    60    19    56    1
    61    22    57    1
    62    23    58    1
    63    29    59    1
    64    31    60    1
    65    31    61    1
    66    32    62    1
    67    32    63    1
