@<TRIPOS>MOLECULE
*****
 101 106 0 0 0
SMALL
GASTEIGER

@<TRIPOS>ATOM
      1 C          -2.0021   -0.0532    0.2822 C.3     1  UNL1       -0.0238
      2 C          -3.1772   -0.9312    0.5816 C.3     1  UNL1       -0.0024
      3 C          -4.2695    0.0787    0.1869 C.3     1  UNL1        0.0193
      4 C          -3.7287    0.7090   -1.0475 C.3     1  UNL1        0.1508
      5 O          -4.4767    0.5296   -2.2083 O.3     1  UNL1       -0.4553
      6 C          -4.9564    1.6233   -2.9481 C.2     1  UNL1        0.3044
      7 C          -5.7452    1.4397   -4.1723 C.3     1  UNL1        0.0332
      8 O          -4.6721    2.7879   -2.5027 O.2     1  UNL1       -0.2512
      9 C          -2.3016    0.2274   -1.1765 C.3     1  UNL1        0.0136
     10 C          -2.1283   -0.9209   -2.0921 C.3     1  UNL1       -0.0557
     11 C          -1.3036    1.2826   -1.5558 C.3     1  UNL1       -0.0435
     12 C           0.0484    0.5454   -1.5654 C.3     1  UNL1       -0.0488
     13 C           0.3738    0.2822   -0.1283 C.3     1  UNL1       -0.0321
     14 C          -0.6501   -0.6088    0.5232 C.3     1  UNL1       -0.0341
     15 C          -0.4464   -0.6306    2.0272 C.3     1  UNL1       -0.0494
     16 C           0.9798   -0.8930    2.4062 C.3     1  UNL1       -0.0493
     17 C           1.9661   -0.1520    1.5745 C.3     1  UNL1       -0.0316
     18 C           3.3409   -0.3912    2.0685 C.3     1  UNL1       -0.0070
     19 C           4.2549    0.5559    1.3411 C.3     1  UNL1        0.1455
     20 O           3.7690    1.8556    1.7156 O.3     1  UNL1       -0.4558
     21 C           4.5932    2.7674    2.3458 C.2     1  UNL1        0.3044
     22 C           4.0080    4.1063    2.7048 C.3     1  UNL1        0.0332
     23 O           5.8078    2.5976    2.6600 O.2     1  UNL1       -0.2512
     24 C           4.1859    0.4284   -0.1588 C.3     1  UNL1        0.0190
     25 C           2.8305    0.2629   -0.7270 C.3     1  UNL1       -0.0002
     26 C           1.7545   -0.3476    0.0913 C.3     1  UNL1       -0.0208
     27 C           1.5574   -1.7918   -0.2791 C.3     1  UNL1       -0.0589
     28 N           5.2420   -0.3972   -0.6952 N.4     1  UNL1        0.2459
     29 C           4.9722   -0.8435   -2.0224 C.3     1  UNL1       -0.0409
     30 C           5.5786   -1.5409    0.1254 C.3     1  UNL1       -0.0299
     31 C           6.6140   -2.3773   -0.6125 C.3     1  UNL1       -0.0123
     32 C           7.8382   -1.6438   -1.0095 C.3     1  UNL1       -0.0434
     33 C           7.6140   -0.2346   -1.4348 C.3     1  UNL1       -0.0123
     34 C           6.4864    0.3888   -0.7195 C.3     1  UNL1       -0.0299
     35 N          -5.5784   -0.4205    0.1964 N.4     1  UNL1        0.2459
     36 C          -6.0269   -1.1520   -0.9558 C.3     1  UNL1       -0.0409
     37 C          -6.5324    0.6507    0.3431 C.3     1  UNL1       -0.0299
     38 C          -6.5868    1.2891    1.6870 C.3     1  UNL1       -0.0123
     39 C          -6.9640    0.1818    2.6804 C.3     1  UNL1       -0.0434
     40 C          -5.7289   -0.7291    2.6456 C.3     1  UNL1       -0.0123
     41 C          -5.6912   -1.3707    1.3041 C.3     1  UNL1       -0.0299
     42 H          -2.1453    0.9165    0.8157 H       1  UNL1        0.0312
     43 H          -3.1839   -1.8044   -0.1038 H       1  UNL1        0.0324
     44 H          -3.1672   -1.1640    1.6422 H       1  UNL1        0.0324
     45 H          -4.2121    0.8177    1.0426 H       1  UNL1        0.0889
     46 H          -3.6300    1.8168   -0.8910 H       1  UNL1        0.0797
     47 H          -5.9368    2.4354   -4.6128 H       1  UNL1        0.0342
     48 H          -6.7124    0.9813   -3.9220 H       1  UNL1        0.0342
     49 H          -5.1529    0.8833   -4.9230 H       1  UNL1        0.0342
     50 H          -1.4548   -1.7181   -1.7858 H       1  UNL1        0.0236
     51 H          -3.1003   -1.4415   -2.3390 H       1  UNL1        0.0236
     52 H          -1.8151   -0.5132   -3.0985 H       1  UNL1        0.0236
     53 H          -1.5092    1.7811   -2.5100 H       1  UNL1        0.0272
     54 H          -1.2550    2.0161   -0.7430 H       1  UNL1        0.0272
     55 H           0.0016   -0.3501   -2.1935 H       1  UNL1        0.0268
     56 H           0.6994    1.2532   -2.0632 H       1  UNL1        0.0268
     57 H           0.3389    1.2553    0.4075 H       1  UNL1        0.0309
     58 H          -0.6543   -1.6473    0.2074 H       1  UNL1        0.0306
     59 H          -0.8651    0.2739    2.5156 H       1  UNL1        0.0268
     60 H          -1.0553   -1.4860    2.4228 H       1  UNL1        0.0268
     61 H           1.0831   -0.4669    3.4489 H       1  UNL1        0.0268
     62 H           1.2184   -1.9747    2.5642 H       1  UNL1        0.0268
     63 H           1.7547    0.9440    1.7551 H       1  UNL1        0.0307
     64 H           3.3437   -0.0033    3.1330 H       1  UNL1        0.0306
     65 H           3.6771   -1.4167    2.1613 H       1  UNL1        0.0306
     66 H           5.3025    0.5169    1.6558 H       1  UNL1        0.0791
     67 H           2.9716    3.9851    3.0427 H       1  UNL1        0.0342
     68 H           4.6654    4.7031    3.3345 H       1  UNL1        0.0342
     69 H           3.9324    4.6409    1.7133 H       1  UNL1        0.0342
     70 H           4.5130    1.4746   -0.4758 H       1  UNL1        0.0889
     71 H           2.3990    1.2744   -1.0021 H       1  UNL1        0.0326
     72 H           2.8590   -0.2794   -1.6902 H       1  UNL1        0.0326
     73 H           2.4738   -2.2924   -0.6513 H       1  UNL1        0.0235
     74 H           0.8500   -1.8645   -1.1444 H       1  UNL1        0.0235
     75 H           1.2288   -2.4167    0.5733 H       1  UNL1        0.0235
     76 H           5.9333   -1.1885   -2.5030 H       1  UNL1        0.0778
     77 H           4.6139   -0.0416   -2.6996 H       1  UNL1        0.0778
     78 H           4.3435   -1.7579   -2.0465 H       1  UNL1        0.0778
     79 H           6.0220   -1.3049    1.0930 H       1  UNL1        0.0815
     80 H           4.7094   -2.2267    0.1609 H       1  UNL1        0.0815
     81 H           6.1229   -2.9521   -1.4471 H       1  UNL1        0.0317
     82 H           6.9011   -3.1747    0.1121 H       1  UNL1        0.0317
     83 H           8.6009   -1.7252   -0.1992 H       1  UNL1        0.0269
     84 H           8.3001   -2.1963   -1.8733 H       1  UNL1        0.0269
     85 H           8.5318    0.3369   -1.1004 H       1  UNL1        0.0317
     86 H           7.6354   -0.0732   -2.5473 H       1  UNL1        0.0317
     87 H           6.1944    1.3134   -1.2995 H       1  UNL1        0.0815
     88 H           6.7997    0.6987    0.2881 H       1  UNL1        0.0815
     89 H          -6.8697   -1.8506   -0.6705 H       1  UNL1        0.0778
     90 H          -5.2969   -1.7863   -1.4476 H       1  UNL1        0.0778
     91 H          -6.5195   -0.5026   -1.7338 H       1  UNL1        0.0778
     92 H          -6.3384    1.4183   -0.4020 H       1  UNL1        0.0815
     93 H          -7.5486    0.2137    0.1584 H       1  UNL1        0.0815
     94 H          -5.7001    1.8418    1.9952 H       1  UNL1        0.0317
     95 H          -7.4478    1.9748    1.6864 H       1  UNL1        0.0317
     96 H          -7.8700   -0.3103    2.3256 H       1  UNL1        0.0269
     97 H          -7.0366    0.6040    3.7073 H       1  UNL1        0.0269
     98 H          -4.8941   -0.0780    2.9048 H       1  UNL1        0.0317
     99 H          -5.9218   -1.5050    3.3840 H       1  UNL1        0.0317
    100 H          -4.9150   -2.1296    1.2289 H       1  UNL1        0.0815
    101 H          -6.6618   -1.8888    1.1590 H       1  UNL1        0.0815
@<TRIPOS>UNITY_ATOM_ATTR
28 1
charge 1
35 1
charge 1
@<TRIPOS>BOND
     1     1     2    1
     2     2     3    1
     3     3     4    1
     4     4     5    1
     5     5     6    1
     6     6     7    1
     7     6     8    2
     8     4     9    1
     9     9    10    1
    10     9    11    1
    11    11    12    1
    12    12    13    1
    13    13    14    1
    14    14    15    1
    15    15    16    1
    16    16    17    1
    17    17    18    1
    18    18    19    1
    19    19    20    1
    20    20    21    1
    21    21    22    1
    22    21    23    2
    23    19    24    1
    24    24    25    1
    25    25    26    1
    26    26    27    1
    27    24    28    1
    28    28    29    1
    29    28    30    1
    30    30    31    1
    31    31    32    1
    32    32    33    1
    33    33    34    1
    34     3    35    1
    35    35    36    1
    36    35    37    1
    37    37    38    1
    38    38    39    1
    39    39    40    1
    40    40    41    1
    41     9     1    1
    42    26    13    1
    43    34    28    1
    44    41    35    1
    45    14     1    1
    46    26    17    1
    47     1    42    1
    48     2    43    1
    49     2    44    1
    50     3    45    1
    51     4    46    1
    52     7    47    1
    53     7    48    1
    54     7    49    1
    55    10    50    1
    56    10    51    1
    57    10    52    1
    58    11    53    1
    59    11    54    1
    60    12    55    1
    61    12    56    1
    62    13    57    1
    63    14    58    1
    64    15    59    1
    65    15    60    1
    66    16    61    1
    67    16    62    1
    68    17    63    1
    69    18    64    1
    70    18    65    1
    71    19    66    1
    72    22    67    1
    73    22    68    1
    74    22    69    1
    75    24    70    1
    76    25    71    1
    77    25    72    1
    78    27    73    1
    79    27    74    1
    80    27    75    1
    81    29    76    1
    82    29    77    1
    83    29    78    1
    84    30    79    1
    85    30    80    1
    86    31    81    1
    87    31    82    1
    88    32    83    1
    89    32    84    1
    90    33    85    1
    91    33    86    1
    92    34    87    1
    93    34    88    1
    94    36    89    1
    95    36    90    1
    96    36    91    1
    97    37    92    1
    98    37    93    1
    99    38    94    1
   100    38    95    1
   101    39    96    1
   102    39    97    1
   103    40    98    1
   104    40    99    1
   105    41   100    1
   106    41   101    1
