
     RDKit          3D

 55 55  0  0  0  0  0  0  0  0999 V2000
   -3.6118    4.5376   -1.7265 C   0  0  0  0  0  0  0  0  0  0  0  0
   -3.6810    4.2860   -0.3068 N   0  0  0  0  0  0  0  0  0  0  0  0
   -4.3882    5.1582    0.5971 C   0  0  0  0  0  0  0  0  0  0  0  0
   -3.0268    3.1386    0.2038 C   0  0  0  0  0  0  0  0  0  0  0  0
   -3.0677    2.8939    1.4229 O   0  0  0  0  0  0  0  0  0  0  0  0
   -2.3260    2.2624   -0.6455 O   0  0  0  0  0  0  0  0  0  0  0  0
   -1.7038    1.1578   -0.1069 C   0  0  0  0  0  0  0  0  0  0  0  0
   -2.3949   -0.0281   -0.0028 C   0  0  0  0  0  0  0  0  0  0  0  0
   -1.8004   -1.1491    0.5310 C   0  0  0  0  0  0  0  0  0  0  0  0
   -2.5329   -2.3136    0.6144 O   0  0  0  0  0  0  0  0  0  0  0  0
   -2.5388   -3.2308   -0.4149 C   0  0  0  0  0  0  0  0  0  0  0  0
   -1.8505   -2.9640   -1.4322 O   0  0  0  0  0  0  0  0  0  0  0  0
   -3.3023   -4.4421   -0.3250 N   0  0  0  0  0  0  0  0  0  0  0  0
   -3.3040   -5.3952   -1.4033 C   0  0  0  0  0  0  0  0  0  0  0  0
   -4.0712   -4.6855    0.8735 C   0  0  0  0  0  0  0  0  0  0  0  0
   -0.4983   -1.0413    0.9539 C   0  0  0  0  0  0  0  0  0  0  0  0
    0.2260    0.1304    0.8655 C   0  0  0  0  0  0  0  0  0  0  0  0
    1.6054    0.1245    1.3484 C   0  0  0  0  0  0  0  0  0  0  0  0
    1.7984    1.2896    2.1048 O   0  0  0  0  0  0  0  0  0  0  0  0
    2.6461    0.0344    0.2794 C   0  0  0  0  0  0  0  0  0  0  0  0
    3.9443    0.0008    0.9548 N   0  0  0  0  0  0  0  0  0  0  0  0
    5.0380   -0.0874    0.0182 C   0  0  0  0  0  0  0  0  0  0  0  0
    6.3169   -0.1149    0.8303 C   0  0  0  0  0  0  0  0  0  0  0  0
    5.1095    1.1749   -0.8442 C   0  0  0  0  0  0  0  0  0  0  0  0
    4.9895   -1.2959   -0.8502 C   0  0  0  0  0  0  0  0  0  0  0  0
   -0.4054    1.2276    0.3258 C   0  0  0  0  0  0  0  0  0  0  0  0
   -2.7793    5.2484   -1.9750 H   0  0  0  0  0  0  0  0  0  0  0  0
   -4.5995    4.9464   -2.0512 H   0  0  0  0  0  0  0  0  0  0  0  0
   -3.3606    3.6018   -2.2825 H   0  0  0  0  0  0  0  0  0  0  0  0
   -5.4797    5.1759    0.3248 H   0  0  0  0  0  0  0  0  0  0  0  0
   -3.9470    6.1759    0.5101 H   0  0  0  0  0  0  0  0  0  0  0  0
   -4.3201    4.8581    1.6405 H   0  0  0  0  0  0  0  0  0  0  0  0
   -3.4308   -0.0683   -0.3525 H   0  0  0  0  0  0  0  0  0  0  0  0
   -3.3105   -4.9074   -2.4042 H   0  0  0  0  0  0  0  0  0  0  0  0
   -4.1600   -6.0885   -1.2659 H   0  0  0  0  0  0  0  0  0  0  0  0
   -2.3543   -5.9987   -1.3778 H   0  0  0  0  0  0  0  0  0  0  0  0
   -3.5165   -5.4626    1.4511 H   0  0  0  0  0  0  0  0  0  0  0  0
   -5.0826   -5.0543    0.6139 H   0  0  0  0  0  0  0  0  0  0  0  0
   -4.2026   -3.7725    1.4847 H   0  0  0  0  0  0  0  0  0  0  0  0
   -0.0570   -1.9542    1.3736 H   0  0  0  0  0  0  0  0  0  0  0  0
    1.7472   -0.7365    2.0309 H   0  0  0  0  0  0  0  0  0  0  0  0
    1.6999    1.1325    3.0674 H   0  0  0  0  0  0  0  0  0  0  0  0
    2.6803    0.9363   -0.3759 H   0  0  0  0  0  0  0  0  0  0  0  0
    2.4975   -0.8271   -0.3715 H   0  0  0  0  0  0  0  0  0  0  0  0
    4.0893    0.8759    1.5059 H   0  0  0  0  0  0  0  0  0  0  0  0
    6.6410    0.9065    1.1261 H   0  0  0  0  0  0  0  0  0  0  0  0
    6.1761   -0.6738    1.7876 H   0  0  0  0  0  0  0  0  0  0  0  0
    7.1535   -0.5866    0.2928 H   0  0  0  0  0  0  0  0  0  0  0  0
    4.3758    1.0984   -1.6512 H   0  0  0  0  0  0  0  0  0  0  0  0
    4.9831    2.0723   -0.2274 H   0  0  0  0  0  0  0  0  0  0  0  0
    6.1582    1.1845   -1.2517 H   0  0  0  0  0  0  0  0  0  0  0  0
    4.1540   -1.9940   -0.6155 H   0  0  0  0  0  0  0  0  0  0  0  0
    5.9196   -1.9093   -0.7445 H   0  0  0  0  0  0  0  0  0  0  0  0
    4.9724   -0.9893   -1.9289 H   0  0  0  0  0  0  0  0  0  0  0  0
    0.1830    2.1414    0.2650 H   0  0  0  0  0  0  0  0  0  0  0  0
  1  2  1  0
  2  3  1  0
  2  4  1  0
  4  5  2  0
  4  6  1  0
  6  7  1  0
  7  8  2  0
  8  9  1  0
  9 10  1  0
 10 11  1  0
 11 12  2  0
 11 13  1  0
 13 14  1  0
 13 15  1  0
  9 16  2  0
 16 17  1  0
 17 18  1  0
 18 19  1  0
 18 20  1  0
 20 21  1  0
 21 22  1  0
 22 23  1  0
 22 24  1  0
 22 25  1  0
 17 26  2  0
 26  7  1  0
  1 27  1  0
  1 28  1  0
  1 29  1  0
  3 30  1  0
  3 31  1  0
  3 32  1  0
  8 33  1  0
 14 34  1  0
 14 35  1  0
 14 36  1  0
 15 37  1  0
 15 38  1  0
 15 39  1  0
 16 40  1  0
 18 41  1  0
 19 42  1  0
 20 43  1  0
 20 44  1  0
 21 45  1  0
 23 46  1  0
 23 47  1  0
 23 48  1  0
 24 49  1  0
 24 50  1  0
 24 51  1  0
 25 52  1  0
 25 53  1  0
 25 54  1  0
 26 55  1  0
M  END
$$$$
