@<TRIPOS>MOLECULE
*****
 55 55 0 0 0
SMALL
GASTEIGER

@<TRIPOS>ATOM
      1 C          -3.6118    4.5376   -1.7265 C.3     1  UNL1        0.0060
      2 N          -3.6810    4.2860   -0.3068 N.am    1  UNL1       -0.2732
      3 C          -4.3882    5.1582    0.5971 C.3     1  UNL1        0.0060
      4 C          -3.0268    3.1386    0.2038 C.2     1  UNL1        0.4077
      5 O          -3.0677    2.8939    1.4229 O.2     1  UNL1       -0.2258
      6 O          -2.3260    2.2624   -0.6455 O.3     1  UNL1       -0.4113
      7 C          -1.7038    1.1578   -0.1069 C.ar    1  UNL1        0.1371
      8 C          -2.3949   -0.0281   -0.0028 C.ar    1  UNL1        0.0233
      9 C          -1.8004   -1.1491    0.5310 C.ar    1  UNL1        0.1371
     10 O          -2.5329   -2.3136    0.6144 O.3     1  UNL1       -0.4113
     11 C          -2.5388   -3.2308   -0.4149 C.2     1  UNL1        0.4077
     12 O          -1.8505   -2.9640   -1.4322 O.2     1  UNL1       -0.2258
     13 N          -3.3023   -4.4421   -0.3250 N.am    1  UNL1       -0.2732
     14 C          -3.3040   -5.3952   -1.4033 C.3     1  UNL1        0.0060
     15 C          -4.0712   -4.6855    0.8735 C.3     1  UNL1        0.0060
     16 C          -0.4983   -1.0413    0.9539 C.ar    1  UNL1       -0.0133
     17 C           0.2260    0.1304    0.8655 C.ar    1  UNL1       -0.0110
     18 C           1.6054    0.1245    1.3484 C.3     1  UNL1        0.0928
     19 O           1.7984    1.2896    2.1048 O.3     1  UNL1       -0.3859
     20 C           2.6461    0.0344    0.2794 C.3     1  UNL1        0.0266
     21 N           3.9443    0.0008    0.9548 N.3     1  UNL1       -0.3085
     22 C           5.0380   -0.0874    0.0182 C.3     1  UNL1        0.0108
     23 C           6.3169   -0.1149    0.8303 C.3     1  UNL1       -0.0473
     24 C           5.1095    1.1749   -0.8442 C.3     1  UNL1       -0.0473
     25 C           4.9895   -1.2959   -0.8502 C.3     1  UNL1       -0.0473
     26 C          -0.4054    1.2276    0.3258 C.ar    1  UNL1       -0.0133
     27 H          -2.7793    5.2484   -1.9750 H       1  UNL1        0.0429
     28 H          -4.5995    4.9464   -2.0512 H       1  UNL1        0.0429
     29 H          -3.3606    3.6018   -2.2825 H       1  UNL1        0.0429
     30 H          -5.4797    5.1759    0.3248 H       1  UNL1        0.0429
     31 H          -3.9470    6.1759    0.5101 H       1  UNL1        0.0429
     32 H          -4.3201    4.8581    1.6405 H       1  UNL1        0.0429
     33 H          -3.4308   -0.0683   -0.3525 H       1  UNL1        0.0691
     34 H          -3.3105   -4.9074   -2.4042 H       1  UNL1        0.0429
     35 H          -4.1600   -6.0885   -1.2659 H       1  UNL1        0.0429
     36 H          -2.3543   -5.9987   -1.3778 H       1  UNL1        0.0429
     37 H          -3.5165   -5.4626    1.4511 H       1  UNL1        0.0429
     38 H          -5.0826   -5.0543    0.6139 H       1  UNL1        0.0429
     39 H          -4.2026   -3.7725    1.4847 H       1  UNL1        0.0429
     40 H          -0.0570   -1.9542    1.3736 H       1  UNL1        0.0658
     41 H           1.7472   -0.7365    2.0309 H       1  UNL1        0.0656
     42 H           1.6999    1.1325    3.0674 H       1  UNL1        0.2103
     43 H           2.6803    0.9363   -0.3759 H       1  UNL1        0.0453
     44 H           2.4975   -0.8271   -0.3715 H       1  UNL1        0.0453
     45 H           4.0893    0.8759    1.5059 H       1  UNL1        0.1225
     46 H           6.6410    0.9065    1.1261 H       1  UNL1        0.0247
     47 H           6.1761   -0.6738    1.7876 H       1  UNL1        0.0247
     48 H           7.1535   -0.5866    0.2928 H       1  UNL1        0.0247
     49 H           4.3758    1.0984   -1.6512 H       1  UNL1        0.0247
     50 H           4.9831    2.0723   -0.2274 H       1  UNL1        0.0247
     51 H           6.1582    1.1845   -1.2517 H       1  UNL1        0.0247
     52 H           4.1540   -1.9940   -0.6155 H       1  UNL1        0.0247
     53 H           5.9196   -1.9093   -0.7445 H       1  UNL1        0.0247
     54 H           4.9724   -0.9893   -1.9289 H       1  UNL1        0.0247
     55 H           0.1830    2.1414    0.2650 H       1  UNL1        0.0658
@<TRIPOS>BOND
     1     1     2    1
     2     2     3    1
     3     2     4   am
     4     4     5    2
     5     4     6    1
     6     6     7    1
     7     7     8   ar
     8     8     9   ar
     9     9    10    1
    10    10    11    1
    11    11    12    2
    12    11    13   am
    13    13    14    1
    14    13    15    1
    15     9    16   ar
    16    16    17   ar
    17    17    18    1
    18    18    19    1
    19    18    20    1
    20    20    21    1
    21    21    22    1
    22    22    23    1
    23    22    24    1
    24    22    25    1
    25    17    26   ar
    26    26     7   ar
    27     1    27    1
    28     1    28    1
    29     1    29    1
    30     3    30    1
    31     3    31    1
    32     3    32    1
    33     8    33    1
    34    14    34    1
    35    14    35    1
    36    14    36    1
    37    15    37    1
    38    15    38    1
    39    15    39    1
    40    16    40    1
    41    18    41    1
    42    19    42    1
    43    20    43    1
    44    20    44    1
    45    21    45    1
    46    23    46    1
    47    23    47    1
    48    23    48    1
    49    24    49    1
    50    24    50    1
    51    24    51    1
    52    25    52    1
    53    25    53    1
    54    25    54    1
    55    26    55    1
