@<TRIPOS>MOLECULE
*****
 33 35 0 0 0
SMALL
GASTEIGER

@<TRIPOS>ATOM
      1 C           4.3521    2.6093   -1.2241 C.3     1  UNL1        0.0004
      2 N           3.6527    1.3392   -1.2015 N.am    1  UNL1       -0.3143
      3 C           3.3815    0.7121    0.0237 C.2     1  UNL1        0.2464
      4 O           3.7708    1.2974    1.0899 O.2     1  UNL1       -0.2701
      5 C           2.6912   -0.5547    0.1637 C.ar    1  UNL1        0.0691
      6 C           3.3294   -1.7668    0.3115 C.ar    1  UNL1        0.0429
      7 N           2.5153   -2.8366    0.4263 N.ar    1  UNL1       -0.2393
      8 C           1.1816   -2.7938    0.4064 C.ar    1  UNL1        0.1245
      9 N           0.5095   -4.0370    0.5434 N.pl3   1  UNL1       -0.3426
     10 C           0.4845   -1.5702    0.2567 C.ar    1  UNL1        0.0300
     11 C          -0.8513   -1.3857    0.2197 C.ar    1  UNL1       -0.0359
     12 C          -1.3411   -0.1275    0.0674 C.ar    1  UNL1        0.0206
     13 C          -2.6701    0.4504   -0.0141 C.ar    1  UNL1       -0.0113
     14 C          -3.7557   -0.3536    0.0679 C.ar    1  UNL1       -0.0535
     15 C          -5.0380    0.2023   -0.0117 C.ar    1  UNL1       -0.0612
     16 C          -5.1851    1.5643   -0.1733 C.ar    1  UNL1       -0.0617
     17 C          -4.0467    2.3727   -0.2553 C.ar    1  UNL1       -0.0612
     18 C          -2.8034    1.7902   -0.1728 C.ar    1  UNL1       -0.0535
     19 S           0.2161    0.8472   -0.0278 S.2     1  UNL1       -0.0873
     20 C           1.2850   -0.4876    0.1400 C.ar    1  UNL1        0.0367
     21 H           5.4590    2.4814   -1.2682 H       1  UNL1        0.0426
     22 H           3.9865    3.2263   -2.0941 H       1  UNL1        0.0426
     23 H           4.0456    3.1959   -0.3233 H       1  UNL1        0.0426
     24 H           3.3319    0.8544   -2.0882 H       1  UNL1        0.1487
     25 H           4.3900   -1.8052    0.3286 H       1  UNL1        0.0838
     26 H           0.7314   -4.7331    1.2893 H       1  UNL1        0.1437
     27 H          -0.2649   -4.3249   -0.1169 H       1  UNL1        0.1437
     28 H          -1.5921   -2.2434    0.3110 H       1  UNL1        0.0636
     29 H          -3.6414   -1.4057    0.1913 H       1  UNL1        0.0624
     30 H          -5.9190   -0.4212    0.0511 H       1  UNL1        0.0618
     31 H          -6.1389    2.0573   -0.2419 H       1  UNL1        0.0618
     32 H          -4.1487    3.4424   -0.3828 H       1  UNL1        0.0618
     33 H          -1.9177    2.4042   -0.2354 H       1  UNL1        0.0624
@<TRIPOS>BOND
     1     1     2    1
     2     2     3   am
     3     3     4    2
     4     3     5    1
     5     5     6   ar
     6     6     7   ar
     7     7     8   ar
     8     8     9    1
     9     8    10   ar
    10    10    11   ar
    11    11    12   ar
    12    12    13    1
    13    13    14   ar
    14    14    15   ar
    15    15    16   ar
    16    16    17   ar
    17    17    18   ar
    18    12    19   ar
    19    19    20   ar
    20    20     5   ar
    21    20    10   ar
    22    18    13   ar
    23     1    21    1
    24     1    22    1
    25     1    23    1
    26     2    24    1
    27     6    25    1
    28     9    26    1
    29     9    27    1
    30    11    28    1
    31    14    29    1
    32    15    30    1
    33    16    31    1
    34    17    32    1
    35    18    33    1
