
     RDKit          3D

 53 58  0  0  0  0  0  0  0  0999 V2000
    3.8196    0.4077    2.6868 F   0  0  0  0  0  0  0  0  0  0  0  0
    3.2291    0.2166    1.4740 C   0  0  0  0  0  0  0  0  0  0  0  0
    1.8700    0.4423    1.2911 C   0  0  0  0  0  0  0  0  0  0  0  0
    1.2766    0.2491    0.0670 C   0  0  0  0  0  0  0  0  0  0  0  0
   -0.1398    0.4716   -0.1735 C   0  0  0  0  0  0  0  0  0  0  0  0
   -1.1028    0.2669    0.7939 C   0  0  0  0  0  0  0  0  0  0  0  0
   -2.4053    0.4833    0.5361 N   0  0  0  0  0  0  0  0  0  0  0  0
   -2.7810    0.9047   -0.6782 C   0  0  0  0  0  0  0  0  0  0  0  0
   -4.0195    1.1960   -1.1931 C   0  0  0  0  0  0  0  0  0  0  0  0
   -5.2882    1.1003   -0.4692 C   0  0  0  0  0  0  0  0  0  0  0  0
   -5.7766    2.1794    0.2366 C   0  0  0  0  0  0  0  0  0  0  0  0
   -6.9847    2.0790    0.9236 C   0  0  0  0  0  0  0  0  0  0  0  0
   -7.7319    0.9176    0.9279 C   0  0  0  0  0  0  0  0  0  0  0  0
   -7.2352   -0.1589    0.2179 C   0  0  0  0  0  0  0  0  0  0  0  0
   -7.9479   -1.3208    0.2011 N   0  0  0  0  0  0  0  0  0  0  0  0
   -7.4696   -2.3709   -0.4879 C   0  0  0  0  0  0  0  0  0  0  0  0
   -6.2760   -2.2873   -1.1725 C   0  0  0  0  0  0  0  0  0  0  0  0
   -5.5295   -1.1286   -1.1772 C   0  0  0  0  0  0  0  0  0  0  0  0
   -6.0391   -0.0562   -0.4609 C   0  0  0  0  0  0  0  0  0  0  0  0
   -3.8417    1.5918   -2.5079 C   0  0  0  0  0  0  0  0  0  0  0  0
   -2.5204    1.5309   -2.7511 N   0  0  0  0  0  0  0  0  0  0  0  0
   -1.8890    1.1218   -1.6620 N   0  0  0  0  0  0  0  0  0  0  0  0
   -0.5857    0.9082   -1.4130 C   0  0  0  0  0  0  0  0  0  0  0  0
    2.0547   -0.1756   -0.9881 C   0  0  0  0  0  0  0  0  0  0  0  0
    3.4174   -0.4111   -0.8408 C   0  0  0  0  0  0  0  0  0  0  0  0
    3.9972   -0.2073    0.4148 C   0  0  0  0  0  0  0  0  0  0  0  0
    5.3864   -0.4611    0.5169 N   0  0  0  0  0  0  0  0  0  0  0  0
    5.9247   -1.4533    1.4154 C   0  0  0  0  0  0  0  0  0  0  0  0
    7.2731   -1.8825    0.8301 C   0  0  0  0  0  0  0  0  0  0  0  0
    8.1446   -0.7502    0.8610 N   0  0  0  0  0  0  0  0  0  0  0  0
    7.5703    0.4895    0.4486 C   0  0  0  0  0  0  0  0  0  0  0  0
    6.2965    0.2997   -0.3067 C   0  0  0  0  0  0  0  0  0  0  0  0
    1.2446    0.7762    2.1081 H   0  0  0  0  0  0  0  0  0  0  0  0
   -0.7931   -0.0729    1.7710 H   0  0  0  0  0  0  0  0  0  0  0  0
   -5.2035    3.1066    0.2474 H   0  0  0  0  0  0  0  0  0  0  0  0
   -7.3758    2.9188    1.4797 H   0  0  0  0  0  0  0  0  0  0  0  0
   -8.6630    0.8611    1.4655 H   0  0  0  0  0  0  0  0  0  0  0  0
   -7.9867   -3.3258   -0.5431 H   0  0  0  0  0  0  0  0  0  0  0  0
   -5.8748   -3.1314   -1.7367 H   0  0  0  0  0  0  0  0  0  0  0  0
   -4.5963   -1.0657   -1.7131 H   0  0  0  0  0  0  0  0  0  0  0  0
   -4.6396    1.8934   -3.2011 H   0  0  0  0  0  0  0  0  0  0  0  0
    0.1058    1.0900   -2.2177 H   0  0  0  0  0  0  0  0  0  0  0  0
    1.6508   -0.3458   -1.9740 H   0  0  0  0  0  0  0  0  0  0  0  0
    4.0132   -0.7445   -1.6800 H   0  0  0  0  0  0  0  0  0  0  0  0
    6.1568   -1.0465    2.4202 H   0  0  0  0  0  0  0  0  0  0  0  0
    5.3092   -2.3690    1.4794 H   0  0  0  0  0  0  0  0  0  0  0  0
    7.7151   -2.6753    1.4713 H   0  0  0  0  0  0  0  0  0  0  0  0
    7.1397   -2.3277   -0.1684 H   0  0  0  0  0  0  0  0  0  0  0  0
    9.1147   -0.9198    0.5811 H   0  0  0  0  0  0  0  0  0  0  0  0
    8.2713    1.1234   -0.1397 H   0  0  0  0  0  0  0  0  0  0  0  0
    7.3250    1.1061    1.3624 H   0  0  0  0  0  0  0  0  0  0  0  0
    6.5284   -0.3096   -1.2200 H   0  0  0  0  0  0  0  0  0  0  0  0
    5.8621    1.2659   -0.6320 H   0  0  0  0  0  0  0  0  0  0  0  0
  1  2  1  0
  2  3  2  0
  3  4  1  0
  4  5  1  0
  5  6  1  0
  6  7  2  0
  7  8  1  0
  8  9  2  0
  9 10  1  0
 10 11  2  0
 11 12  1  0
 12 13  2  0
 13 14  1  0
 14 15  2  0
 15 16  1  0
 16 17  2  0
 17 18  1  0
 18 19  2  0
  9 20  1  0
 20 21  2  0
 21 22  1  0
 22 23  1  0
  4 24  2  0
 24 25  1  0
 25 26  2  0
 26 27  1  0
 27 28  1  0
 28 29  1  0
 29 30  1  0
 30 31  1  0
 31 32  1  0
 26  2  1  0
 32 27  1  0
 23  5  2  0
 22  8  1  0
 19 10  1  0
 19 14  1  0
  3 33  1  0
  6 34  1  0
 11 35  1  0
 12 36  1  0
 13 37  1  0
 16 38  1  0
 17 39  1  0
 18 40  1  0
 20 41  1  0
 23 42  1  0
 24 43  1  0
 25 44  1  0
 28 45  1  0
 28 46  1  0
 29 47  1  0
 29 48  1  0
 30 49  1  0
 31 50  1  0
 31 51  1  0
 32 52  1  0
 32 53  1  0
M  END
$$$$
