@<TRIPOS>MOLECULE
*****
 53 58 0 0 0
SMALL
GASTEIGER

@<TRIPOS>ATOM
      1 F           3.8196    0.4077    2.6868 F       1  UNL1       -0.2035
      2 C           3.2291    0.2166    1.4740 C.ar    1  UNL1        0.1449
      3 C           1.8700    0.4423    1.2911 C.ar    1  UNL1       -0.0168
      4 C           1.2766    0.2491    0.0670 C.ar    1  UNL1       -0.0122
      5 C          -0.1398    0.4716   -0.1735 C.ar    1  UNL1        0.0185
      6 C          -1.1028    0.2669    0.7939 C.ar    1  UNL1        0.0391
      7 N          -2.4053    0.4833    0.5361 N.ar    1  UNL1       -0.2350
      8 C          -2.7810    0.9047   -0.6782 C.ar    1  UNL1        0.1632
      9 C          -4.0195    1.1960   -1.1931 C.ar    1  UNL1        0.0466
     10 C          -5.2882    1.1003   -0.4692 C.ar    1  UNL1       -0.0037
     11 C          -5.7766    2.1794    0.2366 C.ar    1  UNL1       -0.0532
     12 C          -6.9847    2.0790    0.9236 C.ar    1  UNL1       -0.0591
     13 C          -7.7319    0.9176    0.9279 C.ar    1  UNL1       -0.0357
     14 C          -7.2352   -0.1589    0.2179 C.ar    1  UNL1        0.0715
     15 N          -7.9479   -1.3208    0.2011 N.ar    1  UNL1       -0.2550
     16 C          -7.4696   -2.3709   -0.4879 C.ar    1  UNL1        0.0283
     17 C          -6.2760   -2.2873   -1.1725 C.ar    1  UNL1       -0.0430
     18 C          -5.5295   -1.1286   -1.1772 C.ar    1  UNL1       -0.0506
     19 C          -6.0391   -0.0562   -0.4609 C.ar    1  UNL1        0.0082
     20 C          -3.8417    1.5918   -2.5079 C.ar    1  UNL1        0.0597
     21 N          -2.5204    1.5309   -2.7511 N.ar    1  UNL1       -0.1727
     22 N          -1.8890    1.1218   -1.6620 N.ar    1  UNL1       -0.2206
     23 C          -0.5857    0.9082   -1.4130 C.ar    1  UNL1        0.0406
     24 C           2.0547   -0.1756   -0.9881 C.ar    1  UNL1       -0.0520
     25 C           3.4174   -0.4111   -0.8408 C.ar    1  UNL1       -0.0373
     26 C           3.9972   -0.2073    0.4148 C.ar    1  UNL1        0.0655
     27 N           5.3864   -0.4611    0.5169 N.pl3   1  UNL1       -0.3253
     28 C           5.9247   -1.4533    1.4154 C.3     1  UNL1        0.0248
     29 C           7.2731   -1.8825    0.8301 C.3     1  UNL1        0.0117
     30 N           8.1446   -0.7502    0.8610 N.3     1  UNL1       -0.3130
     31 C           7.5703    0.4895    0.4486 C.3     1  UNL1        0.0117
     32 C           6.2965    0.2997   -0.3067 C.3     1  UNL1        0.0248
     33 H           1.2446    0.7762    2.1081 H       1  UNL1        0.0653
     34 H          -0.7931   -0.0729    1.7710 H       1  UNL1        0.0837
     35 H          -5.2035    3.1066    0.2474 H       1  UNL1        0.0624
     36 H          -7.3758    2.9188    1.4797 H       1  UNL1        0.0618
     37 H          -8.6630    0.8611    1.4655 H       1  UNL1        0.0639
     38 H          -7.9867   -3.3258   -0.5431 H       1  UNL1        0.0830
     39 H          -5.8748   -3.1314   -1.7367 H       1  UNL1        0.0633
     40 H          -4.5963   -1.0657   -1.7131 H       1  UNL1        0.0625
     41 H          -4.6396    1.8934   -3.2011 H       1  UNL1        0.0855
     42 H           0.1058    1.0900   -2.2177 H       1  UNL1        0.0837
     43 H           1.6508   -0.3458   -1.9740 H       1  UNL1        0.0624
     44 H           4.0132   -0.7445   -1.6800 H       1  UNL1        0.0637
     45 H           6.1568   -1.0465    2.4202 H       1  UNL1        0.0476
     46 H           5.3092   -2.3690    1.4794 H       1  UNL1        0.0476
     47 H           7.7151   -2.6753    1.4713 H       1  UNL1        0.0439
     48 H           7.1397   -2.3277   -0.1684 H       1  UNL1        0.0439
     49 H           9.1147   -0.9198    0.5811 H       1  UNL1        0.1220
     50 H           8.2713    1.1234   -0.1397 H       1  UNL1        0.0439
     51 H           7.3250    1.1061    1.3624 H       1  UNL1        0.0439
     52 H           6.5284   -0.3096   -1.2200 H       1  UNL1        0.0476
     53 H           5.8621    1.2659   -0.6320 H       1  UNL1        0.0476
@<TRIPOS>BOND
     1     1     2    1
     2     2     3   ar
     3     3     4   ar
     4     4     5    1
     5     5     6   ar
     6     6     7   ar
     7     7     8   ar
     8     8     9   ar
     9     9    10    1
    10    10    11   ar
    11    11    12   ar
    12    12    13   ar
    13    13    14   ar
    14    14    15   ar
    15    15    16   ar
    16    16    17   ar
    17    17    18   ar
    18    18    19   ar
    19     9    20   ar
    20    20    21   ar
    21    21    22   ar
    22    22    23   ar
    23     4    24   ar
    24    24    25   ar
    25    25    26   ar
    26    26    27    1
    27    27    28    1
    28    28    29    1
    29    29    30    1
    30    30    31    1
    31    31    32    1
    32    26     2   ar
    33    32    27    1
    34    23     5   ar
    35    22     8   ar
    36    19    10   ar
    37    19    14   ar
    38     3    33    1
    39     6    34    1
    40    11    35    1
    41    12    36    1
    42    13    37    1
    43    16    38    1
    44    17    39    1
    45    18    40    1
    46    20    41    1
    47    23    42    1
    48    24    43    1
    49    25    44    1
    50    28    45    1
    51    28    46    1
    52    29    47    1
    53    29    48    1
    54    30    49    1
    55    31    50    1
    56    31    51    1
    57    32    52    1
    58    32    53    1
