@<TRIPOS>MOLECULE
*****
 61 66 0 0 0
SMALL
GASTEIGER

@<TRIPOS>ATOM
      1 C          10.3262   -1.4385   -1.9676 C.3     1  UNL1        0.0805
      2 O           9.5299   -0.3401   -1.6389 O.3     1  UNL1       -0.4786
      3 C           8.2899   -0.4150   -1.0790 C.ar    1  UNL1        0.2332
      4 C           7.5721    0.7202   -0.7866 C.ar    1  UNL1        0.0899
      5 N           6.3449    0.6235   -0.2318 N.ar    1  UNL1       -0.2435
      6 C           5.7892   -0.5707    0.0504 C.ar    1  UNL1        0.1439
      7 C           4.4653   -0.6615    0.6483 C.2     1  UNL1        0.2681
      8 O           3.9589   -1.7684    0.9062 O.2     1  UNL1       -0.2681
      9 N           3.7411    0.5136    0.9422 N.am    1  UNL1       -0.2802
     10 C           2.4232    0.4631    1.5365 C.ar    1  UNL1        0.0343
     11 C           2.2519    0.4673    2.8931 C.ar    1  UNL1       -0.0370
     12 C           0.9685    0.4173    3.3873 C.ar    1  UNL1       -0.0172
     13 C          -0.1496    0.3630    2.5401 C.ar    1  UNL1        0.1346
     14 C           0.0017    0.3583    1.1775 C.ar    1  UNL1        0.0285
     15 C           1.3265    0.4101    0.7131 C.ar    1  UNL1       -0.0312
     16 C          -1.1198    0.3094    0.1973 C.3     1  UNL1        0.1217
     17 C          -1.2269    1.5973   -0.5779 C.3     1  UNL1       -0.0096
     18 C          -0.4152    1.7317   -1.7983 C.3     1  UNL1        0.0037
     19 S          -0.2173    0.2375   -2.7652 S.3     1  UNL1       -0.0910
     20 C          -0.7947   -1.1042   -1.7691 C.2     1  UNL1        0.1478
     21 N          -0.8784   -2.3877   -2.3303 N.pl3   1  UNL1       -0.3380
     22 N          -1.1190   -0.8834   -0.5784 N.2     1  UNL1       -0.2472
     23 C          -2.4036    0.2516    0.9755 C.ar    1  UNL1        0.0332
     24 C          -3.5646    0.1926    0.1792 C.ar    1  UNL1       -0.0265
     25 C          -4.7925    0.1427    0.7567 C.ar    1  UNL1        0.0705
     26 C          -6.0363    0.0822    0.0142 C.2     1  UNL1       -0.0215
     27 C          -7.2227    0.0278    0.6518 C.2     1  UNL1       -0.0534
     28 C          -8.4269   -0.0313   -0.2127 C.3     1  UNL1        0.0665
     29 O          -8.3611    0.9874   -1.1486 O.3     1  UNL1       -0.3754
     30 C          -7.2681    0.9402   -1.9733 C.3     1  UNL1        0.0521
     31 C          -6.1348    0.0750   -1.4647 C.3     1  UNL1       -0.0024
     32 N          -4.8727    0.1507    2.1060 N.ar    1  UNL1       -0.2164
     33 C          -3.8122    0.2048    2.8849 C.ar    1  UNL1        0.2566
     34 F          -3.8653    0.2143    4.2553 F       1  UNL1       -0.1799
     35 C          -2.5447    0.2566    2.3106 C.ar    1  UNL1        0.1883
     36 O          -1.4116    0.3128    3.1034 O.3     1  UNL1       -0.4508
     37 C           6.5208   -1.7034   -0.2483 C.ar    1  UNL1        0.0619
     38 N           7.7461   -1.6089   -0.8021 N.ar    1  UNL1       -0.2178
     39 H          11.3034   -1.4618   -1.4659 H       1  UNL1        0.0660
     40 H           9.7949   -2.4142   -1.7666 H       1  UNL1        0.0660
     41 H          10.5137   -1.4429   -3.0627 H       1  UNL1        0.0660
     42 H           8.0009    1.6846   -1.0055 H       1  UNL1        0.0884
     43 H           4.1941    1.4266    0.7137 H       1  UNL1        0.1552
     44 H           3.1071    0.5089    3.5468 H       1  UNL1        0.0637
     45 H           0.7909    0.4188    4.4739 H       1  UNL1        0.0655
     46 H           1.5096    0.4065   -0.3376 H       1  UNL1        0.0641
     47 H          -0.9370    2.4406    0.1188 H       1  UNL1        0.0303
     48 H          -2.2933    1.8395   -0.8365 H       1  UNL1        0.0303
     49 H          -0.9019    2.4843   -2.4930 H       1  UNL1        0.0381
     50 H           0.5919    2.2052   -1.6061 H       1  UNL1        0.0381
     51 H          -0.5472   -3.2623   -1.8796 H       1  UNL1        0.1442
     52 H          -1.3179   -2.4563   -3.2938 H       1  UNL1        0.1442
     53 H          -3.4722    0.1852   -0.8871 H       1  UNL1        0.0644
     54 H          -7.2514    0.0291    1.7222 H       1  UNL1        0.0598
     55 H          -9.3612    0.0641    0.3458 H       1  UNL1        0.0604
     56 H          -8.4568   -1.0001   -0.7520 H       1  UNL1        0.0604
     57 H          -7.5913    0.5375   -2.9691 H       1  UNL1        0.0563
     58 H          -6.8936    1.9571   -2.1588 H       1  UNL1        0.0563
     59 H          -6.3409   -0.9846   -1.7996 H       1  UNL1        0.0336
     60 H          -5.1759    0.3890   -1.9187 H       1  UNL1        0.0336
     61 H           6.1157   -2.6929   -0.0394 H       1  UNL1        0.0854
@<TRIPOS>BOND
     1     1     2    1
     2     2     3    1
     3     3     4   ar
     4     4     5   ar
     5     5     6   ar
     6     6     7    1
     7     7     8    2
     8     7     9   am
     9     9    10    1
    10    10    11   ar
    11    11    12   ar
    12    12    13   ar
    13    13    14   ar
    14    14    15   ar
    15    14    16    1
    16    16    17    1
    17    17    18    1
    18    18    19    1
    19    19    20    1
    20    20    21    1
    21    20    22    2
    22    16    23    1
    23    23    24   ar
    24    24    25   ar
    25    25    26    1
    26    26    27    2
    27    27    28    1
    28    28    29    1
    29    29    30    1
    30    30    31    1
    31    25    32   ar
    32    32    33   ar
    33    33    34    1
    34    33    35   ar
    35    35    36    1
    36     6    37   ar
    37    37    38   ar
    38    38     3   ar
    39    15    10   ar
    40    22    16    1
    41    35    23   ar
    42    36    13    1
    43    31    26    1
    44     1    39    1
    45     1    40    1
    46     1    41    1
    47     4    42    1
    48     9    43    1
    49    11    44    1
    50    12    45    1
    51    15    46    1
    52    17    47    1
    53    17    48    1
    54    18    49    1
    55    18    50    1
    56    21    51    1
    57    21    52    1
    58    24    53    1
    59    27    54    1
    60    28    55    1
    61    28    56    1
    62    30    57    1
    63    30    58    1
    64    31    59    1
    65    31    60    1
    66    37    61    1
