
     RDKit          3D

 42 45  0  0  0  0  0  0  0  0999 V2000
   -5.5985   -0.7538    1.9499 N   0  0  0  0  0  0  0  0  0  0  0  0
   -4.6468    0.0283    1.2571 C   0  0  0  0  0  0  0  0  0  0  0  0
   -3.6852   -0.4918    0.5925 N   0  0  0  0  0  0  0  0  0  0  0  0
   -2.6769    0.2530   -0.1415 C   0  0  2  0  0  0  0  0  0  0  0  0
   -3.3489    0.8396   -1.3374 C   0  0  0  0  0  0  0  0  0  0  0  0
   -2.5004    1.5807   -2.1341 F   0  0  0  0  0  0  0  0  0  0  0  0
   -1.5974   -0.6757   -0.4229 C   0  0  0  0  0  0  0  0  0  0  0  0
   -0.2945   -0.4757   -0.0223 C   0  0  0  0  0  0  0  0  0  0  0  0
    0.7288   -1.3800   -0.3277 C   0  0  0  0  0  0  0  0  0  0  0  0
    2.0705   -1.1488    0.0997 N   0  0  0  0  0  0  0  0  0  0  0  0
    3.0270   -0.4388   -0.6621 C   0  0  0  0  0  0  0  0  0  0  0  0
    2.6563    0.0066   -1.7763 O   0  0  0  0  0  0  0  0  0  0  0  0
    4.4035   -0.2165   -0.1943 C   0  0  0  0  0  0  0  0  0  0  0  0
    5.2741    0.4865   -0.9986 C   0  0  0  0  0  0  0  0  0  0  0  0
    6.5714    0.7473   -0.6584 C   0  0  0  0  0  0  0  0  0  0  0  0
    7.0167    0.2741    0.5593 C   0  0  0  0  0  0  0  0  0  0  0  0
    8.6758    0.5981    1.0132 Cl  0  0  0  0  0  0  0  0  0  0  0  0
    6.1373   -0.4257    1.3516 C   0  0  0  0  0  0  0  0  0  0  0  0
    4.8491   -0.6636    0.9724 N   0  0  0  0  0  0  0  0  0  0  0  0
    0.4581   -2.4996   -1.0409 C   0  0  0  0  0  0  0  0  0  0  0  0
   -0.8196   -2.7338   -1.4558 C   0  0  0  0  0  0  0  0  0  0  0  0
   -1.8264   -1.8174   -1.1393 C   0  0  0  0  0  0  0  0  0  0  0  0
   -3.3944   -2.2343   -1.7004 Cl  0  0  0  0  0  0  0  0  0  0  0  0
   -2.2771    1.3902    0.7851 C   0  0  1  0  0  0  0  0  0  0  0  0
   -2.6207    2.7897    0.4901 C   0  0  0  0  0  0  0  0  0  0  0  0
   -3.4366    2.0735    1.4511 C   0  0  1  0  0  0  0  0  0  0  0  0
   -4.6640    1.4395    1.2318 O   0  0  0  0  0  0  0  0  0  0  0  0
   -6.5691   -0.7890    1.6099 H   0  0  0  0  0  0  0  0  0  0  0  0
   -5.3114   -1.2781    2.7844 H   0  0  0  0  0  0  0  0  0  0  0  0
   -4.0033    0.1566   -1.9126 H   0  0  0  0  0  0  0  0  0  0  0  0
   -4.1118    1.6053   -1.0005 H   0  0  0  0  0  0  0  0  0  0  0  0
    0.0171    0.3615    0.5298 H   0  0  0  0  0  0  0  0  0  0  0  0
    2.3419   -1.5320    1.0271 H   0  0  0  0  0  0  0  0  0  0  0  0
    4.9116    0.8494   -1.9464 H   0  0  0  0  0  0  0  0  0  0  0  0
    7.1934    1.3072   -1.3459 H   0  0  0  0  0  0  0  0  0  0  0  0
    6.4968   -0.7868    2.2937 H   0  0  0  0  0  0  0  0  0  0  0  0
    1.2564   -3.2006   -1.2767 H   0  0  0  0  0  0  0  0  0  0  0  0
   -1.0057   -3.6361   -2.0236 H   0  0  0  0  0  0  0  0  0  0  0  0
   -1.4531    1.2465    1.5146 H   0  0  0  0  0  0  0  0  0  0  0  0
   -2.9455    3.1582   -0.5044 H   0  0  0  0  0  0  0  0  0  0  0  0
   -1.9342    3.5853    0.9210 H   0  0  0  0  0  0  0  0  0  0  0  0
   -3.3642    2.4012    2.5368 H   0  0  0  0  0  0  0  0  0  0  0  0
  1  2  1  0
  2  3  2  0
  3  4  1  0
  4  5  1  6
  5  6  1  0
  4  7  1  0
  7  8  2  0
  8  9  1  0
  9 10  1  0
 10 11  1  0
 11 12  2  0
 11 13  1  0
 13 14  2  0
 14 15  1  0
 15 16  2  0
 16 17  1  0
 16 18  1  0
 18 19  2  0
  9 20  2  0
 20 21  1  0
 21 22  2  0
 22 23  1  0
  4 24  1  0
 24 25  1  0
 25 26  1  0
 26 27  1  0
 27  2  1  0
 22  7  1  0
 26 24  1  0
 19 13  1  0
  1 28  1  0
  1 29  1  0
  5 30  1  0
  5 31  1  0
  8 32  1  0
 10 33  1  0
 14 34  1  0
 15 35  1  0
 18 36  1  0
 20 37  1  0
 21 38  1  0
 24 39  1  1
 25 40  1  0
 25 41  1  0
 26 42  1  1
M  END
$$$$
