@<TRIPOS>MOLECULE
*****
 42 45 0 0 0
SMALL
GASTEIGER

@<TRIPOS>ATOM
      1 N          -5.5985   -0.7538    1.9499 N.pl3   1  UNL1       -0.3134
      2 C          -4.6468    0.0283    1.2571 C.2     1  UNL1        0.2763
      3 N          -3.6852   -0.4918    0.5925 N.2     1  UNL1       -0.2225
      4 C          -2.6769    0.2530   -0.1415 C.3     1  UNL1        0.1271
      5 C          -3.3489    0.8396   -1.3374 C.3     1  UNL1        0.1199
      6 F          -2.5004    1.5807   -2.1341 F       1  UNL1       -0.2462
      7 C          -1.5974   -0.6757   -0.4229 C.ar    1  UNL1        0.0030
      8 C          -0.2945   -0.4757   -0.0223 C.ar    1  UNL1       -0.0335
      9 C           0.7288   -1.3800   -0.3277 C.ar    1  UNL1        0.0341
     10 N           2.0705   -1.1488    0.0997 N.am    1  UNL1       -0.2802
     11 C           3.0270   -0.4388   -0.6621 C.2     1  UNL1        0.2666
     12 O           2.6563    0.0066   -1.7763 O.2     1  UNL1       -0.2682
     13 C           4.4035   -0.2165   -0.1943 C.ar    1  UNL1        0.1257
     14 C           5.2741    0.4865   -0.9986 C.ar    1  UNL1       -0.0298
     15 C           6.5714    0.7473   -0.6584 C.ar    1  UNL1       -0.0397
     16 C           7.0167    0.2741    0.5593 C.ar    1  UNL1        0.0591
     17 CL          8.6758    0.5981    1.0132 Cl      1  UNL1       -0.0820
     18 C           6.1373   -0.4257    1.3516 C.ar    1  UNL1        0.0467
     19 N           4.8491   -0.6636    0.9724 N.ar    1  UNL1       -0.2489
     20 C           0.4581   -2.4996   -1.0409 C.ar    1  UNL1       -0.0391
     21 C          -0.8196   -2.7338   -1.4558 C.ar    1  UNL1       -0.0413
     22 C          -1.8264   -1.8174   -1.1393 C.ar    1  UNL1        0.0466
     23 CL         -3.3944   -2.2343   -1.7004 Cl      1  UNL1       -0.0832
     24 C          -2.2771    1.3902    0.7851 C.3     1  UNL1        0.0314
     25 C          -2.6207    2.7897    0.4901 C.3     1  UNL1       -0.0065
     26 C          -3.4366    2.0735    1.4511 C.3     1  UNL1        0.1090
     27 O          -4.6640    1.4395    1.2318 O.2     1  UNL1       -0.4622
     28 H          -6.5691   -0.7890    1.6099 H       1  UNL1        0.1466
     29 H          -5.3114   -1.2781    2.7844 H       1  UNL1        0.1466
     30 H          -4.0033    0.1566   -1.9126 H       1  UNL1        0.0643
     31 H          -4.1118    1.6053   -1.0005 H       1  UNL1        0.0643
     32 H           0.0171    0.3615    0.5298 H       1  UNL1        0.0640
     33 H           2.3419   -1.5320    1.0271 H       1  UNL1        0.1552
     34 H           4.9116    0.8494   -1.9464 H       1  UNL1        0.0641
     35 H           7.1934    1.3072   -1.3459 H       1  UNL1        0.0633
     36 H           6.4968   -0.7868    2.2937 H       1  UNL1        0.0844
     37 H           1.2564   -3.2006   -1.2767 H       1  UNL1        0.0636
     38 H          -1.0057   -3.6361   -2.0236 H       1  UNL1        0.0633
     39 H          -1.4531    1.2465    1.5146 H       1  UNL1        0.0365
     40 H          -2.9455    3.1582   -0.5044 H       1  UNL1        0.0306
     41 H          -1.9342    3.5853    0.9210 H       1  UNL1        0.0306
     42 H          -3.3642    2.4012    2.5368 H       1  UNL1        0.0737
@<TRIPOS>BOND
     1     1     2    1
     2     2     3    2
     3     3     4    1
     4     4     5    1
     5     5     6    1
     6     4     7    1
     7     7     8   ar
     8     8     9   ar
     9     9    10    1
    10    10    11   am
    11    11    12    2
    12    11    13    1
    13    13    14   ar
    14    14    15   ar
    15    15    16   ar
    16    16    17    1
    17    16    18   ar
    18    18    19   ar
    19     9    20   ar
    20    20    21   ar
    21    21    22   ar
    22    22    23    1
    23     4    24    1
    24    24    25    1
    25    25    26    1
    26    26    27    1
    27    27     2    1
    28    22     7   ar
    29    26    24    1
    30    19    13   ar
    31     1    28    1
    32     1    29    1
    33     5    30    1
    34     5    31    1
    35     8    32    1
    36    10    33    1
    37    14    34    1
    38    15    35    1
    39    18    36    1
    40    20    37    1
    41    21    38    1
    42    24    39    1
    43    25    40    1
    44    25    41    1
    45    26    42    1
