@<TRIPOS>MOLECULE
*****
 63 66 0 0 0
SMALL
GASTEIGER

@<TRIPOS>ATOM
      1 N           7.9527    0.8291    2.7808 N.2     1  UNL1       -0.0994
      2 C           7.7661    1.8047    1.9810 C.2     1  UNL1        0.3081
      3 N           8.7826    2.7627    1.7546 N.pl3   1  UNL1       -0.2466
      4 C           6.4947    1.9544    1.2790 C.ar    1  UNL1        0.0654
      5 C           6.1049    3.2580    0.9702 C.ar    1  UNL1       -0.0469
      6 C           4.9077    3.3829    0.3056 C.ar    1  UNL1       -0.0602
      7 C           4.1460    2.2887   -0.0321 C.ar    1  UNL1       -0.0496
      8 C           4.5460    1.0166    0.2791 C.ar    1  UNL1        0.0375
      9 C           3.7443   -0.1733   -0.0866 C.2     1  UNL1        0.2449
     10 O           4.1152   -1.3185    0.2726 O.2     1  UNL1       -0.2702
     11 N           2.5499   -0.0990   -0.8409 N.am    1  UNL1       -0.2963
     12 C           1.7513   -1.2518   -1.2099 C.3     1  UNL1        0.1255
     13 C           0.3554   -1.1436   -0.7302 C.2     1  UNL1        0.2421
     14 O          -0.4647   -2.0612   -0.9752 O.2     1  UNL1       -0.2731
     15 N          -0.1125   -0.0282    0.0085 N.am    1  UNL1       -0.2837
     16 C          -1.4864    0.0293    0.4448 C.ar    1  UNL1        0.0335
     17 C          -1.8862   -0.4745    1.6606 C.ar    1  UNL1       -0.0399
     18 C          -3.1888   -0.4231    2.0682 C.ar    1  UNL1       -0.0522
     19 C          -4.1722    0.1474    1.2603 C.ar    1  UNL1       -0.0159
     20 C          -5.5096    0.1847    1.7857 C.ar    1  UNL1        0.0084
     21 C          -5.8385    1.0691    2.8197 C.ar    1  UNL1       -0.0522
     22 C          -7.1132    1.1537    3.3203 C.ar    1  UNL1       -0.0611
     23 C          -8.1204    0.3538    2.8057 C.ar    1  UNL1       -0.0599
     24 C          -7.8135   -0.5181    1.7932 C.ar    1  UNL1       -0.0348
     25 C          -6.5095   -0.5977    1.2903 C.ar    1  UNL1        0.1127
     26 S          -6.2456   -1.7682    0.0457 S.O2    1  UNL1        0.0565
     27 N          -7.6969   -2.6397   -0.3292 N.3     1  UNL1       -0.2035
     28 O          -5.2240   -2.7921    0.5126 O.2     1  UNL1       -0.1532
     29 O          -5.8049   -1.0870   -1.2099 O.2     1  UNL1       -0.1532
     30 C          -3.7715    0.6541    0.0412 C.ar    1  UNL1       -0.0522
     31 C          -2.4548    0.5976   -0.3616 C.ar    1  UNL1       -0.0399
     32 C           1.8008   -1.4851   -2.6822 C.ar    1  UNL1       -0.0184
     33 C           1.9678   -2.7578   -3.1893 C.ar    1  UNL1       -0.0563
     34 C           2.0184   -3.0260   -4.5373 C.ar    1  UNL1       -0.0614
     35 C           1.8967   -1.9747   -5.4317 C.ar    1  UNL1       -0.0617
     36 C           1.7301   -0.7030   -4.9258 C.ar    1  UNL1       -0.0614
     37 C           1.6808   -0.4470   -3.5759 C.ar    1  UNL1       -0.0563
     38 C           5.7487    0.8513    0.9506 C.ar    1  UNL1       -0.0348
     39 H           7.2701    0.0855    3.0047 H       1  UNL1        0.3633
     40 H           8.7000    3.4091    0.9577 H       1  UNL1        0.2884
     41 H           9.5936    2.7906    2.4056 H       1  UNL1        0.2884
     42 H           6.7223    4.1135    1.2469 H       1  UNL1        0.0626
     43 H           4.5728    4.3978    0.0491 H       1  UNL1        0.0618
     44 H           3.1920    2.4356   -0.5652 H       1  UNL1        0.0625
     45 H           2.1987    0.8202   -1.1681 H       1  UNL1        0.1501
     46 H           2.2088   -2.1372   -0.7314 H       1  UNL1        0.0646
     47 H           0.5640    0.7433    0.2252 H       1  UNL1        0.1549
     48 H          -1.1226   -0.9305    2.3161 H       1  UNL1        0.0636
     49 H          -3.4336   -0.8394    3.0415 H       1  UNL1        0.0624
     50 H          -5.0287    1.6853    3.2072 H       1  UNL1        0.0624
     51 H          -7.3716    1.8362    4.1192 H       1  UNL1        0.0618
     52 H          -9.1452    0.4108    3.1932 H       1  UNL1        0.0618
     53 H          -8.6074   -1.1509    1.3835 H       1  UNL1        0.0637
     54 H          -8.0193   -2.4786   -1.2968 H       1  UNL1        0.1442
     55 H          -7.6841   -3.6103   -0.0044 H       1  UNL1        0.1442
     56 H          -4.5275    1.1217   -0.5857 H       1  UNL1        0.0624
     57 H          -2.1283    0.9958   -1.3228 H       1  UNL1        0.0636
     58 H           2.0673   -3.6160   -2.5032 H       1  UNL1        0.0621
     59 H           2.1491   -4.0141   -4.9489 H       1  UNL1        0.0618
     60 H           1.9330   -2.1584   -6.5136 H       1  UNL1        0.0618
     61 H           1.6379    0.1127   -5.6494 H       1  UNL1        0.0618
     62 H           1.5492    0.5611   -3.1967 H       1  UNL1        0.0621
     63 H           6.0629   -0.1528    1.1964 H       1  UNL1        0.0633
@<TRIPOS>BOND
     1     1     2    2
     2     2     3    1
     3     2     4    1
     4     4     5   ar
     5     5     6   ar
     6     6     7   ar
     7     7     8   ar
     8     8     9    1
     9     9    10    2
    10     9    11   am
    11    11    12    1
    12    12    13    1
    13    13    14    2
    14    13    15   am
    15    15    16    1
    16    16    17   ar
    17    17    18   ar
    18    18    19   ar
    19    19    20    1
    20    20    21   ar
    21    21    22   ar
    22    22    23   ar
    23    23    24   ar
    24    24    25   ar
    25    25    26    1
    26    26    27    1
    27    26    28    2
    28    26    29    2
    29    19    30   ar
    30    30    31   ar
    31    12    32    1
    32    32    33   ar
    33    33    34   ar
    34    34    35   ar
    35    35    36   ar
    36    36    37   ar
    37     8    38   ar
    38    38     4   ar
    39    31    16   ar
    40    37    32   ar
    41    25    20   ar
    42     1    39    1
    43     3    40    1
    44     3    41    1
    45     5    42    1
    46     6    43    1
    47     7    44    1
    48    11    45    1
    49    12    46    1
    50    15    47    1
    51    17    48    1
    52    18    49    1
    53    21    50    1
    54    22    51    1
    55    23    52    1
    56    24    53    1
    57    27    54    1
    58    27    55    1
    59    30    56    1
    60    31    57    1
    61    33    58    1
    62    34    59    1
    63    35    60    1
    64    36    61    1
    65    37    62    1
    66    38    63    1
