@<TRIPOS>MOLECULE
*****
 42 45 0 0 0
SMALL
GASTEIGER

@<TRIPOS>ATOM
      1 C           1.5894    1.0389    0.1141 C.3     1  UNL1        0.0344
      2 N           0.7709   -0.1534    0.0867 N.pl3   1  UNL1       -0.3390
      3 C          -0.6290   -0.2152    0.3591 C.ar    1  UNL1        0.0416
      4 C          -1.0086   -0.4343    1.6672 C.ar    1  UNL1        0.0215
      5 C          -0.0747   -0.5904    2.6884 C.ar    1  UNL1       -0.0508
      6 C          -0.4314   -0.8092    3.9965 C.ar    1  UNL1       -0.0610
      7 C          -1.7643   -0.8843    4.3552 C.ar    1  UNL1       -0.0597
      8 C          -2.6870   -0.7294    3.3420 C.ar    1  UNL1       -0.0357
      9 C          -2.3307   -0.5112    2.0380 C.ar    1  UNL1        0.0731
     10 N          -3.2570   -0.3661    1.0842 N.ar    1  UNL1       -0.2512
     11 C          -2.9387   -0.1525   -0.1949 C.ar    1  UNL1        0.0469
     12 C          -1.6197   -0.0714   -0.5910 C.ar    1  UNL1       -0.0047
     13 C          -1.2271    0.1616   -1.9830 C.3     1  UNL1       -0.0242
     14 C          -2.3623    0.6152   -2.8591 C.3     1  UNL1       -0.0486
     15 C          -3.6731   -0.0343   -2.5738 C.3     1  UNL1       -0.0473
     16 C          -4.0645   -0.0133   -1.1274 C.3     1  UNL1       -0.0101
     17 C           3.0063    0.7034   -0.2259 C.ar    1  UNL1       -0.0304
     18 C           3.9803    0.3467    0.7027 C.ar    1  UNL1       -0.0571
     19 C           5.2631    0.0578    0.2586 C.ar    1  UNL1       -0.0615
     20 C           5.6189    0.1093   -1.0772 C.ar    1  UNL1       -0.0617
     21 C           4.6623    0.4630   -2.0207 C.ar    1  UNL1       -0.0615
     22 C           3.3853    0.7475   -1.5499 C.ar    1  UNL1       -0.0571
     23 H           1.5860    1.4984    1.1433 H       1  UNL1        0.0511
     24 H           1.2451    1.8357   -0.5666 H       1  UNL1        0.0511
     25 H           1.1361   -1.1213   -0.1433 H       1  UNL1        0.1464
     26 H           0.9769   -0.5437    2.4821 H       1  UNL1        0.0625
     27 H           0.2736   -0.9334    4.8063 H       1  UNL1        0.0618
     28 H          -2.1806   -1.0513    5.3427 H       1  UNL1        0.0618
     29 H          -3.7620   -0.7770    3.5527 H       1  UNL1        0.0639
     30 H          -0.7196   -0.7438   -2.4099 H       1  UNL1        0.0314
     31 H          -0.4721    0.9744   -2.0052 H       1  UNL1        0.0314
     32 H          -2.0976    0.3713   -3.9189 H       1  UNL1        0.0269
     33 H          -2.4831    1.7348   -2.8382 H       1  UNL1        0.0269
     34 H          -4.4507    0.5944   -3.0996 H       1  UNL1        0.0269
     35 H          -3.7719   -1.0477   -3.0403 H       1  UNL1        0.0269
     36 H          -4.6534    0.8772   -0.8261 H       1  UNL1        0.0328
     37 H          -4.7413   -0.8963   -0.9544 H       1  UNL1        0.0328
     38 H           3.6755    0.3153    1.7305 H       1  UNL1        0.0621
     39 H           6.0079   -0.2188    1.0047 H       1  UNL1        0.0618
     40 H           6.6471   -0.1277   -1.3832 H       1  UNL1        0.0618
     41 H           4.9165    0.5097   -3.0667 H       1  UNL1        0.0618
     42 H           2.6591    1.0196   -2.2996 H       1  UNL1        0.0621
@<TRIPOS>BOND
     1     1     2    1
     2     2     3    1
     3     3     4   ar
     4     4     5   ar
     5     5     6   ar
     6     6     7   ar
     7     7     8   ar
     8     8     9   ar
     9     9    10   ar
    10    10    11   ar
    11    11    12   ar
    12    12    13    1
    13    13    14    1
    14    14    15    1
    15    15    16    1
    16     1    17    1
    17    17    18   ar
    18    18    19   ar
    19    19    20   ar
    20    20    21   ar
    21    21    22   ar
    22    12     3   ar
    23    22    17   ar
    24     9     4   ar
    25    16    11    1
    26     1    23    1
    27     1    24    1
    28     2    25    1
    29     5    26    1
    30     6    27    1
    31     7    28    1
    32     8    29    1
    33    13    30    1
    34    13    31    1
    35    14    32    1
    36    14    33    1
    37    15    34    1
    38    15    35    1
    39    16    36    1
    40    16    37    1
    41    18    38    1
    42    19    39    1
    43    20    40    1
    44    21    41    1
    45    22    42    1
