
     RDKit          3D

 50 54  0  0  0  0  0  0  0  0999 V2000
   -4.3654   -2.5486    1.4344 C   0  0  0  0  0  0  0  0  0  0  0  0
   -4.1316   -2.0108    0.0403 C   0  0  0  0  0  0  0  0  0  0  0  0
   -3.7288   -0.6306    0.0158 N   0  0  0  0  0  0  0  0  0  0  0  0
   -4.5673    0.5223   -0.0591 C   0  0  0  0  0  0  0  0  0  0  0  0
   -5.8220    0.5517   -0.1180 O   0  0  0  0  0  0  0  0  0  0  0  0
   -3.7600    1.7690   -0.0608 C   0  0  0  0  0  0  0  0  0  0  0  0
   -4.0651    2.7059    1.0561 C   0  0  0  0  0  0  0  0  0  0  0  0
   -3.9241    2.3925   -1.4296 C   0  0  0  0  0  0  0  0  0  0  0  0
   -2.3735    1.2095    0.0211 C   0  0  0  0  0  0  0  0  0  0  0  0
   -1.2179    1.9500    0.0516 C   0  0  0  0  0  0  0  0  0  0  0  0
    0.0078    1.2887    0.1292 C   0  0  0  0  0  0  0  0  0  0  0  0
    0.0029   -0.0850    0.1719 C   0  0  0  0  0  0  0  0  0  0  0  0
   -1.1611   -0.8254    0.1411 C   0  0  0  0  0  0  0  0  0  0  0  0
   -2.3807   -0.1572    0.0635 C   0  0  0  0  0  0  0  0  0  0  0  0
    1.3140   -0.5110    0.2461 C   0  0  0  0  0  0  0  0  0  0  0  0
    2.0918    0.6460    0.2461 C   0  0  0  0  0  0  0  0  0  0  0  0
    1.2878    1.7301    0.1748 N   0  0  0  0  0  0  0  0  0  0  0  0
    3.5410    0.6857    0.3122 C   0  0  0  0  0  0  0  0  0  0  0  0
    4.4459   -0.3557    0.2383 C   0  0  0  0  0  0  0  0  0  0  0  0
    4.2626   -1.7998    0.0744 C   0  0  0  0  0  0  0  0  0  0  0  0
    2.9582   -2.1646   -0.5907 C   0  0  0  0  0  0  0  0  0  0  0  0
    1.7674   -1.9245    0.3113 C   0  0  0  0  0  0  0  0  0  0  0  0
    5.6711    0.2563    0.3569 C   0  0  0  0  0  0  0  0  0  0  0  0
    7.0006   -0.4081    0.3420 C   0  0  0  0  0  0  0  0  0  0  0  0
    5.5060    1.5878    0.4937 N   0  0  0  0  0  0  0  0  0  0  0  0
    4.2112    1.8527    0.4670 N   0  0  0  0  0  0  0  0  0  0  0  0
   -4.9519   -3.4850    1.3273 H   0  0  0  0  0  0  0  0  0  0  0  0
   -3.4130   -2.8526    1.9257 H   0  0  0  0  0  0  0  0  0  0  0  0
   -4.9615   -1.8248    1.9881 H   0  0  0  0  0  0  0  0  0  0  0  0
   -5.0821   -2.1877   -0.5137 H   0  0  0  0  0  0  0  0  0  0  0  0
   -3.3489   -2.6206   -0.4561 H   0  0  0  0  0  0  0  0  0  0  0  0
   -4.3989    2.1829    1.9569 H   0  0  0  0  0  0  0  0  0  0  0  0
   -4.6966    3.5627    0.7464 H   0  0  0  0  0  0  0  0  0  0  0  0
   -3.0824    3.1796    1.3448 H   0  0  0  0  0  0  0  0  0  0  0  0
   -4.9905    2.6374   -1.6129 H   0  0  0  0  0  0  0  0  0  0  0  0
   -3.5965    1.5851   -2.1482 H   0  0  0  0  0  0  0  0  0  0  0  0
   -3.2319    3.2287   -1.5371 H   0  0  0  0  0  0  0  0  0  0  0  0
   -1.1890    3.0311    0.0192 H   0  0  0  0  0  0  0  0  0  0  0  0
   -1.1408   -1.9118    0.1760 H   0  0  0  0  0  0  0  0  0  0  0  0
    1.5764    2.7398    0.1567 H   0  0  0  0  0  0  0  0  0  0  0  0
    4.3863   -2.3902    0.9922 H   0  0  0  0  0  0  0  0  0  0  0  0
    5.0655   -2.1514   -0.6360 H   0  0  0  0  0  0  0  0  0  0  0  0
    2.8288   -1.6313   -1.5355 H   0  0  0  0  0  0  0  0  0  0  0  0
    3.0026   -3.2496   -0.8211 H   0  0  0  0  0  0  0  0  0  0  0  0
    0.9310   -2.5362   -0.1277 H   0  0  0  0  0  0  0  0  0  0  0  0
    1.9424   -2.2628    1.3326 H   0  0  0  0  0  0  0  0  0  0  0  0
    6.9434   -1.4642    0.0696 H   0  0  0  0  0  0  0  0  0  0  0  0
    7.4032   -0.2798    1.3787 H   0  0  0  0  0  0  0  0  0  0  0  0
    7.6195    0.1448   -0.3861 H   0  0  0  0  0  0  0  0  0  0  0  0
    3.8142    2.8289    0.5556 H   0  0  0  0  0  0  0  0  0  0  0  0
  1  2  1  0
  2  3  1  0
  3  4  1  0
  4  5  2  0
  4  6  1  0
  6  7  1  0
  6  8  1  0
  6  9  1  0
  9 10  2  0
 10 11  1  0
 11 12  2  0
 12 13  1  0
 13 14  2  0
 12 15  1  0
 15 16  2  0
 16 17  1  0
 16 18  1  0
 18 19  2  0
 19 20  1  0
 20 21  1  0
 21 22  1  0
 19 23  1  0
 23 24  1  0
 23 25  2  0
 25 26  1  0
 14  3  1  0
 22 15  1  0
 14  9  1  0
 26 18  1  0
 17 11  1  0
  1 27  1  0
  1 28  1  0
  1 29  1  0
  2 30  1  0
  2 31  1  0
  7 32  1  0
  7 33  1  0
  7 34  1  0
  8 35  1  0
  8 36  1  0
  8 37  1  0
 10 38  1  0
 13 39  1  0
 17 40  1  0
 20 41  1  0
 20 42  1  0
 21 43  1  0
 21 44  1  0
 22 45  1  0
 22 46  1  0
 24 47  1  0
 24 48  1  0
 24 49  1  0
 26 50  1  0
M  END
$$$$
