@<TRIPOS>MOLECULE
*****
 50 54 0 0 0
SMALL
GASTEIGER

@<TRIPOS>ATOM
      1 C          -4.3654   -2.5486    1.4344 C.3     1  UNL1       -0.0489
      2 C          -4.1316   -2.0108    0.0403 C.3     1  UNL1        0.0170
      3 N          -3.7288   -0.6306    0.0158 N.am    1  UNL1       -0.2707
      4 C          -4.5673    0.5223   -0.0591 C.2     1  UNL1        0.2298
      5 O          -5.8220    0.5517   -0.1180 O.2     1  UNL1       -0.2743
      6 C          -3.7600    1.7690   -0.0608 C.3     1  UNL1        0.0685
      7 C          -4.0651    2.7059    1.0561 C.3     1  UNL1       -0.0473
      8 C          -3.9241    2.3925   -1.4296 C.3     1  UNL1       -0.0473
      9 C          -2.3735    1.2095    0.0211 C.ar    1  UNL1       -0.0096
     10 C          -1.2179    1.9500    0.0516 C.ar    1  UNL1       -0.0318
     11 C           0.0078    1.2887    0.1292 C.ar    1  UNL1        0.0476
     12 C           0.0029   -0.0850    0.1719 C.ar    1  UNL1        0.0053
     13 C          -1.1611   -0.8254    0.1411 C.ar    1  UNL1       -0.0305
     14 C          -2.3807   -0.1572    0.0635 C.ar    1  UNL1        0.0411
     15 C           1.3140   -0.5110    0.2461 C.ar    1  UNL1       -0.0128
     16 C           2.0918    0.6460    0.2461 C.ar    1  UNL1        0.0689
     17 N           1.2878    1.7301    0.1748 N.ar    1  UNL1       -0.3527
     18 C           3.5410    0.6857    0.3122 C.ar    1  UNL1        0.0855
     19 C           4.4459   -0.3557    0.2383 C.ar    1  UNL1        0.0020
     20 C           4.2626   -1.7998    0.0744 C.3     1  UNL1       -0.0236
     21 C           2.9582   -2.1646   -0.5907 C.3     1  UNL1       -0.0449
     22 C           1.7674   -1.9245    0.3113 C.3     1  UNL1       -0.0247
     23 C           5.6711    0.2563    0.3569 C.ar    1  UNL1        0.0635
     24 C           7.0006   -0.4081    0.3420 C.3     1  UNL1       -0.0203
     25 N           5.5060    1.5878    0.4937 N.ar    1  UNL1       -0.1783
     26 N           4.2112    1.8527    0.4670 N.ar    1  UNL1       -0.2750
     27 H          -4.9519   -3.4850    1.3273 H       1  UNL1        0.0245
     28 H          -3.4130   -2.8526    1.9257 H       1  UNL1        0.0245
     29 H          -4.9615   -1.8248    1.9881 H       1  UNL1        0.0245
     30 H          -5.0821   -2.1877   -0.5137 H       1  UNL1        0.0466
     31 H          -3.3489   -2.6206   -0.4561 H       1  UNL1        0.0466
     32 H          -4.3989    2.1829    1.9569 H       1  UNL1        0.0243
     33 H          -4.6966    3.5627    0.7464 H       1  UNL1        0.0243
     34 H          -3.0824    3.1796    1.3448 H       1  UNL1        0.0243
     35 H          -4.9905    2.6374   -1.6129 H       1  UNL1        0.0243
     36 H          -3.5965    1.5851   -2.1482 H       1  UNL1        0.0243
     37 H          -3.2319    3.2287   -1.5371 H       1  UNL1        0.0243
     38 H          -1.1890    3.0311    0.0192 H       1  UNL1        0.0642
     39 H          -1.1408   -1.9118    0.1760 H       1  UNL1        0.0643
     40 H           1.5764    2.7398    0.1567 H       1  UNL1        0.1660
     41 H           4.3863   -2.3902    0.9922 H       1  UNL1        0.0314
     42 H           5.0655   -2.1514   -0.6360 H       1  UNL1        0.0314
     43 H           2.8288   -1.6313   -1.5355 H       1  UNL1        0.0272
     44 H           3.0026   -3.2496   -0.8211 H       1  UNL1        0.0272
     45 H           0.9310   -2.5362   -0.1277 H       1  UNL1        0.0314
     46 H           1.9424   -2.2628    1.3326 H       1  UNL1        0.0314
     47 H           6.9434   -1.4642    0.0696 H       1  UNL1        0.0293
     48 H           7.4032   -0.2798    1.3787 H       1  UNL1        0.0293
     49 H           7.6195    0.1448   -0.3861 H       1  UNL1        0.0293
     50 H           3.8142    2.8289    0.5556 H       1  UNL1        0.1890
@<TRIPOS>BOND
     1     1     2    1
     2     2     3    1
     3     3     4   am
     4     4     5    2
     5     4     6    1
     6     6     7    1
     7     6     8    1
     8     6     9    1
     9     9    10   ar
    10    10    11   ar
    11    11    12   ar
    12    12    13   ar
    13    13    14   ar
    14    12    15   ar
    15    15    16   ar
    16    16    17   ar
    17    16    18    1
    18    18    19   ar
    19    19    20    1
    20    20    21    1
    21    21    22    1
    22    19    23   ar
    23    23    24    1
    24    23    25   ar
    25    25    26   ar
    26    14     3    1
    27    22    15    1
    28    14     9   ar
    29    26    18   ar
    30    17    11   ar
    31     1    27    1
    32     1    28    1
    33     1    29    1
    34     2    30    1
    35     2    31    1
    36     7    32    1
    37     7    33    1
    38     7    34    1
    39     8    35    1
    40     8    36    1
    41     8    37    1
    42    10    38    1
    43    13    39    1
    44    17    40    1
    45    20    41    1
    46    20    42    1
    47    21    43    1
    48    21    44    1
    49    22    45    1
    50    22    46    1
    51    24    47    1
    52    24    48    1
    53    24    49    1
    54    26    50    1
