@<TRIPOS>MOLECULE
*****
 65 68 0 0 0
SMALL
GASTEIGER

@<TRIPOS>ATOM
      1 O          -3.5358    1.7912   -1.6900 O.2     1  UNL1       -0.2702
      2 C          -4.4759    1.1496   -1.1674 C.2     1  UNL1        0.2444
      3 N          -4.1503   -0.1211   -0.6258 N.am    1  UNL1       -0.3050
      4 C          -2.8378   -0.6839   -0.6479 C.3     1  UNL1        0.0607
      5 C          -2.7166   -1.9707   -1.3945 C.3     1  UNL1       -0.0260
      6 C          -2.9751   -3.0261   -0.3796 C.3     1  UNL1       -0.0126
      7 C          -2.1317   -4.2838   -0.6420 C.3     1  UNL1        0.0472
      8 O          -2.4059   -4.8258   -1.8739 O.3     1  UNL1       -0.3947
      9 C          -2.6491   -2.4224    0.9394 C.3     1  UNL1       -0.0089
     10 C          -2.2664   -0.9691    0.7140 C.3     1  UNL1        0.1219
     11 O          -0.8578   -0.8495    0.6867 O.3     1  UNL1       -0.4560
     12 C          -0.1900    0.0052    1.5468 C.2     1  UNL1        0.3397
     13 O          -0.9111    0.6759    2.3608 O.2     1  UNL1       -0.2449
     14 C           1.2409    0.1704    1.5678 C.ar    1  UNL1        0.0659
     15 C           1.8639    1.0288    2.4329 C.ar    1  UNL1       -0.0053
     16 C           3.2223    1.2024    2.4731 C.ar    1  UNL1        0.1320
     17 O           3.8499    2.0741    3.3523 O.3     1  UNL1       -0.5059
     18 C           4.0364    0.4884    1.6080 C.ar    1  UNL1        0.1050
     19 C           5.4758    0.5542    1.6947 C.2     1  UNL1        0.2044
     20 O           5.9532    0.9179    2.8421 O.2     1  UNL1       -0.2863
     21 C           6.4814    0.2663    0.7029 C.ar    1  UNL1        0.0778
     22 C           7.6512   -0.4128    1.1373 C.ar    1  UNL1        0.1285
     23 O           7.7269   -0.7680    2.4768 O.3     1  UNL1       -0.5060
     24 C           8.6543   -0.7017    0.2723 C.ar    1  UNL1       -0.0194
     25 C           8.5033   -0.3163   -1.0394 C.ar    1  UNL1       -0.0575
     26 C           7.3921    0.3413   -1.4873 C.ar    1  UNL1       -0.0468
     27 C           6.3471    0.6488   -0.5942 C.ar    1  UNL1        0.0731
     28 C           5.3228    1.5381   -1.1198 C.2     1  UNL1        0.3376
     29 O           5.2520    1.7085   -2.3863 O.2     1  UNL1       -0.2451
     30 O           4.4221    2.2247   -0.3593 O.3     1  UNL1       -0.4771
     31 C           3.4226   -0.3947    0.7172 C.ar    1  UNL1        0.1320
     32 O           4.1296   -1.1683   -0.1903 O.3     1  UNL1       -0.5059
     33 C           2.0399   -0.5392    0.7103 C.ar    1  UNL1       -0.0053
     34 C          -5.8021    1.7397   -1.1537 C.ar    1  UNL1        0.0369
     35 C          -5.9814    2.9839   -1.7239 C.ar    1  UNL1       -0.0462
     36 C          -7.1847    3.6199   -1.7598 C.ar    1  UNL1       -0.0195
     37 C          -8.2701    2.9854   -1.1984 C.ar    1  UNL1        0.1169
     38 O          -9.4898    3.6333   -1.2364 O.3     1  UNL1       -0.5068
     39 C          -8.1093    1.7466   -0.6264 C.ar    1  UNL1       -0.0195
     40 C          -6.8860    1.0938   -0.5869 C.ar    1  UNL1       -0.0462
     41 H          -4.9229   -0.6665   -0.1884 H       1  UNL1        0.1494
     42 H          -2.1622    0.0512   -1.1469 H       1  UNL1        0.0535
     43 H          -3.3773   -2.0298   -2.2827 H       1  UNL1        0.0288
     44 H          -1.6400   -2.0668   -1.7225 H       1  UNL1        0.0288
     45 H          -4.0270   -3.3591   -0.4836 H       1  UNL1        0.0325
     46 H          -2.3543   -5.0435    0.1341 H       1  UNL1        0.0560
     47 H          -1.0774   -3.9764   -0.5040 H       1  UNL1        0.0560
     48 H          -2.8179   -4.2041   -2.5077 H       1  UNL1        0.2094
     49 H          -1.7781   -2.9598    1.3712 H       1  UNL1        0.0305
     50 H          -3.4643   -2.5184    1.6862 H       1  UNL1        0.0305
     51 H          -2.6353   -0.2924    1.4983 H       1  UNL1        0.0753
     52 H           1.2740    1.6199    3.1400 H       1  UNL1        0.0662
     53 H           3.9408    3.0517    3.1283 H       1  UNL1        0.2922
     54 H           8.1512   -0.0701    3.0930 H       1  UNL1        0.2922
     55 H           9.5588   -1.2277    0.6139 H       1  UNL1        0.0654
     56 H           9.3225   -0.5632   -1.7144 H       1  UNL1        0.0619
     57 H           7.3090    0.6294   -2.5367 H       1  UNL1        0.0626
     58 H           3.8255    2.9701   -0.6948 H       1  UNL1        0.2954
     59 H           4.5114   -2.0470    0.1123 H       1  UNL1        0.2922
     60 H           1.6197   -1.2340   -0.0003 H       1  UNL1        0.0662
     61 H          -5.1402    3.5258   -2.1829 H       1  UNL1        0.0626
     62 H          -7.3018    4.6022   -2.2157 H       1  UNL1        0.0654
     63 H         -10.2206    3.2697   -0.6167 H       1  UNL1        0.2921
     64 H          -8.9664    1.2742   -0.1968 H       1  UNL1        0.0654
     65 H          -6.7881    0.1296   -0.1351 H       1  UNL1        0.0626
@<TRIPOS>BOND
     1     1     2    2
     2     2     3   am
     3     3     4    1
     4     4     5    1
     5     5     6    1
     6     6     7    1
     7     7     8    1
     8     6     9    1
     9     9    10    1
    10    10    11    1
    11    11    12    1
    12    12    13    2
    13    12    14    1
    14    14    15   ar
    15    15    16   ar
    16    16    17    1
    17    16    18   ar
    18    18    19    1
    19    19    20    2
    20    19    21    1
    21    21    22   ar
    22    22    23    1
    23    22    24   ar
    24    24    25   ar
    25    25    26   ar
    26    26    27   ar
    27    27    28    1
    28    28    29    2
    29    28    30    1
    30    18    31   ar
    31    31    32    1
    32    31    33   ar
    33     2    34    1
    34    34    35   ar
    35    35    36   ar
    36    36    37   ar
    37    37    38    1
    38    37    39   ar
    39    39    40   ar
    40    10     4    1
    41    33    14   ar
    42    40    34   ar
    43    27    21   ar
    44     3    41    1
    45     4    42    1
    46     5    43    1
    47     5    44    1
    48     6    45    1
    49     7    46    1
    50     7    47    1
    51     8    48    1
    52     9    49    1
    53     9    50    1
    54    10    51    1
    55    15    52    1
    56    17    53    1
    57    23    54    1
    58    24    55    1
    59    25    56    1
    60    26    57    1
    61    30    58    1
    62    32    59    1
    63    33    60    1
    64    35    61    1
    65    36    62    1
    66    38    63    1
    67    39    64    1
    68    40    65    1
