@<TRIPOS>MOLECULE
*****
 55 59 0 0 0
SMALL
GASTEIGER

@<TRIPOS>ATOM
      1 N          -8.1703    1.7162    0.2976 N.3     1  UNL1       -0.3261
      2 C          -7.6697    1.5030   -1.0461 C.3     1  UNL1        0.0186
      3 C          -6.7117    0.3592   -0.9936 C.ar    1  UNL1       -0.0333
      4 C          -7.1943   -0.9324   -1.1920 C.ar    1  UNL1       -0.0539
      5 C          -6.2650   -1.9628   -1.1325 C.ar    1  UNL1       -0.0194
      6 C          -4.9379   -1.7174   -0.8900 C.ar    1  UNL1        0.1244
      7 O          -3.8677   -2.6104   -0.7944 O.3     1  UNL1       -0.4908
      8 C          -2.6944   -1.9487   -0.3945 C.3     1  UNL1        0.0994
      9 C          -3.0270   -0.4936   -0.4546 C.3     1  UNL1        0.0361
     10 C          -2.7399    0.1221    0.9049 C.3     1  UNL1       -0.0242
     11 C          -1.4648    0.9536    0.8358 C.3     1  UNL1        0.0160
     12 N          -0.4956    0.3460   -0.0222 N.am    1  UNL1       -0.2950
     13 C          -0.8621    0.1780   -1.4118 C.3     1  UNL1        0.0160
     14 C          -2.3417    0.2345   -1.5579 C.3     1  UNL1       -0.0242
     15 C           0.7074   -0.0236    0.5877 C.2     1  UNL1        0.2820
     16 O           0.5871    0.3021    1.8200 O.2     1  UNL1       -0.2666
     17 C           1.9914   -0.6303    0.2913 C.ar    1  UNL1        0.1910
     18 C           2.3186   -1.7991   -0.3478 C.ar    1  UNL1       -0.0100
     19 C           3.6901   -1.9710   -0.3994 C.ar    1  UNL1       -0.0070
     20 C           4.1330   -0.8108    0.2602 C.ar    1  UNL1        0.1789
     21 O           3.1348   -0.0577    0.6464 O.2     1  UNL1       -0.4420
     22 C           5.5070   -0.4595    0.5021 C.1     1  UNL1       -0.0232
     23 C           6.6803   -0.1773    0.7206 C.1     1  UNL1       -0.0581
     24 C           8.0664    0.1508    1.0006 C.ar    1  UNL1        0.0254
     25 C           9.0405   -0.5647    0.3555 C.ar    1  UNL1       -0.0463
     26 C          10.3041   -0.1761    0.6949 C.ar    1  UNL1       -0.0606
     27 C          10.6615    0.8238    1.5854 C.ar    1  UNL1       -0.0617
     28 C           9.5981    1.4991    2.1955 C.ar    1  UNL1       -0.0606
     29 C           8.2919    1.1609    1.9016 C.ar    1  UNL1       -0.0463
     30 C          -4.5079   -0.4356   -0.7012 C.ar    1  UNL1        0.0041
     31 C          -5.3898    0.6212   -0.7505 C.ar    1  UNL1       -0.0501
     32 H          -7.3755    1.7684    0.9600 H       1  UNL1        0.1185
     33 H          -8.7789    0.9367    0.6276 H       1  UNL1        0.1185
     34 H          -7.1423    2.4307   -1.3583 H       1  UNL1        0.0471
     35 H          -8.4837    1.3080   -1.7694 H       1  UNL1        0.0471
     36 H          -8.2687   -1.0730   -1.3822 H       1  UNL1        0.0622
     37 H          -6.6932   -2.9304   -1.2909 H       1  UNL1        0.0654
     38 H          -2.4100   -2.2692    0.6432 H       1  UNL1        0.0705
     39 H          -1.8486   -2.1771   -1.0540 H       1  UNL1        0.0705
     40 H          -3.5616    0.8188    1.1506 H       1  UNL1        0.0290
     41 H          -2.6601   -0.6454    1.6937 H       1  UNL1        0.0290
     42 H          -1.1261    1.1009    1.8752 H       1  UNL1        0.0465
     43 H          -1.7184    1.9698    0.4421 H       1  UNL1        0.0465
     44 H          -0.4849   -0.8341   -1.7247 H       1  UNL1        0.0465
     45 H          -0.3504    0.9611   -2.0443 H       1  UNL1        0.0465
     46 H          -2.6627   -0.2439   -2.5231 H       1  UNL1        0.0290
     47 H          -2.6581    1.2971   -1.5595 H       1  UNL1        0.0290
     48 H           1.6083   -2.5060   -0.7666 H       1  UNL1        0.0657
     49 H           4.3176   -2.7391   -0.8050 H       1  UNL1        0.0662
     50 H           8.8571   -1.3615   -0.3565 H       1  UNL1        0.0630
     51 H          11.1813   -0.6667    0.2506 H       1  UNL1        0.0618
     52 H          11.6868    1.0784    1.8073 H       1  UNL1        0.0618
     53 H           9.8160    2.2896    2.8995 H       1  UNL1        0.0618
     54 H           7.4676    1.6899    2.3784 H       1  UNL1        0.0630
     55 H          -5.0842    1.6359   -0.6056 H       1  UNL1        0.0625
@<TRIPOS>BOND
     1     1     2    1
     2     2     3    1
     3     3     4   ar
     4     4     5   ar
     5     5     6   ar
     6     6     7    1
     7     7     8    1
     8     8     9    1
     9     9    10    1
    10    10    11    1
    11    11    12    1
    12    12    13    1
    13    13    14    1
    14    12    15   am
    15    15    16    2
    16    15    17    1
    17    17    18   ar
    18    18    19   ar
    19    19    20   ar
    20    20    21   ar
    21    20    22    1
    22    22    23    3
    23    23    24    1
    24    24    25   ar
    25    25    26   ar
    26    26    27   ar
    27    27    28   ar
    28    28    29   ar
    29     9    30    1
    30    30    31   ar
    31    31     3   ar
    32    30     6   ar
    33    14     9    1
    34    21    17   ar
    35    29    24   ar
    36     1    32    1
    37     1    33    1
    38     2    34    1
    39     2    35    1
    40     4    36    1
    41     5    37    1
    42     8    38    1
    43     8    39    1
    44    10    40    1
    45    10    41    1
    46    11    42    1
    47    11    43    1
    48    13    44    1
    49    13    45    1
    50    14    46    1
    51    14    47    1
    52    18    48    1
    53    19    49    1
    54    25    50    1
    55    26    51    1
    56    27    52    1
    57    28    53    1
    58    29    54    1
    59    31    55    1
