
     RDKit          3D

 48 51  0  0  0  0  0  0  0  0999 V2000
    6.8939    2.2635   -3.3566 C   0  0  0  0  0  0  0  0  0  0  0  0
    7.1235    1.1925   -3.2774 C   0  0  0  0  0  0  0  0  0  0  0  0
    7.4390   -0.2911   -3.1915 C   0  0  0  0  0  0  0  0  0  0  0  0
    7.3051   -0.6270   -1.8058 O   0  0  0  0  0  0  0  0  0  0  0  0
    6.0482   -0.4604   -1.2035 C   0  0  0  0  0  0  0  0  0  0  0  0
    5.8558   -0.7502    0.1262 C   0  0  0  0  0  0  0  0  0  0  0  0
    4.6039   -0.5663    0.6683 C   0  0  0  0  0  0  0  0  0  0  0  0
    3.5087   -0.1069   -0.0338 C   0  0  0  0  0  0  0  0  0  0  0  0
    2.2712    0.0260    0.6926 C   0  0  0  0  0  0  0  0  0  0  0  0
    2.2756   -0.3773    1.9172 O   0  0  0  0  0  0  0  0  0  0  0  0
    1.0277    0.5274    0.2747 N   0  0  0  0  0  0  0  0  0  0  0  0
   -0.0980    0.5491    1.1478 C   0  0  0  0  0  0  0  0  0  0  0  0
   -0.0731    0.7085    2.4818 C   0  0  0  0  0  0  0  0  0  0  0  0
   -1.0838    0.6239    3.4068 C   0  0  0  0  0  0  0  0  0  0  0  0
   -1.0052    0.7870    4.7199 F   0  0  0  0  0  0  0  0  0  0  0  0
   -2.3629    0.3107    2.8223 C   0  0  0  0  0  0  0  0  0  0  0  0
   -3.7351    0.2491    3.8689 Cl  0  0  0  0  0  0  0  0  0  0  0  0
   -2.4447    0.1417    1.4897 C   0  0  0  0  0  0  0  0  0  0  0  0
   -3.7832   -0.3116    0.9304 C   0  0  2  0  0  0  0  0  0  0  0  0
   -3.8547   -1.8012    1.2665 C   0  0  0  0  0  0  0  0  0  0  0  0
   -3.7620   -2.0239    2.5915 F   0  0  0  0  0  0  0  0  0  0  0  0
   -3.6970   -0.3004   -0.5317 N   0  0  0  0  0  0  0  0  0  0  0  0
   -4.8466   -0.3277   -1.1648 C   0  0  0  0  0  0  0  0  0  0  0  0
   -4.8900   -0.3204   -2.6070 N   0  0  0  0  0  0  0  0  0  0  0  0
   -5.9871   -0.3588   -0.3925 O   0  0  0  0  0  0  0  0  0  0  0  0
   -6.1408    0.5029    0.7036 C   0  0  1  0  0  0  0  0  0  0  0  0
   -6.0847    0.0025    2.0932 C   0  0  0  0  0  0  0  0  0  0  0  0
   -4.8512    0.5294    1.4508 C   0  0  1  0  0  0  0  0  0  0  0  0
   -1.4036    0.2383    0.6054 C   0  0  0  0  0  0  0  0  0  0  0  0
    3.7217    0.1667   -1.3180 N   0  0  0  0  0  0  0  0  0  0  0  0
    4.9318   -0.0010   -1.8861 C   0  0  0  0  0  0  0  0  0  0  0  0
    6.6601    3.3942   -3.4398 H   0  0  0  0  0  0  0  0  0  0  0  0
    6.6641   -0.8353   -3.7480 H   0  0  0  0  0  0  0  0  0  0  0  0
    8.4732   -0.4572   -3.4798 H   0  0  0  0  0  0  0  0  0  0  0  0
    6.6748   -1.1125    0.7457 H   0  0  0  0  0  0  0  0  0  0  0  0
    4.5152   -0.8193    1.7172 H   0  0  0  0  0  0  0  0  0  0  0  0
    0.9589    0.8873   -0.6752 H   0  0  0  0  0  0  0  0  0  0  0  0
    0.9018    0.9698    2.9486 H   0  0  0  0  0  0  0  0  0  0  0  0
   -4.7334   -2.2792    0.7870 H   0  0  0  0  0  0  0  0  0  0  0  0
   -2.9575   -2.2684    0.7619 H   0  0  0  0  0  0  0  0  0  0  0  0
   -5.5002   -0.9676   -3.1181 H   0  0  0  0  0  0  0  0  0  0  0  0
   -4.2975    0.3545   -3.1103 H   0  0  0  0  0  0  0  0  0  0  0  0
   -6.6981    1.4264    0.4973 H   0  0  0  0  0  0  0  0  0  0  0  0
   -6.5455    0.6528    2.8548 H   0  0  0  0  0  0  0  0  0  0  0  0
   -6.0633   -1.0575    2.3762 H   0  0  0  0  0  0  0  0  0  0  0  0
   -4.5303    1.5929    1.7066 H   0  0  0  0  0  0  0  0  0  0  0  0
   -1.4338    0.1161   -0.4384 H   0  0  0  0  0  0  0  0  0  0  0  0
    5.0094    0.2082   -2.9270 H   0  0  0  0  0  0  0  0  0  0  0  0
  1  2  3  0
  2  3  1  0
  3  4  1  0
  4  5  1  0
  5  6  2  0
  6  7  1  0
  7  8  2  0
  8  9  1  0
  9 10  2  0
  9 11  1  0
 11 12  1  0
 12 13  2  0
 13 14  1  0
 14 15  1  0
 14 16  2  0
 16 17  1  0
 16 18  1  0
 18 19  1  0
 19 20  1  1
 20 21  1  0
 19 22  1  0
 22 23  2  0
 23 24  1  0
 23 25  1  0
 25 26  1  0
 26 27  1  0
 27 28  1  0
 18 29  2  0
  8 30  1  0
 30 31  2  0
 31  5  1  0
 29 12  1  0
 28 19  1  0
 28 26  1  0
  1 32  1  0
  3 33  1  0
  3 34  1  0
  6 35  1  0
  7 36  1  0
 11 37  1  0
 13 38  1  0
 20 39  1  0
 20 40  1  0
 24 41  1  0
 24 42  1  0
 26 43  1  6
 27 44  1  0
 27 45  1  0
 28 46  1  1
 29 47  1  0
 31 48  1  0
M  END
$$$$
