@<TRIPOS>MOLECULE
*****
 48 51 0 0 0
SMALL
GASTEIGER

@<TRIPOS>ATOM
      1 C           6.8939    2.2635   -3.3566 C.1     1  UNL1       -0.1158
      2 C           7.1235    1.1925   -3.2774 C.1     1  UNL1       -0.0648
      3 C           7.4390   -0.2911   -3.1915 C.3     1  UNL1        0.1497
      4 O           7.3051   -0.6270   -1.8058 O.3     1  UNL1       -0.4780
      5 C           6.0482   -0.4604   -1.2035 C.ar    1  UNL1        0.1399
      6 C           5.8558   -0.7502    0.1262 C.ar    1  UNL1       -0.0162
      7 C           4.6039   -0.5663    0.6683 C.ar    1  UNL1       -0.0277
      8 C           3.5087   -0.1069   -0.0338 C.ar    1  UNL1        0.1259
      9 C           2.2712    0.0260    0.6926 C.2     1  UNL1        0.2666
     10 O           2.2756   -0.3773    1.9172 O.2     1  UNL1       -0.2682
     11 N           1.0277    0.5274    0.2747 N.am    1  UNL1       -0.2802
     12 C          -0.0980    0.5491    1.1478 C.ar    1  UNL1        0.0369
     13 C          -0.0731    0.7085    2.4818 C.ar    1  UNL1       -0.0037
     14 C          -1.0838    0.6239    3.4068 C.ar    1  UNL1        0.1437
     15 F          -1.0052    0.7870    4.7199 F       1  UNL1       -0.2039
     16 C          -2.3629    0.3107    2.8223 C.ar    1  UNL1        0.0817
     17 CL         -3.7351    0.2491    3.8689 Cl      1  UNL1       -0.0802
     18 C          -2.4447    0.1417    1.4897 C.ar    1  UNL1        0.0057
     19 C          -3.7832   -0.3116    0.9304 C.3     1  UNL1        0.1272
     20 C          -3.8547   -1.8012    1.2665 C.3     1  UNL1        0.1199
     21 F          -3.7620   -2.0239    2.5915 F       1  UNL1       -0.2462
     22 N          -3.6970   -0.3004   -0.5317 N.2     1  UNL1       -0.2225
     23 C          -4.8466   -0.3277   -1.1648 C.2     1  UNL1        0.2763
     24 N          -4.8900   -0.3204   -2.6070 N.pl3   1  UNL1       -0.3134
     25 O          -5.9871   -0.3588   -0.3925 O.2     1  UNL1       -0.4622
     26 C          -6.1408    0.5029    0.7036 C.3     1  UNL1        0.1090
     27 C          -6.0847    0.0025    2.0932 C.3     1  UNL1       -0.0065
     28 C          -4.8512    0.5294    1.4508 C.3     1  UNL1        0.0314
     29 C          -1.4036    0.2383    0.6054 C.ar    1  UNL1       -0.0333
     30 N           3.7217    0.1667   -1.3180 N.ar    1  UNL1       -0.2467
     31 C           4.9318   -0.0010   -1.8861 C.ar    1  UNL1        0.0701
     32 H           6.6601    3.3942   -3.4398 H       1  UNL1        0.1229
     33 H           6.6641   -0.8353   -3.7480 H       1  UNL1        0.0837
     34 H           8.4732   -0.4572   -3.4798 H       1  UNL1        0.0837
     35 H           6.6748   -1.1125    0.7457 H       1  UNL1        0.0655
     36 H           4.5152   -0.8193    1.7172 H       1  UNL1        0.0641
     37 H           0.9589    0.8873   -0.6752 H       1  UNL1        0.1552
     38 H           0.9018    0.9698    2.9486 H       1  UNL1        0.0665
     39 H          -4.7334   -2.2792    0.7870 H       1  UNL1        0.0643
     40 H          -2.9575   -2.2684    0.7619 H       1  UNL1        0.0643
     41 H          -5.5002   -0.9676   -3.1181 H       1  UNL1        0.1466
     42 H          -4.2975    0.3545   -3.1103 H       1  UNL1        0.1466
     43 H          -6.6981    1.4264    0.4973 H       1  UNL1        0.0737
     44 H          -6.5455    0.6528    2.8548 H       1  UNL1        0.0306
     45 H          -6.0633   -1.0575    2.3762 H       1  UNL1        0.0306
     46 H          -4.5303    1.5929    1.7066 H       1  UNL1        0.0365
     47 H          -1.4338    0.1161   -0.4384 H       1  UNL1        0.0640
     48 H           5.0094    0.2082   -2.9270 H       1  UNL1        0.0867
@<TRIPOS>BOND
     1     1     2    3
     2     2     3    1
     3     3     4    1
     4     4     5    1
     5     5     6   ar
     6     6     7   ar
     7     7     8   ar
     8     8     9    1
     9     9    10    2
    10     9    11   am
    11    11    12    1
    12    12    13   ar
    13    13    14   ar
    14    14    15    1
    15    14    16   ar
    16    16    17    1
    17    16    18   ar
    18    18    19    1
    19    19    20    1
    20    20    21    1
    21    19    22    1
    22    22    23    2
    23    23    24    1
    24    23    25    1
    25    25    26    1
    26    26    27    1
    27    27    28    1
    28    18    29   ar
    29     8    30   ar
    30    30    31   ar
    31    31     5   ar
    32    29    12   ar
    33    28    19    1
    34    28    26    1
    35     1    32    1
    36     3    33    1
    37     3    34    1
    38     6    35    1
    39     7    36    1
    40    11    37    1
    41    13    38    1
    42    20    39    1
    43    20    40    1
    44    24    41    1
    45    24    42    1
    46    26    43    1
    47    27    44    1
    48    27    45    1
    49    28    46    1
    50    29    47    1
    51    31    48    1
