@<TRIPOS>MOLECULE
*****
 34 35 0 0 0
SMALL
GASTEIGER

@<TRIPOS>ATOM
      1 C           2.0002    1.1038    0.8537 C.3     1  UNL1       -0.0459
      2 C           1.5208    0.2867   -0.3308 C.3     1  UNL1        0.0262
      3 C           0.2566   -0.3724   -0.0603 C.2     1  UNL1       -0.0580
      4 C          -1.0678   -0.1299   -0.0165 C.2     1  UNL1       -0.0001
      5 C          -1.8918   -1.2668    0.3393 C.ar    1  UNL1        0.0201
      6 C          -3.1906   -1.4694    0.5018 C.ar    1  UNL1       -0.0469
      7 C          -3.7025   -2.6777    0.8467 C.ar    1  UNL1       -0.0541
      8 C          -2.7675   -3.7108    1.0234 C.ar    1  UNL1       -0.0237
      9 S          -1.1769   -2.8361    0.6685 S.2     1  UNL1       -0.0966
     10 C          -1.3793    1.2565   -0.3285 C.ar    1  UNL1        0.0201
     11 C          -2.6123    1.8396   -0.4087 C.ar    1  UNL1       -0.0469
     12 C          -2.8085    3.1283   -0.6903 C.ar    1  UNL1       -0.0541
     13 C          -1.6475    3.8709   -0.9051 C.ar    1  UNL1       -0.0237
     14 S          -0.3424    2.5628   -0.6650 S.2     1  UNL1       -0.0966
     15 N           2.5490   -0.6588   -0.7513 N.3     1  UNL1       -0.3023
     16 C           3.7019    0.1024   -1.1203 C.3     1  UNL1       -0.0125
     17 C           2.8751   -1.6094    0.2681 C.3     1  UNL1       -0.0125
     18 H           2.7962    0.5615    1.4061 H       1  UNL1        0.0248
     19 H           1.1408    1.2044    1.5460 H       1  UNL1        0.0248
     20 H           2.3563    2.0760    0.5240 H       1  UNL1        0.0248
     21 H           1.4295    0.9783   -1.2058 H       1  UNL1        0.0504
     22 H           0.5150   -1.4148    0.2017 H       1  UNL1        0.0594
     23 H          -3.8754   -0.6589    0.3605 H       1  UNL1        0.0629
     24 H          -4.7257   -2.9698    1.0076 H       1  UNL1        0.0623
     25 H          -2.9089   -4.7755    1.3008 H       1  UNL1        0.0693
     26 H          -3.6144    1.4622   -0.2849 H       1  UNL1        0.0629
     27 H          -3.5052    3.9260   -0.8407 H       1  UNL1        0.0623
     28 H          -1.0189    4.8542   -1.1521 H       1  UNL1        0.0693
     29 H           4.4327    0.2411   -0.2877 H       1  UNL1        0.0391
     30 H           3.4295    1.1260   -1.4514 H       1  UNL1        0.0391
     31 H           4.3021   -0.3733   -1.9365 H       1  UNL1        0.0391
     32 H           3.9535   -1.5995    0.5018 H       1  UNL1        0.0391
     33 H           2.3148   -1.4329    1.2234 H       1  UNL1        0.0391
     34 H           2.6615   -2.6246   -0.1375 H       1  UNL1        0.0391
@<TRIPOS>BOND
     1     1     2    1
     2     2     3    1
     3     3     4    2
     4     4     5    1
     5     5     6   ar
     6     6     7   ar
     7     7     8   ar
     8     8     9   ar
     9     4    10    1
    10    10    11   ar
    11    11    12   ar
    12    12    13   ar
    13    13    14   ar
    14     2    15    1
    15    15    16    1
    16    15    17    1
    17     9     5   ar
    18    14    10   ar
    19     1    18    1
    20     1    19    1
    21     1    20    1
    22     2    21    1
    23     3    22    1
    24     6    23    1
    25     7    24    1
    26     8    25    1
    27    11    26    1
    28    12    27    1
    29    13    28    1
    30    16    29    1
    31    16    30    1
    32    16    31    1
    33    17    32    1
    34    17    33    1
    35    17    34    1
