@<TRIPOS>MOLECULE
*****
 44 45 0 0 0
SMALL
GASTEIGER

@<TRIPOS>ATOM
      1 C          -0.7364    2.1081    2.6119 C.3     1  UNL1       -0.0619
      2 C          -1.0323    1.0172    1.6140 C.3     1  UNL1       -0.0370
      3 C          -2.2997    1.3789    0.8866 C.3     1  UNL1       -0.0247
      4 C          -2.7055    0.3749   -0.1183 C.ar    1  UNL1       -0.0434
      5 C          -2.3156    0.4848   -1.4279 C.ar    1  UNL1       -0.0549
      6 C          -2.6788   -0.4495   -2.3819 C.ar    1  UNL1       -0.0163
      7 C          -3.4507   -1.5251   -2.0325 C.ar    1  UNL1        0.1582
      8 O          -3.8325   -2.4891   -2.9877 O.3     1  UNL1       -0.5033
      9 C          -3.8506   -1.6487   -0.7188 C.ar    1  UNL1        0.1585
     10 O          -4.6306   -2.7375   -0.3714 O.3     1  UNL1       -0.5033
     11 C          -3.4917   -0.7221    0.2332 C.ar    1  UNL1       -0.0133
     12 C           0.1212    0.7454    0.6921 C.3     1  UNL1       -0.0370
     13 C           0.5692    1.9092   -0.1225 C.3     1  UNL1       -0.0619
     14 C           1.2614    0.0475    1.4018 C.3     1  UNL1       -0.0247
     15 C           2.4021   -0.2271    0.5082 C.ar    1  UNL1       -0.0434
     16 C           3.4518    0.6475    0.3262 C.ar    1  UNL1       -0.0549
     17 C           4.5166    0.3758   -0.5189 C.ar    1  UNL1       -0.0163
     18 C           4.5465   -0.8039   -1.2105 C.ar    1  UNL1        0.1582
     19 O           5.6270   -1.0712   -2.0633 O.3     1  UNL1       -0.5033
     20 C           3.5273   -1.6992   -1.0600 C.ar    1  UNL1        0.1585
     21 O           3.5919   -2.8850   -1.7775 O.3     1  UNL1       -0.5033
     22 C           2.4671   -1.4166   -0.2117 C.ar    1  UNL1       -0.0133
     23 H          -1.2040    1.8706    3.5901 H       1  UNL1        0.0233
     24 H          -1.1604    3.0858    2.2400 H       1  UNL1        0.0233
     25 H           0.3292    2.2682    2.7857 H       1  UNL1        0.0233
     26 H          -1.1954    0.0858    2.2124 H       1  UNL1        0.0304
     27 H          -3.1427    1.5611    1.6098 H       1  UNL1        0.0316
     28 H          -2.1311    2.3738    0.4232 H       1  UNL1        0.0316
     29 H          -1.7154    1.3214   -1.7317 H       1  UNL1        0.0621
     30 H          -2.3696   -0.3596   -3.4122 H       1  UNL1        0.0655
     31 H          -4.8128   -2.7653   -3.0601 H       1  UNL1        0.2923
     32 H          -5.6472   -2.7229   -0.5062 H       1  UNL1        0.2923
     33 H          -3.7861   -0.7885    1.2646 H       1  UNL1        0.0658
     34 H          -0.2649   -0.0215   -0.0475 H       1  UNL1        0.0304
     35 H           0.9560    1.5667   -1.1025 H       1  UNL1        0.0233
     36 H           1.3264    2.5449    0.4158 H       1  UNL1        0.0233
     37 H          -0.2620    2.6124   -0.3355 H       1  UNL1        0.0233
     38 H           0.9225   -0.9068    1.8543 H       1  UNL1        0.0316
     39 H           1.5498    0.7102    2.2591 H       1  UNL1        0.0316
     40 H           3.4742    1.5870    0.8488 H       1  UNL1        0.0621
     41 H           5.3443    1.0634   -0.6636 H       1  UNL1        0.0655
     42 H           6.5473   -1.0622   -1.6017 H       1  UNL1        0.2923
     43 H           4.4969   -3.3048   -1.9709 H       1  UNL1        0.2923
     44 H           1.6876   -2.1341   -0.1153 H       1  UNL1        0.0658
@<TRIPOS>BOND
     1     1     2    1
     2     2     3    1
     3     3     4    1
     4     4     5   ar
     5     5     6   ar
     6     6     7   ar
     7     7     8    1
     8     7     9   ar
     9     9    10    1
    10     9    11   ar
    11     2    12    1
    12    12    13    1
    13    12    14    1
    14    14    15    1
    15    15    16   ar
    16    16    17   ar
    17    17    18   ar
    18    18    19    1
    19    18    20   ar
    20    20    21    1
    21    20    22   ar
    22    11     4   ar
    23    22    15   ar
    24     1    23    1
    25     1    24    1
    26     1    25    1
    27     2    26    1
    28     3    27    1
    29     3    28    1
    30     5    29    1
    31     6    30    1
    32     8    31    1
    33    10    32    1
    34    11    33    1
    35    12    34    1
    36    13    35    1
    37    13    36    1
    38    13    37    1
    39    14    38    1
    40    14    39    1
    41    16    40    1
    42    17    41    1
    43    19    42    1
    44    21    43    1
    45    22    44    1
