@<TRIPOS>MOLECULE
*****
 46 51 0 0 0
SMALL
GASTEIGER

@<TRIPOS>ATOM
      1 C           2.3109   -1.8855    0.4231 C.3     1  UNL1        0.0125
      2 N           1.5516   -1.2717   -0.6499 N.ar    1  UNL1       -0.3413
      3 C           1.8963   -1.5186   -1.9525 C.ar    1  UNL1        0.0499
      4 C           2.7959   -2.4289   -2.4853 C.ar    1  UNL1       -0.0376
      5 C           2.9849   -2.5267   -3.8620 C.ar    1  UNL1       -0.0598
      6 C           2.2761   -1.7180   -4.7012 C.ar    1  UNL1       -0.0611
      7 C           1.3748   -0.8069   -4.1668 C.ar    1  UNL1       -0.0520
      8 C           1.1949   -0.7157   -2.8118 C.ar    1  UNL1        0.0084
      9 C           0.3810    0.0606   -2.0116 C.ar    1  UNL1        0.0225
     10 C          -0.5083    1.0997   -2.2962 C.ar    1  UNL1        0.0596
     11 C          -1.1696    1.7806   -1.2888 C.ar    1  UNL1        0.0596
     12 C          -0.9373    1.3929    0.0211 C.ar    1  UNL1        0.0225
     13 C          -1.4984    1.8259    1.1802 C.ar    1  UNL1        0.0084
     14 C          -2.4176    2.8122    1.5591 C.ar    1  UNL1       -0.0520
     15 C          -2.7824    3.0001    2.8845 C.ar    1  UNL1       -0.0611
     16 C          -2.2660    2.2371    3.8862 C.ar    1  UNL1       -0.0598
     17 C          -1.3573    1.2647    3.4874 C.ar    1  UNL1       -0.0376
     18 C          -0.9696    1.0479    2.1795 C.ar    1  UNL1        0.0502
     19 N          -0.0791    0.1232    1.6554 N.ar    1  UNL1       -0.3372
     20 C           0.4626   -0.8910    2.5009 C.3     1  UNL1        0.0367
     21 C          -0.4770   -2.1114    2.5417 C.3     1  UNL1        0.0527
     22 C          -0.7532   -2.6683    1.2597 C.1     1  UNL1        0.0643
     23 N          -1.0066   -3.1345    0.1818 N.1     1  UNL1       -0.1965
     24 C          -0.0581    0.3478    0.3293 C.ar    1  UNL1        0.0753
     25 C           0.6231   -0.3186   -0.6835 C.ar    1  UNL1        0.0751
     26 C          -2.0036    2.8059   -1.8763 C.2     1  UNL1        0.2519
     27 O          -2.7575    3.6413   -1.3511 O.2     1  UNL1       -0.2697
     28 N          -1.8294    2.7274   -3.2832 N.am    1  UNL1       -0.2483
     29 C          -0.9139    1.6854   -3.5755 C.2     1  UNL1        0.2519
     30 O          -0.5921    1.4145   -4.7671 O.2     1  UNL1       -0.2697
     31 H           3.2712   -2.3591   -0.0315 H       1  UNL1        0.0456
     32 H           2.8366   -1.0628    1.0083 H       1  UNL1        0.0456
     33 H           1.8953   -2.7132    0.9494 H       1  UNL1        0.0456
     34 H           3.3509   -3.0751   -1.8292 H       1  UNL1        0.0638
     35 H           3.6911   -3.2400   -4.2625 H       1  UNL1        0.0618
     36 H           2.3803   -1.7559   -5.7879 H       1  UNL1        0.0618
     37 H           0.8425   -0.2057   -4.8534 H       1  UNL1        0.0624
     38 H          -2.8478    3.4324    0.8205 H       1  UNL1        0.0624
     39 H          -3.4919    3.7755    3.0969 H       1  UNL1        0.0618
     40 H          -2.5252    2.3546    4.9355 H       1  UNL1        0.0618
     41 H          -0.9574    0.6609    4.3197 H       1  UNL1        0.0638
     42 H           1.4790   -1.0972    2.4594 H       1  UNL1        0.0502
     43 H           0.3007   -0.5193    3.6121 H       1  UNL1        0.0502
     44 H          -1.4104   -1.8817    3.1103 H       1  UNL1        0.0435
     45 H           0.0095   -2.9252    3.1571 H       1  UNL1        0.0435
     46 H          -2.2995    3.3403   -4.0188 H       1  UNL1        0.1581
@<TRIPOS>BOND
     1     1     2    1
     2     2     3   ar
     3     3     4   ar
     4     4     5   ar
     5     5     6   ar
     6     6     7   ar
     7     7     8   ar
     8     8     9   ar
     9     9    10   ar
    10    10    11   ar
    11    11    12   ar
    12    12    13   ar
    13    13    14   ar
    14    14    15   ar
    15    15    16   ar
    16    16    17   ar
    17    17    18   ar
    18    18    19   ar
    19    19    20    1
    20    20    21    1
    21    21    22    1
    22    22    23    3
    23    19    24   ar
    24    24    25   ar
    25    11    26    1
    26    26    27    2
    27    26    28   am
    28    28    29   am
    29    29    30    2
    30    25     2   ar
    31     8     3   ar
    32    25     9   ar
    33    29    10    1
    34    24    12   ar
    35    18    13   ar
    36     1    31    1
    37     1    32    1
    38     1    33    1
    39     4    34    1
    40     5    35    1
    41     6    36    1
    42     7    37    1
    43    14    38    1
    44    15    39    1
    45    16    40    1
    46    17    41    1
    47    20    42    1
    48    20    43    1
    49    21    44    1
    50    21    45    1
    51    28    46    1
