@<TRIPOS>MOLECULE
*****
 53 55 0 0 0
SMALL
GASTEIGER

@<TRIPOS>ATOM
      1 N          -4.9158    3.0453    4.0203 N.1     1  UNL1       -0.1946
      2 C          -5.0522    2.1589    3.2658 C.1     1  UNL1        0.0860
      3 C          -5.2401    1.0514    2.3114 C.3     1  UNL1        0.1226
      4 C          -6.7086    0.7443    2.2859 C.3     1  UNL1        0.0271
      5 S          -6.7446   -0.5532    3.6025 S.3     1  UNL1       -0.1387
      6 C          -5.0811   -1.2260    3.1868 C.3     1  UNL1        0.0623
      7 N          -4.4450   -0.0430    2.6747 N.am    1  UNL1       -0.2745
      8 C          -2.9839   -0.0091    2.4975 C.2     1  UNL1        0.2327
      9 O          -2.3831   -1.0555    2.7470 O.2     1  UNL1       -0.2741
     10 C          -2.3496    1.2525    2.0432 C.3     1  UNL1        0.0904
     11 N          -0.9862    1.1079    1.8115 N.3     1  UNL1       -0.2336
     12 N          -0.1361    1.3600    2.8695 N.3     1  UNL1       -0.2672
     13 C          -0.4576    0.5740    0.6596 C.3     1  UNL1        0.0277
     14 C          -1.0287   -0.7171    0.1991 C.3     1  UNL1       -0.0231
     15 C          -0.5789   -0.9873   -1.2383 C.3     1  UNL1        0.0008
     16 N           0.8493   -0.8559   -1.4238 N.3     1  UNL1       -0.2939
     17 C           1.1449    0.2680   -2.2889 C.3     1  UNL1        0.0761
     18 C           2.5173    0.2001   -2.8563 C.2     1  UNL1        0.2323
     19 O           2.9213    1.2009   -3.5360 O.2     1  UNL1       -0.2740
     20 N           3.3957   -0.8845   -2.7064 N.am    1  UNL1       -0.2693
     21 C           4.7016   -0.9310   -3.2456 C.ar    1  UNL1        0.1250
     22 C           5.8237   -0.5490   -2.4798 C.ar    1  UNL1       -0.0201
     23 C           7.0717   -0.6169   -3.0950 C.ar    1  UNL1       -0.0387
     24 C           7.2424   -1.0272   -4.3726 C.ar    1  UNL1        0.0592
     25 CL          8.8503   -1.0890   -5.0793 Cl      1  UNL1       -0.0820
     26 C           6.0995   -1.4017   -5.1100 C.ar    1  UNL1        0.0480
     27 N           4.9346   -1.3151   -4.4661 N.ar    1  UNL1       -0.2387
     28 C           1.5259   -0.6920   -0.1380 C.3     1  UNL1        0.0008
     29 C           1.0616    0.5541    0.5383 C.3     1  UNL1       -0.0231
     30 H          -4.9062    1.3776    1.2844 H       1  UNL1        0.0667
     31 H          -7.3508    1.5824    2.5372 H       1  UNL1        0.0405
     32 H          -6.9672    0.2469    1.3025 H       1  UNL1        0.0405
     33 H          -4.6120   -1.6278    4.0880 H       1  UNL1        0.0580
     34 H          -5.2048   -2.0162    2.3901 H       1  UNL1        0.0580
     35 H          -2.8753    1.5240    1.0725 H       1  UNL1        0.0536
     36 H          -2.6279    2.0547    2.7687 H       1  UNL1        0.0536
     37 H           0.2572    2.2978    2.9426 H       1  UNL1        0.1370
     38 H          -0.5242    1.0238    3.7556 H       1  UNL1        0.1370
     39 H          -0.7471    1.3170   -0.1900 H       1  UNL1        0.0477
     40 H          -0.7165   -1.5771    0.8041 H       1  UNL1        0.0293
     41 H          -2.1238   -0.6826    0.1427 H       1  UNL1        0.0293
     42 H          -0.8673   -2.0148   -1.4786 H       1  UNL1        0.0427
     43 H          -1.0982   -0.3053   -1.9337 H       1  UNL1        0.0427
     44 H           0.9294    1.2520   -1.8652 H       1  UNL1        0.0522
     45 H           0.4493    0.1334   -3.1727 H       1  UNL1        0.0522
     46 H           3.0565   -1.7490   -2.1784 H       1  UNL1        0.1563
     47 H           5.7027   -0.2282   -1.4759 H       1  UNL1        0.0652
     48 H           7.9063   -0.3159   -2.4578 H       1  UNL1        0.0634
     49 H           6.2526   -1.7225   -6.1180 H       1  UNL1        0.0845
     50 H           1.4148   -1.5998    0.4756 H       1  UNL1        0.0427
     51 H           2.6018   -0.5528   -0.3444 H       1  UNL1        0.0427
     52 H           1.4693    1.4339    0.0282 H       1  UNL1        0.0293
     53 H           1.5328    0.5845    1.5646 H       1  UNL1        0.0293
@<TRIPOS>BOND
     1     1     2    3
     2     2     3    1
     3     3     4    1
     4     4     5    1
     5     5     6    1
     6     6     7    1
     7     7     8   am
     8     8     9    2
     9     8    10    1
    10    10    11    1
    11    11    12    1
    12    11    13    1
    13    13    14    1
    14    14    15    1
    15    15    16    1
    16    16    17    1
    17    17    18    1
    18    18    19    2
    19    18    20   am
    20    20    21    1
    21    21    22   ar
    22    22    23   ar
    23    23    24   ar
    24    24    25    1
    25    24    26   ar
    26    26    27   ar
    27    16    28    1
    28    28    29    1
    29     7     3    1
    30    29    13    1
    31    27    21   ar
    32     3    30    1
    33     4    31    1
    34     4    32    1
    35     6    33    1
    36     6    34    1
    37    10    35    1
    38    10    36    1
    39    12    37    1
    40    12    38    1
    41    13    39    1
    42    14    40    1
    43    14    41    1
    44    15    42    1
    45    15    43    1
    46    17    44    1
    47    17    45    1
    48    20    46    1
    49    22    47    1
    50    23    48    1
    51    26    49    1
    52    28    50    1
    53    28    51    1
    54    29    52    1
    55    29    53    1
