@<TRIPOS>MOLECULE
*****
 50 53 0 0 0
SMALL
GASTEIGER

@<TRIPOS>ATOM
      1 O          -8.1349   -3.2029   -0.6289 O.2     1  UNL1       -0.2495
      2 C          -8.2213   -2.2371    0.1694 C.2     1  UNL1        0.3204
      3 O          -8.9590   -2.3936    1.3224 O.3     1  UNL1       -0.4797
      4 C          -7.5383   -0.9609   -0.1356 C.3     1  UNL1        0.1144
      5 N          -7.7436    0.0299    0.8873 N.3     1  UNL1       -0.1792
      6 S          -6.9261    1.4894    0.4755 S.O2    1  UNL1        0.0589
      7 O          -7.4600    2.0542   -0.8041 O.2     1  UNL1       -0.1530
      8 O          -7.1403    2.4931    1.5955 O.2     1  UNL1       -0.1530
      9 C          -5.2145    1.1604    0.3690 C.ar    1  UNL1        0.1053
     10 C          -4.6224    0.7705   -0.8246 C.ar    1  UNL1       -0.0348
     11 C          -3.2434    0.5179   -0.8604 C.ar    1  UNL1       -0.0522
     12 C          -2.4739    0.6522    0.2725 C.ar    1  UNL1       -0.0178
     13 C          -1.0523    0.4019    0.2809 C.ar    1  UNL1       -0.0178
     14 C          -0.4453   -0.5436   -0.5346 C.ar    1  UNL1       -0.0523
     15 C           0.9174   -0.7261   -0.4733 C.ar    1  UNL1       -0.0399
     16 C           1.7210    0.0206    0.3959 C.ar    1  UNL1        0.0338
     17 N           3.1255   -0.2241    0.4017 N.am    1  UNL1       -0.2790
     18 C           3.9763    0.5068   -0.4635 C.2     1  UNL1        0.2836
     19 O           3.4341    1.3589   -1.2138 O.2     1  UNL1       -0.2665
     20 C           5.4326    0.2867   -0.4914 C.ar    1  UNL1        0.1908
     21 C           6.0702   -0.6365    0.3113 C.ar    1  UNL1       -0.0035
     22 C           7.4233   -0.5615    0.0099 C.ar    1  UNL1        0.0209
     23 C           8.5588   -1.2175    0.4654 C.ar    1  UNL1       -0.0510
     24 C           9.8114   -0.9227   -0.0359 C.ar    1  UNL1       -0.0610
     25 C           9.8732    0.0581   -1.0132 C.ar    1  UNL1       -0.0582
     26 C           8.7517    0.7201   -1.4769 C.ar    1  UNL1       -0.0187
     27 C           7.5231    0.4149   -0.9694 C.ar    1  UNL1        0.1359
     28 O           6.3247    0.8807   -1.2269 O.2     1  UNL1       -0.4502
     29 C           1.1039    0.9484    1.1924 C.ar    1  UNL1       -0.0399
     30 C          -0.2532    1.1338    1.1349 C.ar    1  UNL1       -0.0523
     31 C          -3.0992    1.0400    1.4333 C.ar    1  UNL1       -0.0522
     32 C          -4.4497    1.2950    1.4998 C.ar    1  UNL1       -0.0348
     33 H          -9.0188   -3.2734    1.8064 H       1  UNL1        0.2951
     34 H          -6.4627   -1.1190   -0.3063 H       1  UNL1        0.0556
     35 H          -7.9478   -0.5541   -1.0898 H       1  UNL1        0.0556
     36 H          -7.4257   -0.3084    1.8205 H       1  UNL1        0.1486
     37 H          -5.2502    0.6729   -1.6979 H       1  UNL1        0.0637
     38 H          -2.7731    0.2145   -1.7827 H       1  UNL1        0.0624
     39 H          -1.1004   -1.0995   -1.1917 H       1  UNL1        0.0624
     40 H           1.3594   -1.4654   -1.1167 H       1  UNL1        0.0636
     41 H           3.5456   -0.9530    1.0513 H       1  UNL1        0.1552
     42 H           5.6542   -1.3094    1.0447 H       1  UNL1        0.0663
     43 H           8.4456   -1.9741    1.2307 H       1  UNL1        0.0625
     44 H          10.7028   -1.4264    0.3103 H       1  UNL1        0.0618
     45 H          10.8203    0.3395   -1.4498 H       1  UNL1        0.0619
     46 H           8.8121    1.4914   -2.2473 H       1  UNL1        0.0654
     47 H           1.6833    1.5388    1.8697 H       1  UNL1        0.0636
     48 H          -0.6935    1.8750    1.7785 H       1  UNL1        0.0624
     49 H          -2.5073    1.1472    2.3259 H       1  UNL1        0.0624
     50 H          -4.9134    1.5964    2.4173 H       1  UNL1        0.0637
@<TRIPOS>BOND
     1     1     2    2
     2     2     3    1
     3     2     4    1
     4     4     5    1
     5     5     6    1
     6     6     7    2
     7     6     8    2
     8     6     9    1
     9     9    10   ar
    10    10    11   ar
    11    11    12   ar
    12    12    13    1
    13    13    14   ar
    14    14    15   ar
    15    15    16   ar
    16    16    17    1
    17    17    18   am
    18    18    19    2
    19    18    20    1
    20    20    21   ar
    21    21    22   ar
    22    22    23   ar
    23    23    24   ar
    24    24    25   ar
    25    25    26   ar
    26    26    27   ar
    27    27    28   ar
    28    16    29   ar
    29    29    30   ar
    30    12    31   ar
    31    31    32   ar
    32    32     9   ar
    33    30    13   ar
    34    28    20   ar
    35    27    22   ar
    36     3    33    1
    37     4    34    1
    38     4    35    1
    39     5    36    1
    40    10    37    1
    41    11    38    1
    42    14    39    1
    43    15    40    1
    44    17    41    1
    45    21    42    1
    46    23    43    1
    47    24    44    1
    48    25    45    1
    49    26    46    1
    50    29    47    1
    51    30    48    1
    52    31    49    1
    53    32    50    1
