
     RDKit          3D

 55 59  0  0  0  0  0  0  0  0999 V2000
   -9.0051    1.1071   -0.7263 C   0  0  0  0  0  0  0  0  0  0  0  0
   -8.4143    0.2480    0.2231 O   0  0  0  0  0  0  0  0  0  0  0  0
   -7.0527    0.0513    0.2416 C   0  0  0  0  0  0  0  0  0  0  0  0
   -6.1975    0.6650   -0.6439 C   0  0  0  0  0  0  0  0  0  0  0  0
   -4.8457    0.4104   -0.5533 C   0  0  0  0  0  0  0  0  0  0  0  0
   -4.3097   -0.4384    0.3923 C   0  0  0  0  0  0  0  0  0  0  0  0
   -3.0238   -0.8462    0.6800 C   0  0  0  0  0  0  0  0  0  0  0  0
   -1.8195   -0.4678    0.0242 N   0  0  0  0  0  0  0  0  0  0  0  0
   -0.9810   -1.2269   -0.7023 C   0  0  0  0  0  0  0  0  0  0  0  0
   -1.1438   -2.4598   -0.9257 O   0  0  0  0  0  0  0  0  0  0  0  0
    0.0598   -0.5066   -1.1651 N   0  0  0  0  0  0  0  0  0  0  0  0
    1.1626   -0.9725   -1.9837 C   0  0  0  0  0  0  0  0  0  0  0  0
    2.3008   -1.4747   -1.1659 C   0  0  0  0  0  0  0  0  0  0  0  0
    2.3446   -2.8142   -0.7599 C   0  0  0  0  0  0  0  0  0  0  0  0
    3.4043   -3.2509   -0.0099 C   0  0  0  0  0  0  0  0  0  0  0  0
    4.4636   -2.4306    0.3831 C   0  0  0  0  0  0  0  0  0  0  0  0
    5.7707   -3.0884    1.3421 Cl  0  0  0  0  0  0  0  0  0  0  0  0
    4.4294   -1.1172   -0.0098 C   0  0  0  0  0  0  0  0  0  0  0  0
    5.3908   -0.2293    0.3061 O   0  0  0  0  0  0  0  0  0  0  0  0
    6.5493   -0.0840    0.9493 C   0  0  2  0  0  0  0  0  0  0  0  0
    6.4633    1.0181    2.0358 C   0  0  0  0  0  0  0  0  0  0  0  0
    7.6798    0.3765    0.0368 C   0  0  0  0  0  0  0  0  0  0  0  0
    7.4146    0.5617   -1.1668 O   0  0  0  0  0  0  0  0  0  0  0  0
    8.9483    0.5803    0.5251 O   0  0  0  0  0  0  0  0  0  0  0  0
    3.3239   -0.6703   -0.7899 C   0  0  0  0  0  0  0  0  0  0  0  0
   -0.0904    0.7587   -0.7371 C   0  0  0  0  0  0  0  0  0  0  0  0
    0.6639    1.9216   -0.9057 C   0  0  0  0  0  0  0  0  0  0  0  0
    0.2120    3.0834   -0.3171 C   0  0  0  0  0  0  0  0  0  0  0  0
   -0.9523    3.0937    0.4165 C   0  0  0  0  0  0  0  0  0  0  0  0
   -1.6795    1.9474    0.5722 C   0  0  0  0  0  0  0  0  0  0  0  0
   -1.2589    0.7694   -0.0011 C   0  0  0  0  0  0  0  0  0  0  0  0
   -3.1485   -1.6860    1.7219 N   0  0  0  0  0  0  0  0  0  0  0  0
   -4.3974   -1.7981    2.0609 O   0  0  0  0  0  0  0  0  0  0  0  0
   -5.1703   -1.0663    1.2959 C   0  0  0  0  0  0  0  0  0  0  0  0
   -6.5219   -0.8115    1.2052 C   0  0  0  0  0  0  0  0  0  0  0  0
   -8.7487    0.8288   -1.7693 H   0  0  0  0  0  0  0  0  0  0  0  0
  -10.1119    1.0767   -0.6471 H   0  0  0  0  0  0  0  0  0  0  0  0
   -8.7170    2.1781   -0.5476 H   0  0  0  0  0  0  0  0  0  0  0  0
   -6.6174    1.3302   -1.3850 H   0  0  0  0  0  0  0  0  0  0  0  0
   -4.1927    0.9029   -1.2585 H   0  0  0  0  0  0  0  0  0  0  0  0
    0.8305   -1.7513   -2.7102 H   0  0  0  0  0  0  0  0  0  0  0  0
    1.5119   -0.1154   -2.5926 H   0  0  0  0  0  0  0  0  0  0  0  0
    1.5234   -3.4429   -1.0667 H   0  0  0  0  0  0  0  0  0  0  0  0
    3.4505   -4.2794    0.3092 H   0  0  0  0  0  0  0  0  0  0  0  0
    6.9158   -1.0102    1.4286 H   0  0  0  0  0  0  0  0  0  0  0  0
    7.2804    0.8666    2.7403 H   0  0  0  0  0  0  0  0  0  0  0  0
    6.5698    2.0094    1.5611 H   0  0  0  0  0  0  0  0  0  0  0  0
    5.4514    0.9346    2.4655 H   0  0  0  0  0  0  0  0  0  0  0  0
    9.7515    0.3781   -0.0633 H   0  0  0  0  0  0  0  0  0  0  0  0
    3.3408    0.3840   -1.0809 H   0  0  0  0  0  0  0  0  0  0  0  0
    1.5713    1.9286   -1.4763 H   0  0  0  0  0  0  0  0  0  0  0  0
    0.7425    4.0238   -0.4035 H   0  0  0  0  0  0  0  0  0  0  0  0
   -1.3388    3.9934    0.8953 H   0  0  0  0  0  0  0  0  0  0  0  0
   -2.6138    1.9172    1.1507 H   0  0  0  0  0  0  0  0  0  0  0  0
   -7.1688   -1.3062    1.9120 H   0  0  0  0  0  0  0  0  0  0  0  0
  1  2  1  0
  2  3  1  0
  3  4  2  0
  4  5  1  0
  5  6  2  0
  6  7  1  0
  7  8  1  0
  8  9  1  0
  9 10  2  0
  9 11  1  0
 11 12  1  0
 12 13  1  0
 13 14  2  0
 14 15  1  0
 15 16  2  0
 16 17  1  0
 16 18  1  0
 18 19  1  0
 19 20  1  0
 20 21  1  0
 20 22  1  0
 22 23  2  0
 22 24  1  0
 18 25  2  0
 11 26  1  0
 26 27  2  0
 27 28  1  0
 28 29  2  0
 29 30  1  0
 30 31  2  0
  7 32  2  0
 32 33  1  0
 33 34  1  0
 34 35  2  0
 35  3  1  0
 34  6  1  0
 31  8  1  0
 25 13  1  0
 31 26  1  0
  1 36  1  0
  1 37  1  0
  1 38  1  0
  4 39  1  0
  5 40  1  0
 12 41  1  0
 12 42  1  0
 14 43  1  0
 15 44  1  0
 20 45  1  1
 21 46  1  0
 21 47  1  0
 21 48  1  0
 24 49  1  0
 25 50  1  0
 27 51  1  0
 28 52  1  0
 29 53  1  0
 30 54  1  0
 35 55  1  0
M  END
$$$$
