@<TRIPOS>MOLECULE
*****
 55 59 0 0 0
SMALL
GASTEIGER

@<TRIPOS>ATOM
      1 C          -9.0051    1.1071   -0.7263 C.3     1  UNL1        0.0788
      2 O          -8.4143    0.2480    0.2231 O.3     1  UNL1       -0.4950
      3 C          -7.0527    0.0513    0.2416 C.ar    1  UNL1        0.1237
      4 C          -6.1975    0.6650   -0.6439 C.ar    1  UNL1       -0.0190
      5 C          -4.8457    0.4104   -0.5533 C.ar    1  UNL1       -0.0439
      6 C          -4.3097   -0.4384    0.3923 C.ar    1  UNL1        0.0662
      7 C          -3.0238   -0.8462    0.6800 C.ar    1  UNL1        0.1922
      8 N          -1.8195   -0.4678    0.0242 N.ar    1  UNL1       -0.2413
      9 C          -0.9810   -1.2269   -0.7023 C.ar    1  UNL1        0.3362
     10 O          -1.1438   -2.4598   -0.9257 O.2     1  UNL1       -0.2459
     11 N           0.0598   -0.5066   -1.1651 N.ar    1  UNL1       -0.2874
     12 C           1.1626   -0.9725   -1.9837 C.3     1  UNL1        0.0533
     13 C           2.3008   -1.4747   -1.1659 C.ar    1  UNL1       -0.0241
     14 C           2.3446   -2.8142   -0.7599 C.ar    1  UNL1       -0.0553
     15 C           3.4043   -3.2509   -0.0099 C.ar    1  UNL1       -0.0395
     16 C           4.4636   -2.4306    0.3831 C.ar    1  UNL1        0.0826
     17 CL          5.7707   -3.0884    1.3421 Cl      1  UNL1       -0.0798
     18 C           4.4294   -1.1172   -0.0098 C.ar    1  UNL1        0.1402
     19 O           5.3908   -0.2293    0.3061 O.3     1  UNL1       -0.4765
     20 C           6.5493   -0.0840    0.9493 C.3     1  UNL1        0.1931
     21 C           6.4633    1.0181    2.0358 C.3     1  UNL1       -0.0172
     22 C           7.6798    0.3765    0.0368 C.2     1  UNL1        0.3456
     23 O           7.4146    0.5617   -1.1668 O.2     1  UNL1       -0.2468
     24 O           8.9483    0.5803    0.5251 O.3     1  UNL1       -0.4781
     25 C           3.3239   -0.6703   -0.7899 C.ar    1  UNL1       -0.0136
     26 C          -0.0904    0.7587   -0.7371 C.ar    1  UNL1        0.0706
     27 C           0.6639    1.9216   -0.9057 C.ar    1  UNL1       -0.0360
     28 C           0.2120    3.0834   -0.3171 C.ar    1  UNL1       -0.0597
     29 C          -0.9523    3.0937    0.4165 C.ar    1  UNL1       -0.0597
     30 C          -1.6795    1.9474    0.5722 C.ar    1  UNL1       -0.0356
     31 C          -1.2589    0.7694   -0.0011 C.ar    1  UNL1        0.0765
     32 N          -3.1485   -1.6860    1.7219 N.ar    1  UNL1       -0.0587
     33 O          -4.3974   -1.7981    2.0609 O.2     1  UNL1       -0.3525
     34 C          -5.1703   -1.0663    1.2959 C.ar    1  UNL1        0.1728
     35 C          -6.5219   -0.8115    1.2052 C.ar    1  UNL1        0.0257
     36 H          -8.7487    0.8288   -1.7693 H       1  UNL1        0.0660
     37 H         -10.1119    1.0767   -0.6471 H       1  UNL1        0.0660
     38 H          -8.7170    2.1781   -0.5476 H       1  UNL1        0.0660
     39 H          -6.6174    1.3302   -1.3850 H       1  UNL1        0.0654
     40 H          -4.1927    0.9029   -1.2585 H       1  UNL1        0.0627
     41 H           0.8305   -1.7513   -2.7102 H       1  UNL1        0.0543
     42 H           1.5119   -0.1154   -2.5926 H       1  UNL1        0.0543
     43 H           1.5234   -3.4429   -1.0667 H       1  UNL1        0.0621
     44 H           3.4505   -4.2794    0.3092 H       1  UNL1        0.0633
     45 H           6.9158   -1.0102    1.4286 H       1  UNL1        0.0849
     46 H           7.2804    0.8666    2.7403 H       1  UNL1        0.0271
     47 H           6.5698    2.0094    1.5611 H       1  UNL1        0.0271
     48 H           5.4514    0.9346    2.4655 H       1  UNL1        0.0271
     49 H           9.7515    0.3781   -0.0633 H       1  UNL1        0.2952
     50 H           3.3408    0.3840   -1.0809 H       1  UNL1        0.0658
     51 H           1.5713    1.9286   -1.4763 H       1  UNL1        0.0639
     52 H           0.7425    4.0238   -0.4035 H       1  UNL1        0.0618
     53 H          -1.3388    3.9934    0.8953 H       1  UNL1        0.0618
     54 H          -2.6138    1.9172    1.1507 H       1  UNL1        0.0639
     55 H          -7.1688   -1.3062    1.9120 H       1  UNL1        0.0692
@<TRIPOS>BOND
     1     1     2    1
     2     2     3    1
     3     3     4   ar
     4     4     5   ar
     5     5     6   ar
     6     6     7   ar
     7     7     8    1
     8     8     9   ar
     9     9    10    2
    10     9    11   ar
    11    11    12    1
    12    12    13    1
    13    13    14   ar
    14    14    15   ar
    15    15    16   ar
    16    16    17    1
    17    16    18   ar
    18    18    19    1
    19    19    20    1
    20    20    21    1
    21    20    22    1
    22    22    23    2
    23    22    24    1
    24    18    25   ar
    25    11    26   ar
    26    26    27   ar
    27    27    28   ar
    28    28    29   ar
    29    29    30   ar
    30    30    31   ar
    31     7    32   ar
    32    32    33   ar
    33    33    34   ar
    34    34    35   ar
    35    35     3   ar
    36    34     6   ar
    37    31     8   ar
    38    25    13   ar
    39    31    26   ar
    40     1    36    1
    41     1    37    1
    42     1    38    1
    43     4    39    1
    44     5    40    1
    45    12    41    1
    46    12    42    1
    47    14    43    1
    48    15    44    1
    49    20    45    1
    50    21    46    1
    51    21    47    1
    52    21    48    1
    53    24    49    1
    54    25    50    1
    55    27    51    1
    56    28    52    1
    57    29    53    1
    58    30    54    1
    59    35    55    1
