@<TRIPOS>MOLECULE
*****
 30 31 0 0 0
SMALL
GASTEIGER

@<TRIPOS>ATOM
      1 N          -3.4369   -1.7176   -1.6769 N.pl3   1  UNL1       -0.3044
      2 C          -2.7541   -0.8344   -0.7713 C.ar    1  UNL1        0.2859
      3 C          -1.3800   -0.7671   -0.8194 C.ar    1  UNL1        0.0673
      4 C          -0.6237    0.0424   -0.0010 C.ar    1  UNL1        0.1369
      5 N          -1.2856    0.7990    0.8851 N.ar    1  UNL1       -0.1556
      6 C          -2.6433    0.7305    0.9302 C.ar    1  UNL1        0.3863
      7 N          -3.3955    1.5146    1.8543 N.pl3   1  UNL1       -0.2871
      8 N          -3.3794   -0.0610    0.1297 N.ar    1  UNL1       -0.1195
      9 O          -4.7391   -0.1276    0.1771 O.co2   1  UNL1       -0.6162
     10 N           0.7960    0.1246   -0.0367 N.pl3   1  UNL1       -0.3148
     11 C           1.5292    1.0135    0.8711 C.3     1  UNL1        0.0135
     12 C           2.7865    0.2599    1.2764 C.3     1  UNL1       -0.0371
     13 C           3.6704    0.0079    0.0753 C.3     1  UNL1       -0.0502
     14 C           2.8768    0.1178   -1.2203 C.3     1  UNL1       -0.0371
     15 C           1.5897   -0.6586   -0.9642 C.3     1  UNL1        0.0135
     16 H          -3.4164   -2.6229   -1.1569 H       1  UNL1        0.1478
     17 H          -3.8766   -1.5926   -2.6267 H       1  UNL1        0.1478
     18 H          -0.8606   -1.3911   -1.5477 H       1  UNL1        0.0733
     19 H          -4.2528    2.0372    1.5319 H       1  UNL1        0.1494
     20 H          -3.4576    1.8271    2.8487 H       1  UNL1        0.1494
     21 H           0.9574    1.1997    1.8029 H       1  UNL1        0.0464
     22 H           1.7770    1.9248    0.3304 H       1  UNL1        0.0464
     23 H           3.3538    0.8190    2.0331 H       1  UNL1        0.0280
     24 H           2.5095   -0.7245    1.7063 H       1  UNL1        0.0280
     25 H           4.1080   -1.0048    0.1124 H       1  UNL1        0.0266
     26 H           4.5060    0.7314    0.0432 H       1  UNL1        0.0266
     27 H           2.5786    1.1611   -1.4390 H       1  UNL1        0.0280
     28 H           3.4984   -0.3404   -2.0086 H       1  UNL1        0.0280
     29 H           1.8869   -1.5999   -0.4241 H       1  UNL1        0.0464
     30 H           1.0771   -0.8679   -1.9152 H       1  UNL1        0.0464
@<TRIPOS>UNITY_ATOM_ATTR
8 1
charge 1
9 1
charge -1
@<TRIPOS>BOND
     1     1     2    1
     2     2     3   ar
     3     3     4   ar
     4     4     5   ar
     5     5     6   ar
     6     6     7    1
     7     6     8   ar
     8     8     9    1
     9     4    10    1
    10    10    11    1
    11    11    12    1
    12    12    13    1
    13    13    14    1
    14    14    15    1
    15     8     2   ar
    16    15    10    1
    17     1    16    1
    18     1    17    1
    19     3    18    1
    20     7    19    1
    21     7    20    1
    22    11    21    1
    23    11    22    1
    24    12    23    1
    25    12    24    1
    26    13    25    1
    27    13    26    1
    28    14    27    1
    29    14    28    1
    30    15    29    1
    31    15    30    1
