
     RDKit          3D

 30 31  0  0  0  0  0  0  0  0999 V2000
   -3.4369   -1.7176   -1.6769 N   0  0  0  0  0  0  0  0  0  0  0  0
   -2.7541   -0.8344   -0.7713 C   0  0  0  0  0  0  0  0  0  0  0  0
   -1.3800   -0.7671   -0.8194 C   0  0  0  0  0  0  0  0  0  0  0  0
   -0.6237    0.0424   -0.0010 C   0  0  0  0  0  0  0  0  0  0  0  0
   -1.2856    0.7990    0.8851 N   0  0  0  0  0  0  0  0  0  0  0  0
   -2.6433    0.7305    0.9302 C   0  0  0  0  0  0  0  0  0  0  0  0
   -3.3955    1.5146    1.8543 N   0  0  0  0  0  0  0  0  0  0  0  0
   -3.3794   -0.0610    0.1297 N   0  0  0  0  0  4  0  0  0  0  0  0
   -4.7391   -0.1276    0.1771 O   0  0  0  0  0  1  0  0  0  0  0  0
    0.7960    0.1246   -0.0367 N   0  0  0  0  0  0  0  0  0  0  0  0
    1.5292    1.0135    0.8711 C   0  0  0  0  0  0  0  0  0  0  0  0
    2.7865    0.2599    1.2764 C   0  0  0  0  0  0  0  0  0  0  0  0
    3.6704    0.0079    0.0753 C   0  0  0  0  0  0  0  0  0  0  0  0
    2.8768    0.1178   -1.2203 C   0  0  0  0  0  0  0  0  0  0  0  0
    1.5897   -0.6586   -0.9642 C   0  0  0  0  0  0  0  0  0  0  0  0
   -3.4164   -2.6229   -1.1569 H   0  0  0  0  0  0  0  0  0  0  0  0
   -3.8766   -1.5926   -2.6267 H   0  0  0  0  0  0  0  0  0  0  0  0
   -0.8606   -1.3911   -1.5477 H   0  0  0  0  0  0  0  0  0  0  0  0
   -4.2528    2.0372    1.5319 H   0  0  0  0  0  0  0  0  0  0  0  0
   -3.4576    1.8271    2.8487 H   0  0  0  0  0  0  0  0  0  0  0  0
    0.9574    1.1997    1.8029 H   0  0  0  0  0  0  0  0  0  0  0  0
    1.7770    1.9248    0.3304 H   0  0  0  0  0  0  0  0  0  0  0  0
    3.3538    0.8190    2.0331 H   0  0  0  0  0  0  0  0  0  0  0  0
    2.5095   -0.7245    1.7063 H   0  0  0  0  0  0  0  0  0  0  0  0
    4.1080   -1.0048    0.1124 H   0  0  0  0  0  0  0  0  0  0  0  0
    4.5060    0.7314    0.0432 H   0  0  0  0  0  0  0  0  0  0  0  0
    2.5786    1.1611   -1.4390 H   0  0  0  0  0  0  0  0  0  0  0  0
    3.4984   -0.3404   -2.0086 H   0  0  0  0  0  0  0  0  0  0  0  0
    1.8869   -1.5999   -0.4241 H   0  0  0  0  0  0  0  0  0  0  0  0
    1.0771   -0.8679   -1.9152 H   0  0  0  0  0  0  0  0  0  0  0  0
  1  2  1  0
  2  3  2  0
  3  4  1  0
  4  5  2  0
  5  6  1  0
  6  7  1  0
  6  8  2  0
  8  9  1  0
  4 10  1  0
 10 11  1  0
 11 12  1  0
 12 13  1  0
 13 14  1  0
 14 15  1  0
  8  2  1  0
 15 10  1  0
  1 16  1  0
  1 17  1  0
  3 18  1  0
  7 19  1  0
  7 20  1  0
 11 21  1  0
 11 22  1  0
 12 23  1  0
 12 24  1  0
 13 25  1  0
 13 26  1  0
 14 27  1  0
 14 28  1  0
 15 29  1  0
 15 30  1  0
M  CHG  2   8   1   9  -1
M  END
$$$$
