@<TRIPOS>MOLECULE
*****
 68 71 0 0 0
SMALL
GASTEIGER

@<TRIPOS>ATOM
      1 C           9.1931    2.5027   -0.3866 C.3     1  UNL1       -0.0307
      2 C           7.8045    2.0275   -0.0292 C.3     1  UNL1        0.0869
      3 O           6.8955    2.4675   -1.0260 O.3     1  UNL1       -0.4894
      4 C           5.5363    2.1779   -0.9629 C.ar    1  UNL1        0.1555
      5 C           5.0148    1.4447    0.0816 C.ar    1  UNL1       -0.0168
      6 C           3.6792    1.1599    0.1438 C.ar    1  UNL1       -0.0532
      7 C           2.8214    1.6040   -0.8446 C.ar    1  UNL1       -0.0246
      8 C           1.3635    1.3177   -0.8064 C.3     1  UNL1        0.0445
      9 C           0.8644    1.4579   -2.2484 C.3     1  UNL1       -0.0425
     10 N           1.1160   -0.0510   -0.4190 N.pl3   1  UNL1       -0.3221
     11 C          -0.2082   -0.5029   -0.2450 C.ar    1  UNL1        0.1297
     12 N          -1.2287    0.3409   -0.4282 N.ar    1  UNL1       -0.1992
     13 C          -2.4927   -0.0538   -0.2647 C.ar    1  UNL1        0.2203
     14 N          -3.6038    0.8249   -0.4536 N.pl3   1  UNL1       -0.2966
     15 C          -3.3700    2.2266   -0.8377 C.3     1  UNL1        0.0307
     16 C          -4.0460    3.0448    0.2711 C.3     1  UNL1        0.0305
     17 N          -5.3515    2.5183    0.5704 N.am    1  UNL1       -0.2987
     18 C          -6.0843    3.0099    1.6633 C.2     1  UNL1        0.2126
     19 C          -7.4311    2.5221    2.0390 C.3     1  UNL1        0.0124
     20 O          -5.5780    3.9284    2.3846 O.2     1  UNL1       -0.2759
     21 C          -5.9077    1.4801   -0.2598 C.3     1  UNL1        0.0305
     22 C          -4.9387    0.3197   -0.2638 C.3     1  UNL1        0.0307
     23 N          -2.7279   -1.3240    0.0904 N.ar    1  UNL1       -0.2092
     24 C          -1.7712   -2.2281    0.2929 C.ar    1  UNL1        0.1371
     25 C          -0.4711   -1.8048    0.1198 C.ar    1  UNL1        0.0401
     26 C           0.4468   -2.9140    0.3788 C.3     1  UNL1        0.0458
     27 N          -0.3430   -4.0779    0.7325 N.am    1  UNL1       -0.2892
     28 C           0.2090   -5.3439    1.0540 C.3     1  UNL1        0.0211
     29 C          -0.2248   -6.3263   -0.0412 C.3     1  UNL1       -0.0467
     30 C          -0.2419   -5.9252    2.3570 C.3     1  UNL1       -0.0467
     31 C          -1.6956   -3.6334    0.6717 C.2     1  UNL1        0.2660
     32 O          -2.6754   -4.3530    0.9111 O.2     1  UNL1       -0.2683
     33 C           3.3388    2.3308   -1.8798 C.ar    1  UNL1       -0.0179
     34 C           4.7034    2.6260   -1.9503 C.ar    1  UNL1        0.1651
     35 F           5.1830    3.3495   -2.9919 F       1  UNL1       -0.2016
     36 H           9.4637    3.3528    0.2760 H       1  UNL1        0.0262
     37 H           9.9249    1.6789   -0.3120 H       1  UNL1        0.0262
     38 H           9.2056    2.9002   -1.4426 H       1  UNL1        0.0262
     39 H           7.8307    0.9038   -0.0259 H       1  UNL1        0.0694
     40 H           7.5317    2.4161    0.9553 H       1  UNL1        0.0694
     41 H           5.6806    1.0873    0.8695 H       1  UNL1        0.0655
     42 H           3.2721    0.5797    0.9722 H       1  UNL1        0.0622
     43 H           0.8576    2.0427   -0.1656 H       1  UNL1        0.0545
     44 H           1.6812    0.9881   -2.8700 H       1  UNL1        0.0251
     45 H          -0.0886    0.9220   -2.3929 H       1  UNL1        0.0251
     46 H           0.7163    2.5212   -2.4683 H       1  UNL1        0.0251
     47 H           1.9269   -0.6856   -0.2737 H       1  UNL1        0.1481
     48 H          -3.8985    2.4564   -1.7730 H       1  UNL1        0.0480
     49 H          -2.3117    2.4770   -0.8130 H       1  UNL1        0.0480
     50 H          -4.0680    4.1174   -0.0035 H       1  UNL1        0.0480
     51 H          -3.4080    2.8957    1.1751 H       1  UNL1        0.0480
     52 H          -7.4748    1.4162    2.1075 H       1  UNL1        0.0323
     53 H          -8.1436    2.8643    1.2493 H       1  UNL1        0.0323
     54 H          -7.6931    2.9025    3.0440 H       1  UNL1        0.0323
     55 H          -5.9614    1.8275   -1.3335 H       1  UNL1        0.0480
     56 H          -6.9250    1.1814    0.0523 H       1  UNL1        0.0480
     57 H          -5.2093   -0.4583   -1.0059 H       1  UNL1        0.0480
     58 H          -4.9633   -0.1127    0.7768 H       1  UNL1        0.0480
     59 H           1.1667   -2.6757    1.2069 H       1  UNL1        0.0516
     60 H           1.0558   -3.1011   -0.5363 H       1  UNL1        0.0516
     61 H           1.3110   -5.3070    0.9938 H       1  UNL1        0.0495
     62 H          -1.2078   -6.0069   -0.4613 H       1  UNL1        0.0247
     63 H          -0.2566   -7.3542    0.3471 H       1  UNL1        0.0247
     64 H           0.5046   -6.2711   -0.8873 H       1  UNL1        0.0247
     65 H          -0.1931   -5.2478    3.2067 H       1  UNL1        0.0247
     66 H          -1.2630   -6.3812    2.2162 H       1  UNL1        0.0247
     67 H           0.4270   -6.7883    2.5852 H       1  UNL1        0.0247
     68 H           2.7314    2.7154   -2.6919 H       1  UNL1        0.0651
@<TRIPOS>BOND
     1     1     2    1
     2     2     3    1
     3     3     4    1
     4     4     5   ar
     5     5     6   ar
     6     6     7   ar
     7     7     8    1
     8     8     9    1
     9     8    10    1
    10    10    11    1
    11    11    12   ar
    12    12    13   ar
    13    13    14    1
    14    14    15    1
    15    15    16    1
    16    16    17    1
    17    17    18   am
    18    18    19    1
    19    18    20    2
    20    17    21    1
    21    21    22    1
    22    13    23   ar
    23    23    24   ar
    24    24    25   ar
    25    25    26    1
    26    26    27    1
    27    27    28    1
    28    28    29    1
    29    28    30    1
    30    27    31   am
    31    31    32    2
    32     7    33   ar
    33    33    34   ar
    34    34    35    1
    35    34     4   ar
    36    25    11   ar
    37    22    14    1
    38    31    24    1
    39     1    36    1
    40     1    37    1
    41     1    38    1
    42     2    39    1
    43     2    40    1
    44     5    41    1
    45     6    42    1
    46     8    43    1
    47     9    44    1
    48     9    45    1
    49     9    46    1
    50    10    47    1
    51    15    48    1
    52    15    49    1
    53    16    50    1
    54    16    51    1
    55    19    52    1
    56    19    53    1
    57    19    54    1
    58    21    55    1
    59    21    56    1
    60    22    57    1
    61    22    58    1
    62    26    59    1
    63    26    60    1
    64    28    61    1
    65    29    62    1
    66    29    63    1
    67    29    64    1
    68    30    65    1
    69    30    66    1
    70    30    67    1
    71    33    68    1
