
     RDKit          3D

 68 71  0  0  0  0  0  0  0  0999 V2000
    9.1931    2.5027   -0.3866 C   0  0  0  0  0  0  0  0  0  0  0  0
    7.8045    2.0275   -0.0292 C   0  0  0  0  0  0  0  0  0  0  0  0
    6.8955    2.4675   -1.0260 O   0  0  0  0  0  0  0  0  0  0  0  0
    5.5363    2.1779   -0.9629 C   0  0  0  0  0  0  0  0  0  0  0  0
    5.0148    1.4447    0.0816 C   0  0  0  0  0  0  0  0  0  0  0  0
    3.6792    1.1599    0.1438 C   0  0  0  0  0  0  0  0  0  0  0  0
    2.8214    1.6040   -0.8446 C   0  0  0  0  0  0  0  0  0  0  0  0
    1.3635    1.3177   -0.8064 C   0  0  1  0  0  0  0  0  0  0  0  0
    0.8644    1.4579   -2.2484 C   0  0  0  0  0  0  0  0  0  0  0  0
    1.1160   -0.0510   -0.4190 N   0  0  0  0  0  0  0  0  0  0  0  0
   -0.2082   -0.5029   -0.2450 C   0  0  0  0  0  0  0  0  0  0  0  0
   -1.2287    0.3409   -0.4282 N   0  0  0  0  0  0  0  0  0  0  0  0
   -2.4927   -0.0538   -0.2647 C   0  0  0  0  0  0  0  0  0  0  0  0
   -3.6038    0.8249   -0.4536 N   0  0  0  0  0  0  0  0  0  0  0  0
   -3.3700    2.2266   -0.8377 C   0  0  0  0  0  0  0  0  0  0  0  0
   -4.0460    3.0448    0.2711 C   0  0  0  0  0  0  0  0  0  0  0  0
   -5.3515    2.5183    0.5704 N   0  0  0  0  0  0  0  0  0  0  0  0
   -6.0843    3.0099    1.6633 C   0  0  0  0  0  0  0  0  0  0  0  0
   -7.4311    2.5221    2.0390 C   0  0  0  0  0  0  0  0  0  0  0  0
   -5.5780    3.9284    2.3846 O   0  0  0  0  0  0  0  0  0  0  0  0
   -5.9077    1.4801   -0.2598 C   0  0  0  0  0  0  0  0  0  0  0  0
   -4.9387    0.3197   -0.2638 C   0  0  0  0  0  0  0  0  0  0  0  0
   -2.7279   -1.3240    0.0904 N   0  0  0  0  0  0  0  0  0  0  0  0
   -1.7712   -2.2281    0.2929 C   0  0  0  0  0  0  0  0  0  0  0  0
   -0.4711   -1.8048    0.1198 C   0  0  0  0  0  0  0  0  0  0  0  0
    0.4468   -2.9140    0.3788 C   0  0  0  0  0  0  0  0  0  0  0  0
   -0.3430   -4.0779    0.7325 N   0  0  0  0  0  0  0  0  0  0  0  0
    0.2090   -5.3439    1.0540 C   0  0  0  0  0  0  0  0  0  0  0  0
   -0.2248   -6.3263   -0.0412 C   0  0  0  0  0  0  0  0  0  0  0  0
   -0.2419   -5.9252    2.3570 C   0  0  0  0  0  0  0  0  0  0  0  0
   -1.6956   -3.6334    0.6717 C   0  0  0  0  0  0  0  0  0  0  0  0
   -2.6754   -4.3530    0.9111 O   0  0  0  0  0  0  0  0  0  0  0  0
    3.3388    2.3308   -1.8798 C   0  0  0  0  0  0  0  0  0  0  0  0
    4.7034    2.6260   -1.9503 C   0  0  0  0  0  0  0  0  0  0  0  0
    5.1830    3.3495   -2.9919 F   0  0  0  0  0  0  0  0  0  0  0  0
    9.4637    3.3528    0.2760 H   0  0  0  0  0  0  0  0  0  0  0  0
    9.9249    1.6789   -0.3120 H   0  0  0  0  0  0  0  0  0  0  0  0
    9.2056    2.9002   -1.4426 H   0  0  0  0  0  0  0  0  0  0  0  0
    7.8307    0.9038   -0.0259 H   0  0  0  0  0  0  0  0  0  0  0  0
    7.5317    2.4161    0.9553 H   0  0  0  0  0  0  0  0  0  0  0  0
    5.6806    1.0873    0.8695 H   0  0  0  0  0  0  0  0  0  0  0  0
    3.2721    0.5797    0.9722 H   0  0  0  0  0  0  0  0  0  0  0  0
    0.8576    2.0427   -0.1656 H   0  0  0  0  0  0  0  0  0  0  0  0
    1.6812    0.9881   -2.8700 H   0  0  0  0  0  0  0  0  0  0  0  0
   -0.0886    0.9220   -2.3929 H   0  0  0  0  0  0  0  0  0  0  0  0
    0.7163    2.5212   -2.4683 H   0  0  0  0  0  0  0  0  0  0  0  0
    1.9269   -0.6856   -0.2737 H   0  0  0  0  0  0  0  0  0  0  0  0
   -3.8985    2.4564   -1.7730 H   0  0  0  0  0  0  0  0  0  0  0  0
   -2.3117    2.4770   -0.8130 H   0  0  0  0  0  0  0  0  0  0  0  0
   -4.0680    4.1174   -0.0035 H   0  0  0  0  0  0  0  0  0  0  0  0
   -3.4080    2.8957    1.1751 H   0  0  0  0  0  0  0  0  0  0  0  0
   -7.4748    1.4162    2.1075 H   0  0  0  0  0  0  0  0  0  0  0  0
   -8.1436    2.8643    1.2493 H   0  0  0  0  0  0  0  0  0  0  0  0
   -7.6931    2.9025    3.0440 H   0  0  0  0  0  0  0  0  0  0  0  0
   -5.9614    1.8275   -1.3335 H   0  0  0  0  0  0  0  0  0  0  0  0
   -6.9250    1.1814    0.0523 H   0  0  0  0  0  0  0  0  0  0  0  0
   -5.2093   -0.4583   -1.0059 H   0  0  0  0  0  0  0  0  0  0  0  0
   -4.9633   -0.1127    0.7768 H   0  0  0  0  0  0  0  0  0  0  0  0
    1.1667   -2.6757    1.2069 H   0  0  0  0  0  0  0  0  0  0  0  0
    1.0558   -3.1011   -0.5363 H   0  0  0  0  0  0  0  0  0  0  0  0
    1.3110   -5.3070    0.9938 H   0  0  0  0  0  0  0  0  0  0  0  0
   -1.2078   -6.0069   -0.4613 H   0  0  0  0  0  0  0  0  0  0  0  0
   -0.2566   -7.3542    0.3471 H   0  0  0  0  0  0  0  0  0  0  0  0
    0.5046   -6.2711   -0.8873 H   0  0  0  0  0  0  0  0  0  0  0  0
   -0.1931   -5.2478    3.2067 H   0  0  0  0  0  0  0  0  0  0  0  0
   -1.2630   -6.3812    2.2162 H   0  0  0  0  0  0  0  0  0  0  0  0
    0.4270   -6.7883    2.5852 H   0  0  0  0  0  0  0  0  0  0  0  0
    2.7314    2.7154   -2.6919 H   0  0  0  0  0  0  0  0  0  0  0  0
  1  2  1  0
  2  3  1  0
  3  4  1  0
  4  5  2  0
  5  6  1  0
  6  7  2  0
  7  8  1  0
  8  9  1  0
  8 10  1  0
 10 11  1  0
 11 12  2  0
 12 13  1  0
 13 14  1  0
 14 15  1  0
 15 16  1  0
 16 17  1  0
 17 18  1  0
 18 19  1  0
 18 20  2  0
 17 21  1  0
 21 22  1  0
 13 23  2  0
 23 24  1  0
 24 25  2  0
 25 26  1  0
 26 27  1  0
 27 28  1  0
 28 29  1  0
 28 30  1  0
 27 31  1  0
 31 32  2  0
  7 33  1  0
 33 34  2  0
 34 35  1  0
 34  4  1  0
 25 11  1  0
 22 14  1  0
 31 24  1  0
  1 36  1  0
  1 37  1  0
  1 38  1  0
  2 39  1  0
  2 40  1  0
  5 41  1  0
  6 42  1  0
  8 43  1  1
  9 44  1  0
  9 45  1  0
  9 46  1  0
 10 47  1  0
 15 48  1  0
 15 49  1  0
 16 50  1  0
 16 51  1  0
 19 52  1  0
 19 53  1  0
 19 54  1  0
 21 55  1  0
 21 56  1  0
 22 57  1  0
 22 58  1  0
 26 59  1  0
 26 60  1  0
 28 61  1  0
 29 62  1  0
 29 63  1  0
 29 64  1  0
 30 65  1  0
 30 66  1  0
 30 67  1  0
 33 68  1  0
M  END
$$$$
