@<TRIPOS>MOLECULE
*****
 40 41 0 0 0
SMALL
GASTEIGER

@<TRIPOS>ATOM
      1 C          -1.1383   -2.3707    0.7026 C.3     1  UNL1       -0.0612
      2 C          -0.4234   -1.1779    1.3582 C.3     1  UNL1       -0.0297
      3 C          -0.4807   -0.1003    0.3385 C.2     1  UNL1       -0.0368
      4 C           0.5678    0.4529   -0.2271 C.2     1  UNL1       -0.0368
      5 C           0.4705    1.5270   -1.2296 C.3     1  UNL1       -0.0297
      6 C           1.0901    1.1327   -2.5531 C.3     1  UNL1       -0.0612
      7 C           1.9253    0.0193    0.0543 C.ar    1  UNL1       -0.0214
      8 C           2.4055   -1.2499    0.0988 C.ar    1  UNL1       -0.0509
      9 C           3.7005   -1.6402    0.4007 C.ar    1  UNL1       -0.0196
     10 C           4.6060   -0.6372    0.6875 C.ar    1  UNL1        0.1169
     11 O           5.9112   -0.9903    0.9945 O.3     1  UNL1       -0.5068
     12 C           4.1734    0.6882    0.6573 C.ar    1  UNL1       -0.0196
     13 C           2.8499    1.0117    0.3443 C.ar    1  UNL1       -0.0509
     14 C          -1.8548    0.2040    0.0169 C.ar    1  UNL1       -0.0214
     15 C          -2.6917    0.5768    1.0771 C.ar    1  UNL1       -0.0509
     16 C          -4.0545    0.8706    0.9415 C.ar    1  UNL1       -0.0196
     17 C          -4.6601    0.7990   -0.3198 C.ar    1  UNL1        0.1169
     18 O          -5.9893    1.0923   -0.4085 O.3     1  UNL1       -0.5068
     19 C          -3.8081    0.4317   -1.3338 C.ar    1  UNL1       -0.0196
     20 C          -2.4744    0.1364   -1.2411 C.ar    1  UNL1       -0.0509
     21 H          -0.4249   -3.0538    0.1991 H       1  UNL1        0.0233
     22 H          -1.8965   -1.9988   -0.0236 H       1  UNL1        0.0233
     23 H          -1.7262   -2.9394    1.4490 H       1  UNL1        0.0233
     24 H          -1.0903   -0.8925    2.2312 H       1  UNL1        0.0311
     25 H           0.5713   -1.4180    1.7347 H       1  UNL1        0.0311
     26 H           0.9472    2.4844   -0.8920 H       1  UNL1        0.0311
     27 H          -0.6176    1.6986   -1.4372 H       1  UNL1        0.0311
     28 H           1.7752    1.9001   -2.9683 H       1  UNL1        0.0233
     29 H           1.5550    0.1244   -2.4521 H       1  UNL1        0.0233
     30 H           0.3018    1.0022   -3.3216 H       1  UNL1        0.0233
     31 H           1.7255   -2.0498   -0.1391 H       1  UNL1        0.0625
     32 H           3.9631   -2.6725    0.4067 H       1  UNL1        0.0654
     33 H           6.7213   -0.4022    0.8878 H       1  UNL1        0.2921
     34 H           4.9113    1.4447    0.8855 H       1  UNL1        0.0654
     35 H           2.5961    2.0597    0.3400 H       1  UNL1        0.0625
     36 H          -2.3133    0.6740    2.1065 H       1  UNL1        0.0625
     37 H          -4.6230    1.1545    1.8276 H       1  UNL1        0.0654
     38 H          -6.3597    1.8895    0.1168 H       1  UNL1        0.2921
     39 H          -4.2731    0.3745   -2.3135 H       1  UNL1        0.0654
     40 H          -1.8683   -0.1556   -2.0601 H       1  UNL1        0.0625
@<TRIPOS>BOND
     1     1     2    1
     2     2     3    1
     3     3     4    2
     4     4     5    1
     5     5     6    1
     6     4     7    1
     7     7     8   ar
     8     8     9   ar
     9     9    10   ar
    10    10    11    1
    11    10    12   ar
    12    12    13   ar
    13     3    14    1
    14    14    15   ar
    15    15    16   ar
    16    16    17   ar
    17    17    18    1
    18    17    19   ar
    19    19    20   ar
    20    13     7   ar
    21    20    14   ar
    22     1    21    1
    23     1    22    1
    24     1    23    1
    25     2    24    1
    26     2    25    1
    27     5    26    1
    28     5    27    1
    29     6    28    1
    30     6    29    1
    31     6    30    1
    32     8    31    1
    33     9    32    1
    34    11    33    1
    35    12    34    1
    36    13    35    1
    37    15    36    1
    38    16    37    1
    39    18    38    1
    40    19    39    1
    41    20    40    1
