
     RDKit          3D

 52 55  0  0  0  0  0  0  0  0999 V2000
    1.5488    1.0683   -4.0259 N   0  0  0  0  0  0  0  0  0  0  0  0
    1.6744    1.2000   -2.5994 C   0  0  0  0  0  0  0  0  0  0  0  0
    2.7270    1.6692   -2.1770 O   0  0  0  0  0  0  0  0  0  0  0  0
    0.5655    0.7742   -1.7658 C   0  0  0  0  0  0  0  0  0  0  0  0
   -0.5832    0.4096   -2.3704 N   0  0  0  0  0  0  0  0  0  0  0  0
   -1.6512    0.0684   -1.7206 N   0  0  0  0  0  0  0  0  0  0  0  0
   -1.6805    0.0568   -0.3870 C   0  0  0  0  0  0  0  0  0  0  0  0
   -2.8376   -0.3136    0.3181 N   0  0  0  0  0  0  0  0  0  0  0  0
   -4.0528   -0.6931   -0.3187 C   0  0  2  0  0  0  0  0  0  0  0  0
   -4.7014    0.3484   -1.1677 C   0  0  0  0  0  0  0  0  0  0  0  0
   -6.1363    0.6577   -0.7172 C   0  0  0  0  0  0  0  0  0  0  0  0
   -6.0491    1.0117    0.7510 C   0  0  0  0  0  0  0  0  0  0  0  0
   -5.7519   -0.2739    1.4969 C   0  0  0  0  0  0  0  0  0  0  0  0
   -5.0561   -1.2817    0.6469 C   0  0  2  0  0  0  0  0  0  0  0  0
   -4.4490   -2.2750    1.5041 N   0  0  0  0  0  0  0  0  0  0  0  0
   -0.5128    0.4260    0.2884 C   0  0  0  0  0  0  0  0  0  0  0  0
    0.6451    0.7943   -0.3951 C   0  0  0  0  0  0  0  0  0  0  0  0
    1.8195    1.1810    0.2948 N   0  0  0  0  0  0  0  0  0  0  0  0
    3.0407    0.4784    0.3063 C   0  0  0  0  0  0  0  0  0  0  0  0
    3.2522   -0.7527   -0.2782 C   0  0  0  0  0  0  0  0  0  0  0  0
    4.4743   -1.3927   -0.2208 C   0  0  0  0  0  0  0  0  0  0  0  0
    5.5434   -0.7930    0.4444 C   0  0  0  0  0  0  0  0  0  0  0  0
    5.3043    0.4337    1.0177 C   0  0  0  0  0  0  0  0  0  0  0  0
    4.1142    1.0070    0.9351 N   0  0  0  0  0  0  0  0  0  0  0  0
    6.5361    0.9236    1.6919 C   0  0  0  0  0  0  0  0  0  0  0  0
    7.2849   -0.3713    1.9716 C   0  0  0  0  0  0  0  0  0  0  0  0
    6.9568   -1.1548    0.7109 C   0  0  0  0  0  0  0  0  0  0  0  0
    1.4362    0.1120   -4.4148 H   0  0  0  0  0  0  0  0  0  0  0  0
    1.5689    1.9150   -4.6492 H   0  0  0  0  0  0  0  0  0  0  0  0
   -2.8137   -0.3129    1.3620 H   0  0  0  0  0  0  0  0  0  0  0  0
   -3.7884   -1.5424   -1.0182 H   0  0  0  0  0  0  0  0  0  0  0  0
   -4.7517    0.0731   -2.2597 H   0  0  0  0  0  0  0  0  0  0  0  0
   -4.1850    1.3406   -1.1554 H   0  0  0  0  0  0  0  0  0  0  0  0
   -6.7214   -0.2471   -0.8658 H   0  0  0  0  0  0  0  0  0  0  0  0
   -6.4833    1.5220   -1.3225 H   0  0  0  0  0  0  0  0  0  0  0  0
   -6.9895    1.4839    1.1003 H   0  0  0  0  0  0  0  0  0  0  0  0
   -5.2059    1.7201    0.9467 H   0  0  0  0  0  0  0  0  0  0  0  0
   -5.2284   -0.0663    2.4628 H   0  0  0  0  0  0  0  0  0  0  0  0
   -6.7567   -0.6887    1.8048 H   0  0  0  0  0  0  0  0  0  0  0  0
   -5.8150   -1.8283    0.0367 H   0  0  0  0  0  0  0  0  0  0  0  0
   -3.5734   -2.6641    1.0894 H   0  0  0  0  0  0  0  0  0  0  0  0
   -4.3413   -1.9917    2.4860 H   0  0  0  0  0  0  0  0  0  0  0  0
   -0.4934    0.4303    1.3478 H   0  0  0  0  0  0  0  0  0  0  0  0
    1.7733    2.0901    0.8564 H   0  0  0  0  0  0  0  0  0  0  0  0
    2.4066   -1.2179   -0.7996 H   0  0  0  0  0  0  0  0  0  0  0  0
    4.6475   -2.3498   -0.6719 H   0  0  0  0  0  0  0  0  0  0  0  0
    7.1339    1.6070    1.0727 H   0  0  0  0  0  0  0  0  0  0  0  0
    6.3276    1.4230    2.6584 H   0  0  0  0  0  0  0  0  0  0  0  0
    8.3440   -0.1533    2.0985 H   0  0  0  0  0  0  0  0  0  0  0  0
    6.8022   -0.9121    2.8074 H   0  0  0  0  0  0  0  0  0  0  0  0
    7.0931   -2.2204    0.8915 H   0  0  0  0  0  0  0  0  0  0  0  0
    7.5880   -0.7287   -0.0983 H   0  0  0  0  0  0  0  0  0  0  0  0
  1  2  1  0
  2  3  2  0
  2  4  1  0
  4  5  2  0
  5  6  1  0
  6  7  2  0
  7  8  1  0
  8  9  1  0
  9 10  1  0
 10 11  1  0
 11 12  1  0
 12 13  1  0
 13 14  1  0
 14 15  1  0
  7 16  1  0
 16 17  2  0
 17 18  1  0
 18 19  1  0
 19 20  2  0
 20 21  1  0
 21 22  2  0
 22 23  1  0
 23 24  2  0
 23 25  1  0
 25 26  1  0
 26 27  1  0
 17  4  1  0
 24 19  1  0
 14  9  1  0
 27 22  1  0
  1 28  1  0
  1 29  1  0
  8 30  1  0
  9 31  1  6
 10 32  1  0
 10 33  1  0
 11 34  1  0
 11 35  1  0
 12 36  1  0
 12 37  1  0
 13 38  1  0
 13 39  1  0
 14 40  1  6
 15 41  1  0
 15 42  1  0
 16 43  1  0
 18 44  1  0
 20 45  1  0
 21 46  1  0
 25 47  1  0
 25 48  1  0
 26 49  1  0
 26 50  1  0
 27 51  1  0
 27 52  1  0
M  END
$$$$
