@<TRIPOS>MOLECULE
*****
 52 55 0 0 0
SMALL
GASTEIGER

@<TRIPOS>ATOM
      1 N           1.5488    1.0683   -4.0259 N.am    1  UNL1       -0.3240
      2 C           1.6744    1.2000   -2.5994 C.2     1  UNL1        0.2635
      3 O           2.7270    1.6692   -2.1770 O.2     1  UNL1       -0.2686
      4 C           0.5655    0.7742   -1.7658 C.ar    1  UNL1        0.1685
      5 N          -0.5832    0.4096   -2.3704 N.ar    1  UNL1       -0.1409
      6 N          -1.6512    0.0684   -1.7206 N.ar    1  UNL1       -0.1336
      7 C          -1.6805    0.0568   -0.3870 C.ar    1  UNL1        0.1433
      8 N          -2.8376   -0.3136    0.3181 N.pl3   1  UNL1       -0.3233
      9 C          -4.0528   -0.6931   -0.3187 C.3     1  UNL1        0.0371
     10 C          -4.7014    0.3484   -1.1677 C.3     1  UNL1       -0.0331
     11 C          -6.1363    0.6577   -0.7172 C.3     1  UNL1       -0.0513
     12 C          -6.0491    1.0117    0.7510 C.3     1  UNL1       -0.0515
     13 C          -5.7519   -0.2739    1.4969 C.3     1  UNL1       -0.0360
     14 C          -5.0561   -1.2817    0.6469 C.3     1  UNL1        0.0234
     15 N          -4.4490   -2.2750    1.5041 N.3     1  UNL1       -0.3257
     16 C          -0.5128    0.4260    0.2884 C.ar    1  UNL1        0.0034
     17 C           0.6451    0.7943   -0.3951 C.ar    1  UNL1        0.0683
     18 N           1.8195    1.1810    0.2948 N.pl3   1  UNL1       -0.2975
     19 C           3.0407    0.4784    0.3063 C.ar    1  UNL1        0.1232
     20 C           3.2522   -0.7527   -0.2782 C.ar    1  UNL1       -0.0213
     21 C           4.4743   -1.3927   -0.2208 C.ar    1  UNL1       -0.0536
     22 C           5.5434   -0.7930    0.4444 C.ar    1  UNL1       -0.0259
     23 C           5.3043    0.4337    1.0177 C.ar    1  UNL1        0.0466
     24 N           4.1142    1.0070    0.9351 N.ar    1  UNL1       -0.2366
     25 C           6.5361    0.9236    1.6919 C.3     1  UNL1       -0.0098
     26 C           7.2849   -0.3713    1.9716 C.3     1  UNL1       -0.0436
     27 C           6.9568   -1.1548    0.7109 C.3     1  UNL1       -0.0256
     28 H           1.4362    0.1120   -4.4148 H       1  UNL1        0.1453
     29 H           1.5689    1.9150   -4.6492 H       1  UNL1        0.1453
     30 H          -2.8137   -0.3129    1.3620 H       1  UNL1        0.1478
     31 H          -3.7884   -1.5424   -1.0182 H       1  UNL1        0.0513
     32 H          -4.7517    0.0731   -2.2597 H       1  UNL1        0.0284
     33 H          -4.1850    1.3406   -1.1554 H       1  UNL1        0.0284
     34 H          -6.7214   -0.2471   -0.8658 H       1  UNL1        0.0266
     35 H          -6.4833    1.5220   -1.3225 H       1  UNL1        0.0266
     36 H          -6.9895    1.4839    1.1003 H       1  UNL1        0.0266
     37 H          -5.2059    1.7201    0.9467 H       1  UNL1        0.0266
     38 H          -5.2284   -0.0663    2.4628 H       1  UNL1        0.0281
     39 H          -6.7567   -0.6887    1.8048 H       1  UNL1        0.0281
     40 H          -5.8150   -1.8283    0.0367 H       1  UNL1        0.0476
     41 H          -3.5734   -2.6641    1.0894 H       1  UNL1        0.1185
     42 H          -4.3413   -1.9917    2.4860 H       1  UNL1        0.1185
     43 H          -0.4934    0.4303    1.3478 H       1  UNL1        0.0672
     44 H           1.7733    2.0901    0.8564 H       1  UNL1        0.1536
     45 H           2.4066   -1.2179   -0.7996 H       1  UNL1        0.0652
     46 H           4.6475   -2.3498   -0.6719 H       1  UNL1        0.0622
     47 H           7.1339    1.6070    1.0727 H       1  UNL1        0.0328
     48 H           6.3276    1.4230    2.6584 H       1  UNL1        0.0328
     49 H           8.3440   -0.1533    2.0985 H       1  UNL1        0.0272
     50 H           6.8022   -0.9121    2.8074 H       1  UNL1        0.0272
     51 H           7.0931   -2.2204    0.8915 H       1  UNL1        0.0314
     52 H           7.5880   -0.7287   -0.0983 H       1  UNL1        0.0314
@<TRIPOS>BOND
     1     1     2   am
     2     2     3    2
     3     2     4    1
     4     4     5   ar
     5     5     6   ar
     6     6     7   ar
     7     7     8    1
     8     8     9    1
     9     9    10    1
    10    10    11    1
    11    11    12    1
    12    12    13    1
    13    13    14    1
    14    14    15    1
    15     7    16   ar
    16    16    17   ar
    17    17    18    1
    18    18    19    1
    19    19    20   ar
    20    20    21   ar
    21    21    22   ar
    22    22    23   ar
    23    23    24   ar
    24    23    25    1
    25    25    26    1
    26    26    27    1
    27    17     4   ar
    28    24    19   ar
    29    14     9    1
    30    27    22    1
    31     1    28    1
    32     1    29    1
    33     8    30    1
    34     9    31    1
    35    10    32    1
    36    10    33    1
    37    11    34    1
    38    11    35    1
    39    12    36    1
    40    12    37    1
    41    13    38    1
    42    13    39    1
    43    14    40    1
    44    15    41    1
    45    15    42    1
    46    16    43    1
    47    18    44    1
    48    20    45    1
    49    21    46    1
    50    25    47    1
    51    25    48    1
    52    26    49    1
    53    26    50    1
    54    27    51    1
    55    27    52    1
