@<TRIPOS>MOLECULE
*****
 69 74 0 0 0
SMALL
GASTEIGER

@<TRIPOS>ATOM
      1 N          -4.6193   -2.6566    2.4849 N.am    1  UNL1       -0.3097
      2 C          -5.2631   -1.4234    2.2270 C.2     1  UNL1        0.3328
      3 O          -5.7430   -0.7382    3.1712 O.2     1  UNL1       -0.2479
      4 N          -5.3723   -0.9469    0.8842 N.ar    1  UNL1       -0.1819
      5 N          -4.9051   -1.5820   -0.1808 N.ar    1  UNL1       -0.1467
      6 C          -5.1784   -0.8584   -1.2654 C.ar    1  UNL1        0.1494
      7 N          -4.8788   -1.1450   -2.6210 N.pl3   1  UNL1       -0.3186
      8 C          -4.1717   -2.3625   -2.9048 C.3     1  UNL1        0.0870
      9 C          -2.8036   -2.3619   -2.3567 C.2     1  UNL1        0.2305
     10 O          -2.0699   -3.3765   -2.5110 O.2     1  UNL1       -0.2741
     11 N          -2.1974   -1.2937   -1.6438 N.am    1  UNL1       -0.3087
     12 C          -0.8733   -1.2932   -1.1114 C.3     1  UNL1        0.0486
     13 C           0.0399   -0.1972   -1.5871 C.3     1  UNL1        0.0189
     14 N           0.5392   -0.0649   -0.2491 N.3     1  UNL1       -0.2958
     15 C           1.8405   -0.5569    0.0120 C.3     1  UNL1        0.0106
     16 C           2.8376    0.2177   -0.8176 C.3     1  UNL1       -0.0368
     17 C           4.1710   -0.4592   -0.7480 C.3     1  UNL1       -0.0448
     18 C           4.6598   -0.5272    0.6534 C.3     1  UNL1       -0.0156
     19 C           5.9461    0.2229    0.8410 C.ar    1  UNL1       -0.0406
     20 C           6.0228    1.5486    0.5080 C.ar    1  UNL1       -0.0546
     21 C           7.2064    2.2687    0.6725 C.ar    1  UNL1       -0.0159
     22 C           8.2846    1.5808    1.1834 C.ar    1  UNL1        0.1662
     23 C           8.2037    0.2407    1.5190 C.ar    1  UNL1        0.1665
     24 C           7.0152   -0.4518    1.3457 C.ar    1  UNL1       -0.0127
     25 O           9.4499   -0.1104    1.9903 O.3     1  UNL1       -0.4526
     26 C          10.3537    0.9570    1.9018 C.3     1  UNL1        0.2332
     27 O           9.5649    2.0373    1.4480 O.3     1  UNL1       -0.4526
     28 C           3.6711    0.1023    1.5868 C.3     1  UNL1       -0.0448
     29 C           2.2686   -0.4073    1.4497 C.3     1  UNL1       -0.0368
     30 C          -0.5986   -0.8121    0.2285 C.3     1  UNL1        0.0189
     31 C          -5.8439    0.2741   -0.8529 C.ar    1  UNL1        0.0425
     32 C          -6.3563    1.3623   -1.5829 C.ar    1  UNL1       -0.0376
     33 C          -6.9825    2.3657   -0.8912 C.ar    1  UNL1        0.0556
     34 C          -7.5304    3.5266   -1.6552 C.3     1  UNL1        0.4174
     35 F          -7.7847    3.1617   -2.9686 F       1  UNL1       -0.1659
     36 F          -8.7172    3.9484   -1.0841 F       1  UNL1       -0.1659
     37 F          -6.6563    4.6047   -1.6386 F       1  UNL1       -0.1659
     38 C          -7.0910    2.2828    0.4732 C.ar    1  UNL1       -0.0481
     39 C          -6.5974    1.2306    1.1956 C.ar    1  UNL1       -0.0349
     40 C          -5.9550    0.1957    0.5130 C.ar    1  UNL1        0.0810
     41 H          -3.8510   -2.9599    1.8672 H       1  UNL1        0.1467
     42 H          -4.9074   -3.2491    3.2757 H       1  UNL1        0.1467
     43 H          -5.1616   -0.4970   -3.3729 H       1  UNL1        0.1480
     44 H          -4.0764   -2.4556   -4.0064 H       1  UNL1        0.0557
     45 H          -4.7350   -3.2660   -2.5811 H       1  UNL1        0.0557
     46 H          -2.7637   -0.4293   -1.4988 H       1  UNL1        0.1491
     47 H          -0.3836   -2.2776   -1.3140 H       1  UNL1        0.0523
     48 H          -0.5277    0.7052   -1.9123 H       1  UNL1        0.0445
     49 H           0.7668   -0.5337   -2.3628 H       1  UNL1        0.0445
     50 H           1.9800   -1.6380   -0.2813 H       1  UNL1        0.0462
     51 H           2.9220    1.2374   -0.3380 H       1  UNL1        0.0280
     52 H           2.4950    0.3561   -1.8718 H       1  UNL1        0.0280
     53 H           3.9973   -1.5154   -1.1078 H       1  UNL1        0.0272
     54 H           4.9125    0.0023   -1.4498 H       1  UNL1        0.0272
     55 H           4.8064   -1.5962    0.9755 H       1  UNL1        0.0349
     56 H           5.1412    2.0228    0.1138 H       1  UNL1        0.0622
     57 H           7.2258    3.3014    0.4011 H       1  UNL1        0.0655
     58 H           7.0180   -1.4940    1.6266 H       1  UNL1        0.0658
     59 H          10.7647    1.2481    2.9024 H       1  UNL1        0.1166
     60 H          11.2035    0.7337    1.2158 H       1  UNL1        0.1166
     61 H           3.6517    1.2096    1.5434 H       1  UNL1        0.0272
     62 H           3.9850   -0.1729    2.6425 H       1  UNL1        0.0272
     63 H           2.2093   -1.3959    1.9496 H       1  UNL1        0.0280
     64 H           1.6081    0.2758    2.0201 H       1  UNL1        0.0280
     65 H          -0.3618   -1.6312    0.9397 H       1  UNL1        0.0445
     66 H          -1.2890   -0.1147    0.7328 H       1  UNL1        0.0445
     67 H          -6.2412    1.3753   -2.6680 H       1  UNL1        0.0631
     68 H          -7.5892    3.0872    0.9959 H       1  UNL1        0.0624
     69 H          -6.6853    1.1684    2.2775 H       1  UNL1        0.0639
@<TRIPOS>BOND
     1     1     2   am
     2     2     3    2
     3     2     4   am
     4     4     5   ar
     5     5     6   ar
     6     6     7    1
     7     7     8    1
     8     8     9    1
     9     9    10    2
    10     9    11   am
    11    11    12    1
    12    12    13    1
    13    13    14    1
    14    14    15    1
    15    15    16    1
    16    16    17    1
    17    17    18    1
    18    18    19    1
    19    19    20   ar
    20    20    21   ar
    21    21    22   ar
    22    22    23   ar
    23    23    24   ar
    24    23    25    1
    25    25    26    1
    26    26    27    1
    27    18    28    1
    28    28    29    1
    29    14    30    1
    30     6    31   ar
    31    31    32   ar
    32    32    33   ar
    33    33    34    1
    34    34    35    1
    35    34    36    1
    36    34    37    1
    37    33    38   ar
    38    38    39   ar
    39    39    40   ar
    40    40     4   ar
    41    30    12    1
    42    40    31   ar
    43    29    15    1
    44    24    19   ar
    45    27    22    1
    46     1    41    1
    47     1    42    1
    48     7    43    1
    49     8    44    1
    50     8    45    1
    51    11    46    1
    52    12    47    1
    53    13    48    1
    54    13    49    1
    55    15    50    1
    56    16    51    1
    57    16    52    1
    58    17    53    1
    59    17    54    1
    60    18    55    1
    61    20    56    1
    62    21    57    1
    63    24    58    1
    64    26    59    1
    65    26    60    1
    66    28    61    1
    67    28    62    1
    68    29    63    1
    69    29    64    1
    70    30    65    1
    71    30    66    1
    72    32    67    1
    73    38    68    1
    74    39    69    1
