@<TRIPOS>MOLECULE
*****
 40 40 0 0 0
SMALL
GASTEIGER

@<TRIPOS>ATOM
      1 C           0.0521   -2.6450    1.3384 C.3     1  UNL1       -0.0585
      2 C          -0.3065   -2.2728   -0.0974 C.3     1  UNL1       -0.0181
      3 C          -1.2636   -3.3890   -0.5578 C.3     1  UNL1       -0.0585
      4 C          -1.0472   -0.9908   -0.0329 C.ar    1  UNL1       -0.0028
      5 C          -2.3782   -1.0398    0.2719 C.ar    1  UNL1       -0.0548
      6 C          -3.0825    0.1401    0.3491 C.ar    1  UNL1       -0.0610
      7 C          -2.3791    1.3012    0.1090 C.ar    1  UNL1       -0.0548
      8 C          -1.0057    1.2972   -0.2016 C.ar    1  UNL1       -0.0028
      9 C          -0.5415    2.7023   -0.3843 C.3     1  UNL1       -0.0181
     10 C          -0.4246    3.3488    0.9582 C.3     1  UNL1       -0.0585
     11 C          -1.5688    3.4486   -1.1951 C.3     1  UNL1       -0.0585
     12 C          -0.2757    0.0862   -0.2830 C.ar    1  UNL1        0.1304
     13 O           0.9731    0.4493   -0.5959 O.3     1  UNL1       -0.4651
     14 C           2.1063    0.7504    0.1375 C.3     1  UNL1        0.2015
     15 O           2.7361   -0.2051    0.8729 O.3     1  UNL1       -0.2489
     16 P           3.4441   -1.4330   -0.0225 P.3     1  UNL1        0.4751
     17 O           5.1421   -1.2802    0.0668 O.3     1  UNL1       -0.3025
     18 O           2.9428   -1.3770   -1.6374 O.3     1  UNL1       -0.3025
     19 O           3.1061   -2.7831    0.5309 O.2     1  UNL1       -0.2274
     20 H           0.6532   -1.8273    1.8013 H       1  UNL1        0.0235
     21 H          -0.9313   -2.7419    1.8568 H       1  UNL1        0.0235
     22 H           0.5947   -3.6055    1.2949 H       1  UNL1        0.0235
     23 H           0.5651   -2.2799   -0.7350 H       1  UNL1        0.0345
     24 H          -1.8438   -3.7482    0.3007 H       1  UNL1        0.0235
     25 H          -1.9743   -2.8813   -1.2665 H       1  UNL1        0.0235
     26 H          -0.7299   -4.1814   -1.0988 H       1  UNL1        0.0235
     27 H          -2.8486   -1.9944    0.4449 H       1  UNL1        0.0622
     28 H          -4.1225    0.0824    0.5885 H       1  UNL1        0.0618
     29 H          -3.0270    2.1807    0.1945 H       1  UNL1        0.0622
     30 H           0.4043    2.7385   -0.9683 H       1  UNL1        0.0345
     31 H           0.6281    3.7079    1.1117 H       1  UNL1        0.0235
     32 H          -1.0592    4.2480    1.0927 H       1  UNL1        0.0235
     33 H          -0.6595    2.6287    1.7772 H       1  UNL1        0.0235
     34 H          -2.2387    4.0376   -0.5138 H       1  UNL1        0.0235
     35 H          -1.0957    4.1691   -1.9168 H       1  UNL1        0.0235
     36 H          -2.1559    2.7155   -1.7874 H       1  UNL1        0.0235
     37 H           1.7921    1.5685    0.8705 H       1  UNL1        0.1022
     38 H           2.8460    1.3129   -0.5083 H       1  UNL1        0.1022
     39 H           5.4247   -0.3379    0.0502 H       1  UNL1        0.2220
     40 H           3.5491   -1.9001   -2.2158 H       1  UNL1        0.2220
@<TRIPOS>BOND
     1     1     2    1
     2     2     3    1
     3     2     4    1
     4     4     5   ar
     5     5     6   ar
     6     6     7   ar
     7     7     8   ar
     8     8     9    1
     9     9    10    1
    10     9    11    1
    11     8    12   ar
    12    12    13    1
    13    13    14    1
    14    14    15    1
    15    15    16    1
    16    16    17    1
    17    16    18    1
    18    16    19    2
    19    12     4   ar
    20     1    20    1
    21     1    21    1
    22     1    22    1
    23     2    23    1
    24     3    24    1
    25     3    25    1
    26     3    26    1
    27     5    27    1
    28     6    28    1
    29     7    29    1
    30     9    30    1
    31    10    31    1
    32    10    32    1
    33    10    33    1
    34    11    34    1
    35    11    35    1
    36    11    36    1
    37    14    37    1
    38    14    38    1
    39    17    39    1
    40    18    40    1
