
     RDKit          3D

 40 40  0  0  0  0  0  0  0  0999 V2000
    0.0521   -2.6450    1.3384 C   0  0  0  0  0  0  0  0  0  0  0  0
   -0.3065   -2.2728   -0.0974 C   0  0  0  0  0  0  0  0  0  0  0  0
   -1.2636   -3.3890   -0.5578 C   0  0  0  0  0  0  0  0  0  0  0  0
   -1.0472   -0.9908   -0.0329 C   0  0  0  0  0  0  0  0  0  0  0  0
   -2.3782   -1.0398    0.2719 C   0  0  0  0  0  0  0  0  0  0  0  0
   -3.0825    0.1401    0.3491 C   0  0  0  0  0  0  0  0  0  0  0  0
   -2.3791    1.3012    0.1090 C   0  0  0  0  0  0  0  0  0  0  0  0
   -1.0057    1.2972   -0.2016 C   0  0  0  0  0  0  0  0  0  0  0  0
   -0.5415    2.7023   -0.3843 C   0  0  0  0  0  0  0  0  0  0  0  0
   -0.4246    3.3488    0.9582 C   0  0  0  0  0  0  0  0  0  0  0  0
   -1.5688    3.4486   -1.1951 C   0  0  0  0  0  0  0  0  0  0  0  0
   -0.2757    0.0862   -0.2830 C   0  0  0  0  0  0  0  0  0  0  0  0
    0.9731    0.4493   -0.5959 O   0  0  0  0  0  0  0  0  0  0  0  0
    2.1063    0.7504    0.1375 C   0  0  0  0  0  0  0  0  0  0  0  0
    2.7361   -0.2051    0.8729 O   0  0  0  0  0  0  0  0  0  0  0  0
    3.4441   -1.4330   -0.0225 P   0  0  0  0  0  0  0  0  0  0  0  0
    5.1421   -1.2802    0.0668 O   0  0  0  0  0  0  0  0  0  0  0  0
    2.9428   -1.3770   -1.6374 O   0  0  0  0  0  0  0  0  0  0  0  0
    3.1061   -2.7831    0.5309 O   0  0  0  0  0  0  0  0  0  0  0  0
    0.6532   -1.8273    1.8013 H   0  0  0  0  0  0  0  0  0  0  0  0
   -0.9313   -2.7419    1.8568 H   0  0  0  0  0  0  0  0  0  0  0  0
    0.5947   -3.6055    1.2949 H   0  0  0  0  0  0  0  0  0  0  0  0
    0.5651   -2.2799   -0.7350 H   0  0  0  0  0  0  0  0  0  0  0  0
   -1.8438   -3.7482    0.3007 H   0  0  0  0  0  0  0  0  0  0  0  0
   -1.9743   -2.8813   -1.2665 H   0  0  0  0  0  0  0  0  0  0  0  0
   -0.7299   -4.1814   -1.0988 H   0  0  0  0  0  0  0  0  0  0  0  0
   -2.8486   -1.9944    0.4449 H   0  0  0  0  0  0  0  0  0  0  0  0
   -4.1225    0.0824    0.5885 H   0  0  0  0  0  0  0  0  0  0  0  0
   -3.0270    2.1807    0.1945 H   0  0  0  0  0  0  0  0  0  0  0  0
    0.4043    2.7385   -0.9683 H   0  0  0  0  0  0  0  0  0  0  0  0
    0.6281    3.7079    1.1117 H   0  0  0  0  0  0  0  0  0  0  0  0
   -1.0592    4.2480    1.0927 H   0  0  0  0  0  0  0  0  0  0  0  0
   -0.6595    2.6287    1.7772 H   0  0  0  0  0  0  0  0  0  0  0  0
   -2.2387    4.0376   -0.5138 H   0  0  0  0  0  0  0  0  0  0  0  0
   -1.0957    4.1691   -1.9168 H   0  0  0  0  0  0  0  0  0  0  0  0
   -2.1559    2.7155   -1.7874 H   0  0  0  0  0  0  0  0  0  0  0  0
    1.7921    1.5685    0.8705 H   0  0  0  0  0  0  0  0  0  0  0  0
    2.8460    1.3129   -0.5083 H   0  0  0  0  0  0  0  0  0  0  0  0
    5.4247   -0.3379    0.0502 H   0  0  0  0  0  0  0  0  0  0  0  0
    3.5491   -1.9001   -2.2158 H   0  0  0  0  0  0  0  0  0  0  0  0
  1  2  1  0
  2  3  1  0
  2  4  1  0
  4  5  2  0
  5  6  1  0
  6  7  2  0
  7  8  1  0
  8  9  1  0
  9 10  1  0
  9 11  1  0
  8 12  2  0
 12 13  1  0
 13 14  1  0
 14 15  1  0
 15 16  1  0
 16 17  1  0
 16 18  1  0
 16 19  2  0
 12  4  1  0
  1 20  1  0
  1 21  1  0
  1 22  1  0
  2 23  1  0
  3 24  1  0
  3 25  1  0
  3 26  1  0
  5 27  1  0
  6 28  1  0
  7 29  1  0
  9 30  1  0
 10 31  1  0
 10 32  1  0
 10 33  1  0
 11 34  1  0
 11 35  1  0
 11 36  1  0
 14 37  1  0
 14 38  1  0
 17 39  1  0
 18 40  1  0
M  END
$$$$
