@<TRIPOS>MOLECULE
*****
 54 56 0 0 0
SMALL
GASTEIGER

@<TRIPOS>ATOM
      1 C          -4.4305   -4.0499   -0.7593 C.3     1  UNL1        0.0790
      2 O          -4.2790   -2.8271   -0.0642 O.3     1  UNL1       -0.4913
      3 C          -3.1152   -2.0723   -0.1302 C.ar    1  UNL1        0.1655
      4 C          -2.0275   -2.4865   -0.8926 C.ar    1  UNL1       -0.0123
      5 C          -0.9217   -1.7377   -0.9387 C.ar    1  UNL1       -0.0324
      6 C          -0.8796   -0.5369   -0.2123 C.ar    1  UNL1        0.0312
      7 C          -1.9035   -0.0846    0.5522 C.ar    1  UNL1        0.1731
      8 O          -1.7891    1.0917    1.2616 O.3     1  UNL1       -0.4907
      9 C          -1.3370    1.1120    2.6161 C.3     1  UNL1        0.0790
     10 C          -3.0352   -0.8798    0.5791 C.ar    1  UNL1        0.2041
     11 O          -4.1254   -0.4756    1.3375 O.3     1  UNL1       -0.4885
     12 C          -5.1662    0.3252    0.8525 C.3     1  UNL1        0.0791
     13 C           0.2105    0.4278   -0.2437 C.ar    1  UNL1       -0.0088
     14 C          -0.4746    1.6170   -0.2115 C.ar    1  UNL1       -0.0500
     15 C           0.0424    2.8232    0.1851 C.ar    1  UNL1       -0.0155
     16 C           1.3810    3.1584    0.4637 C.ar    1  UNL1        0.1665
     17 O           1.6257    4.4255    0.9712 O.3     1  UNL1       -0.4913
     18 C           0.6431    5.3817    1.2218 C.3     1  UNL1        0.0790
     19 C           2.4921    2.3659    0.2896 C.ar    1  UNL1        0.2206
     20 O           3.6233    2.9164    0.2715 O.2     1  UNL1       -0.2840
     21 C           2.5744    0.9889    0.1221 C.ar    1  UNL1       -0.0057
     22 C           1.5935    0.1429   -0.3392 C.ar    1  UNL1       -0.0157
     23 C           2.2803   -1.0286   -0.9434 C.3     1  UNL1        0.0493
     24 N           3.6458   -1.0319   -0.5800 N.am    1  UNL1       -0.3087
     25 C           4.7428   -0.6327   -1.3721 C.2     1  UNL1        0.2104
     26 C           6.1214   -0.6933   -0.8506 C.3     1  UNL1        0.0122
     27 O           4.5136   -0.2297   -2.5186 O.2     1  UNL1       -0.2761
     28 C           1.4811   -2.2248   -0.7934 C.3     1  UNL1       -0.0263
     29 C           0.2504   -2.2626   -1.7284 C.3     1  UNL1       -0.0249
     30 H          -3.8276   -4.8115   -0.2176 H       1  UNL1        0.0660
     31 H          -4.0094   -3.9233   -1.7928 H       1  UNL1        0.0660
     32 H          -5.4905   -4.3382   -0.8279 H       1  UNL1        0.0660
     33 H          -2.0552   -3.4200   -1.4611 H       1  UNL1        0.0658
     34 H          -0.2312    1.0318    2.6111 H       1  UNL1        0.0660
     35 H          -1.5871    2.0758    3.1041 H       1  UNL1        0.0660
     36 H          -1.7110    0.2518    3.1955 H       1  UNL1        0.0660
     37 H          -5.8863   -0.2514    0.2442 H       1  UNL1        0.0660
     38 H          -5.7330    0.7148    1.7348 H       1  UNL1        0.0660
     39 H          -4.8092    1.2196    0.3030 H       1  UNL1        0.0660
     40 H          -1.4720    1.5245   -0.5682 H       1  UNL1        0.0625
     41 H          -0.6673    3.6288    0.3007 H       1  UNL1        0.0655
     42 H           1.1614    6.3477    1.4285 H       1  UNL1        0.0660
     43 H           0.0197    5.0685    2.1051 H       1  UNL1        0.0660
     44 H          -0.0490    5.5702    0.3939 H       1  UNL1        0.0660
     45 H           3.5058    0.5104    0.3766 H       1  UNL1        0.0660
     46 H           2.2769   -0.7565   -2.0547 H       1  UNL1        0.0548
     47 H           3.8519   -1.3981    0.4018 H       1  UNL1        0.1493
     48 H           6.8648   -0.5372   -1.6597 H       1  UNL1        0.0322
     49 H           6.3118    0.0140   -0.0180 H       1  UNL1        0.0322
     50 H           6.3343   -1.7187   -0.4392 H       1  UNL1        0.0322
     51 H           1.9601   -3.2028   -0.9615 H       1  UNL1        0.0289
     52 H           1.0640   -2.2853    0.2344 H       1  UNL1        0.0289
     53 H          -0.0149   -3.2727   -2.0301 H       1  UNL1        0.0314
     54 H           0.4559   -1.5652   -2.5486 H       1  UNL1        0.0314
@<TRIPOS>BOND
     1     1     2    1
     2     2     3    1
     3     3     4   ar
     4     4     5   ar
     5     5     6   ar
     6     6     7   ar
     7     7     8    1
     8     8     9    1
     9     7    10   ar
    10    10    11    1
    11    11    12    1
    12     6    13    1
    13    13    14   ar
    14    14    15   ar
    15    15    16   ar
    16    16    17    1
    17    17    18    1
    18    16    19   ar
    19    19    20    2
    20    19    21   ar
    21    21    22   ar
    22    22    23    1
    23    23    24    1
    24    24    25   am
    25    25    26    1
    26    25    27    2
    27    23    28    1
    28    28    29    1
    29    10     3   ar
    30    22    13   ar
    31    29     5    1
    32     1    30    1
    33     1    31    1
    34     1    32    1
    35     4    33    1
    36     9    34    1
    37     9    35    1
    38     9    36    1
    39    12    37    1
    40    12    38    1
    41    12    39    1
    42    14    40    1
    43    15    41    1
    44    18    42    1
    45    18    43    1
    46    18    44    1
    47    21    45    1
    48    23    46    1
    49    24    47    1
    50    26    48    1
    51    26    49    1
    52    26    50    1
    53    28    51    1
    54    28    52    1
    55    29    53    1
    56    29    54    1
