
     RDKit          3D

 54 56  0  0  0  0  0  0  0  0999 V2000
   -4.4305   -4.0499   -0.7593 C   0  0  0  0  0  0  0  0  0  0  0  0
   -4.2790   -2.8271   -0.0642 O   0  0  0  0  0  0  0  0  0  0  0  0
   -3.1152   -2.0723   -0.1302 C   0  0  0  0  0  0  0  0  0  0  0  0
   -2.0275   -2.4865   -0.8926 C   0  0  0  0  0  0  0  0  0  0  0  0
   -0.9217   -1.7377   -0.9387 C   0  0  0  0  0  0  0  0  0  0  0  0
   -0.8796   -0.5369   -0.2123 C   0  0  0  0  0  0  0  0  0  0  0  0
   -1.9035   -0.0846    0.5522 C   0  0  0  0  0  0  0  0  0  0  0  0
   -1.7891    1.0917    1.2616 O   0  0  0  0  0  0  0  0  0  0  0  0
   -1.3370    1.1120    2.6161 C   0  0  0  0  0  0  0  0  0  0  0  0
   -3.0352   -0.8798    0.5791 C   0  0  0  0  0  0  0  0  0  0  0  0
   -4.1254   -0.4756    1.3375 O   0  0  0  0  0  0  0  0  0  0  0  0
   -5.1662    0.3252    0.8525 C   0  0  0  0  0  0  0  0  0  0  0  0
    0.2105    0.4278   -0.2437 C   0  0  0  0  0  0  0  0  0  0  0  0
   -0.4746    1.6170   -0.2115 C   0  0  0  0  0  0  0  0  0  0  0  0
    0.0424    2.8232    0.1851 C   0  0  0  0  0  0  0  0  0  0  0  0
    1.3810    3.1584    0.4637 C   0  0  0  0  0  0  0  0  0  0  0  0
    1.6257    4.4255    0.9712 O   0  0  0  0  0  0  0  0  0  0  0  0
    0.6431    5.3817    1.2218 C   0  0  0  0  0  0  0  0  0  0  0  0
    2.4921    2.3659    0.2896 C   0  0  0  0  0  0  0  0  0  0  0  0
    3.6233    2.9164    0.2715 O   0  0  0  0  0  0  0  0  0  0  0  0
    2.5744    0.9889    0.1221 C   0  0  0  0  0  0  0  0  0  0  0  0
    1.5935    0.1429   -0.3392 C   0  0  0  0  0  0  0  0  0  0  0  0
    2.2803   -1.0286   -0.9434 C   0  0  1  0  0  0  0  0  0  0  0  0
    3.6458   -1.0319   -0.5800 N   0  0  0  0  0  0  0  0  0  0  0  0
    4.7428   -0.6327   -1.3721 C   0  0  0  0  0  0  0  0  0  0  0  0
    6.1214   -0.6933   -0.8506 C   0  0  0  0  0  0  0  0  0  0  0  0
    4.5136   -0.2297   -2.5186 O   0  0  0  0  0  0  0  0  0  0  0  0
    1.4811   -2.2248   -0.7934 C   0  0  0  0  0  0  0  0  0  0  0  0
    0.2504   -2.2626   -1.7284 C   0  0  0  0  0  0  0  0  0  0  0  0
   -3.8276   -4.8115   -0.2176 H   0  0  0  0  0  0  0  0  0  0  0  0
   -4.0094   -3.9233   -1.7928 H   0  0  0  0  0  0  0  0  0  0  0  0
   -5.4905   -4.3382   -0.8279 H   0  0  0  0  0  0  0  0  0  0  0  0
   -2.0552   -3.4200   -1.4611 H   0  0  0  0  0  0  0  0  0  0  0  0
   -0.2312    1.0318    2.6111 H   0  0  0  0  0  0  0  0  0  0  0  0
   -1.5871    2.0758    3.1041 H   0  0  0  0  0  0  0  0  0  0  0  0
   -1.7110    0.2518    3.1955 H   0  0  0  0  0  0  0  0  0  0  0  0
   -5.8863   -0.2514    0.2442 H   0  0  0  0  0  0  0  0  0  0  0  0
   -5.7330    0.7148    1.7348 H   0  0  0  0  0  0  0  0  0  0  0  0
   -4.8092    1.2196    0.3030 H   0  0  0  0  0  0  0  0  0  0  0  0
   -1.4720    1.5245   -0.5682 H   0  0  0  0  0  0  0  0  0  0  0  0
   -0.6673    3.6288    0.3007 H   0  0  0  0  0  0  0  0  0  0  0  0
    1.1614    6.3477    1.4285 H   0  0  0  0  0  0  0  0  0  0  0  0
    0.0197    5.0685    2.1051 H   0  0  0  0  0  0  0  0  0  0  0  0
   -0.0490    5.5702    0.3939 H   0  0  0  0  0  0  0  0  0  0  0  0
    3.5058    0.5104    0.3766 H   0  0  0  0  0  0  0  0  0  0  0  0
    2.2769   -0.7565   -2.0547 H   0  0  0  0  0  0  0  0  0  0  0  0
    3.8519   -1.3981    0.4018 H   0  0  0  0  0  0  0  0  0  0  0  0
    6.8648   -0.5372   -1.6597 H   0  0  0  0  0  0  0  0  0  0  0  0
    6.3118    0.0140   -0.0180 H   0  0  0  0  0  0  0  0  0  0  0  0
    6.3343   -1.7187   -0.4392 H   0  0  0  0  0  0  0  0  0  0  0  0
    1.9601   -3.2028   -0.9615 H   0  0  0  0  0  0  0  0  0  0  0  0
    1.0640   -2.2853    0.2344 H   0  0  0  0  0  0  0  0  0  0  0  0
   -0.0149   -3.2727   -2.0301 H   0  0  0  0  0  0  0  0  0  0  0  0
    0.4559   -1.5652   -2.5486 H   0  0  0  0  0  0  0  0  0  0  0  0
  1  2  1  0
  2  3  1  0
  3  4  2  0
  4  5  1  0
  5  6  2  0
  6  7  1  0
  7  8  1  0
  8  9  1  0
  7 10  2  0
 10 11  1  0
 11 12  1  0
  6 13  1  0
 13 14  2  0
 14 15  1  0
 15 16  2  0
 16 17  1  0
 17 18  1  0
 16 19  1  0
 19 20  2  0
 19 21  1  0
 21 22  2  0
 22 23  1  0
 23 24  1  0
 24 25  1  0
 25 26  1  0
 25 27  2  0
 23 28  1  0
 28 29  1  0
 10  3  1  0
 22 13  1  0
 29  5  1  0
  1 30  1  0
  1 31  1  0
  1 32  1  0
  4 33  1  0
  9 34  1  0
  9 35  1  0
  9 36  1  0
 12 37  1  0
 12 38  1  0
 12 39  1  0
 14 40  1  0
 15 41  1  0
 18 42  1  0
 18 43  1  0
 18 44  1  0
 21 45  1  0
 23 46  1  6
 24 47  1  0
 26 48  1  0
 26 49  1  0
 26 50  1  0
 28 51  1  0
 28 52  1  0
 29 53  1  0
 29 54  1  0
M  END
$$$$
