@<TRIPOS>MOLECULE
*****
 43 45 0 0 0
SMALL
GASTEIGER

@<TRIPOS>ATOM
      1 C          -2.3865    3.3797   -1.1906 C.3     1  UNL1        0.0790
      2 O          -2.3657    2.0364   -0.7574 O.3     1  UNL1       -0.4915
      3 C          -1.1262    1.4138   -0.5386 C.ar    1  UNL1        0.1616
      4 C           0.0461    2.1200   -0.7489 C.ar    1  UNL1       -0.0156
      5 C           1.2909    1.5634   -0.5513 C.ar    1  UNL1       -0.0459
      6 C           1.4243    0.2580   -0.1288 C.ar    1  UNL1        0.0407
      7 C           2.7398   -0.3554    0.0882 C.2     1  UNL1        0.2484
      8 O           2.7788   -1.5497    0.4736 O.2     1  UNL1       -0.2698
      9 N           3.9673    0.3181   -0.1108 N.am    1  UNL1       -0.2790
     10 C           5.2131   -0.3413    0.1199 C.ar    1  UNL1        0.0736
     11 C           5.8184   -1.0198   -0.9095 C.ar    1  UNL1        0.0816
     12 CL          5.1052   -1.1010   -2.5039 Cl      1  UNL1       -0.0800
     13 C           7.0402   -1.6689   -0.6911 C.ar    1  UNL1        0.0478
     14 N           7.5741   -1.5961    0.5406 N.ar    1  UNL1       -0.2602
     15 C           6.9930   -0.9325    1.5682 C.ar    1  UNL1        0.0478
     16 C           5.7899   -0.2912    1.3598 C.ar    1  UNL1        0.0816
     17 CL          5.0721    0.5549    2.7134 Cl      1  UNL1       -0.0800
     18 C           0.2655   -0.4370    0.0782 C.ar    1  UNL1       -0.0042
     19 C          -1.0214    0.1104   -0.1171 C.ar    1  UNL1        0.1630
     20 O          -2.1040   -0.6767    0.1206 O.3     1  UNL1       -0.4851
     21 C          -3.4431   -0.5043    0.0454 C.3     1  UNL1        0.1004
     22 C          -4.1163   -1.5135   -0.9225 C.3     1  UNL1       -0.0158
     23 C          -5.5578   -1.3754   -0.5446 C.3     1  UNL1       -0.0496
     24 C          -5.6200   -0.8364    0.8567 C.3     1  UNL1       -0.0496
     25 C          -4.1745   -0.9612    1.3326 C.3     1  UNL1       -0.0158
     26 H          -1.8304    4.0603   -0.5010 H       1  UNL1        0.0660
     27 H          -3.3873    3.7375   -1.4290 H       1  UNL1        0.0660
     28 H          -1.7919    3.3990   -2.1507 H       1  UNL1        0.0660
     29 H          -0.0691    3.1599   -1.0856 H       1  UNL1        0.0655
     30 H           2.1768    2.1567   -0.7294 H       1  UNL1        0.0626
     31 H           3.9741    1.3096   -0.4302 H       1  UNL1        0.1552
     32 H           7.5339   -2.2128   -1.5007 H       1  UNL1        0.0845
     33 H           7.4524   -0.8956    2.5463 H       1  UNL1        0.0845
     34 H           0.3418   -1.4770    0.4144 H       1  UNL1        0.0663
     35 H          -3.8184    0.4647   -0.2720 H       1  UNL1        0.0733
     36 H          -3.9023   -1.2411   -1.9602 H       1  UNL1        0.0301
     37 H          -3.7044   -2.4991   -0.6238 H       1  UNL1        0.0301
     38 H          -6.0599   -0.7438   -1.2913 H       1  UNL1        0.0266
     39 H          -6.0354   -2.3976   -0.5230 H       1  UNL1        0.0266
     40 H          -6.3222   -1.3490    1.5119 H       1  UNL1        0.0266
     41 H          -5.8537    0.2609    0.8836 H       1  UNL1        0.0266
     42 H          -3.9441   -0.3067    2.1716 H       1  UNL1        0.0301
     43 H          -3.9632   -2.0202    1.4695 H       1  UNL1        0.0301
@<TRIPOS>BOND
     1     1     2    1
     2     2     3    1
     3     3     4   ar
     4     4     5   ar
     5     5     6   ar
     6     6     7    1
     7     7     8    2
     8     7     9   am
     9     9    10    1
    10    10    11   ar
    11    11    12    1
    12    11    13   ar
    13    13    14   ar
    14    14    15   ar
    15    15    16   ar
    16    16    17    1
    17     6    18   ar
    18    18    19   ar
    19    19    20    1
    20    20    21    1
    21    21    22    1
    22    22    23    1
    23    23    24    1
    24    24    25    1
    25    19     3   ar
    26    25    21    1
    27    16    10   ar
    28     1    26    1
    29     1    27    1
    30     1    28    1
    31     4    29    1
    32     5    30    1
    33     9    31    1
    34    13    32    1
    35    15    33    1
    36    18    34    1
    37    21    35    1
    38    22    36    1
    39    22    37    1
    40    23    38    1
    41    23    39    1
    42    24    40    1
    43    24    41    1
    44    25    42    1
    45    25    43    1
