@<TRIPOS>MOLECULE
*****
 105 108 0 0 0
SMALL
GASTEIGER

@<TRIPOS>ATOM
      1 C           0.5524    4.2375    0.2566 C.3     1  UNL1        0.0817
      2 O          -0.1356    3.1241   -0.2301 O.3     1  UNL1       -0.4663
      3 C           0.4805    2.0350   -0.8429 C.2     1  UNL1        0.3366
      4 O           1.7335    2.0907   -0.9474 O.2     1  UNL1       -0.2482
      5 C          -0.2481    0.8695   -1.3513 C.3     1  UNL1        0.1973
      6 N          -1.6772    1.0864   -1.1080 N.am    1  UNL1       -0.2939
      7 C          -2.6432    0.7222   -2.0349 C.2     1  UNL1        0.2330
      8 O          -2.2032    0.1725   -3.1169 O.2     1  UNL1       -0.2740
      9 C          -4.0925    0.8722   -1.9595 C.3     1  UNL1        0.1097
     10 C          -4.6583    1.2738   -3.3263 C.3     1  UNL1       -0.0021
     11 C          -6.1101    1.3904   -3.2210 C.ar    1  UNL1       -0.0454
     12 C          -6.7785    2.5507   -2.8814 C.ar    1  UNL1       -0.0585
     13 C          -8.1553    2.5051   -2.8284 C.ar    1  UNL1       -0.0615
     14 C          -8.8920    1.3731   -3.0944 C.ar    1  UNL1       -0.0617
     15 C          -8.2137    0.2116   -3.4351 C.ar    1  UNL1       -0.0615
     16 C          -6.8461    0.2389   -3.4923 C.ar    1  UNL1       -0.0585
     17 N          -4.6707    1.5677   -0.8933 N.3     1  UNL1       -0.1675
     18 S          -5.6899    0.8188    0.1927 S.O2    1  UNL1        0.0978
     19 O          -6.0407    1.8537    1.2709 O.2     1  UNL1       -0.1411
     20 O          -7.0141    0.3591   -0.3212 O.2     1  UNL1       -0.1411
     21 N          -4.8695   -0.4276    1.0568 N.3     1  UNL1       -0.1622
     22 C          -3.7792    0.1131    1.8450 C.3     1  UNL1        0.0450
     23 C          -4.0971    0.0230    3.3382 C.3     1  UNL1        0.0621
     24 O          -5.4048    0.4739    3.4928 O.3     1  UNL1       -0.3771
     25 C          -6.2617   -0.5231    3.0730 C.3     1  UNL1        0.0621
     26 C          -5.7647   -1.2371    1.8433 C.3     1  UNL1        0.0450
     27 C           0.1666   -0.3310   -0.5881 C.2     1  UNL1        0.2448
     28 O          -0.6152   -0.8975    0.2071 O.2     1  UNL1       -0.2732
     29 N           1.4885   -0.9307   -0.7135 N.am    1  UNL1       -0.3078
     30 C           1.8097   -2.0936    0.0397 C.3     1  UNL1        0.0555
     31 C           1.3004   -3.3658   -0.6241 C.3     1  UNL1       -0.0290
     32 C           1.7770   -3.7316   -1.9464 C.3     1  UNL1       -0.0393
     33 C           1.0555   -5.0636   -2.2761 C.3     1  UNL1       -0.0502
     34 C           1.5945   -5.7025   -3.5059 C.3     1  UNL1       -0.0528
     35 C           1.1815   -4.7867   -4.6705 C.3     1  UNL1       -0.0530
     36 C           1.8932   -3.4915   -4.4057 C.3     1  UNL1       -0.0528
     37 C           1.4499   -2.8260   -3.0962 C.3     1  UNL1       -0.0502
     38 C           3.1064   -2.2829    0.6851 C.3     1  UNL1        0.1453
     39 O           3.1284   -3.5555    1.3568 O.3     1  UNL1       -0.3835
     40 C           3.5857   -1.3223    1.7223 C.3     1  UNL1        0.3494
     41 F           4.8426   -1.8656    2.2243 F       1  UNL1       -0.1924
     42 F           2.8121   -1.1536    2.8073 F       1  UNL1       -0.1924
     43 C           4.1183   -0.0520    1.1237 C.2     1  UNL1        0.2853
     44 O           4.2230    0.0377   -0.1042 O.2     1  UNL1       -0.2692
     45 N           4.5052    1.0387    1.9311 N.am    1  UNL1       -0.3091
     46 C           5.0310    2.2526    1.3472 C.3     1  UNL1        0.0245
     47 C           5.3996    3.2838    2.3742 C.3     1  UNL1        0.0146
     48 N           6.3699    2.9428    3.3127 N.3     1  UNL1       -0.2965
     49 C           7.7132    2.7415    2.9314 C.3     1  UNL1        0.0225
     50 C           8.5327    2.2868    4.1456 C.3     1  UNL1        0.0604
     51 O           8.1709    2.9633    5.2821 O.3     1  UNL1       -0.3772
     52 C           6.8469    2.9018    5.6340 C.3     1  UNL1        0.0604
     53 C           6.0107    2.2814    4.5051 C.3     1  UNL1        0.0225
     54 H          -0.1005    4.7406    1.0139 H       1  UNL1        0.0661
     55 H           0.7284    5.0118   -0.5394 H       1  UNL1        0.0661
     56 H           1.4814    3.9901    0.7899 H       1  UNL1        0.0661
     57 H          -0.1104    0.6848   -2.4566 H       1  UNL1        0.0713
     58 H          -1.9567    1.5253   -0.2157 H       1  UNL1        0.1500
     59 H          -4.4808   -0.2025   -1.8631 H       1  UNL1        0.0576
     60 H          -4.3994    0.4483   -4.0113 H       1  UNL1        0.0334
     61 H          -4.1524    2.1729   -3.7265 H       1  UNL1        0.0334
     62 H          -6.2247    3.4534   -2.6752 H       1  UNL1        0.0620
     63 H          -8.7291    3.4001   -2.5632 H       1  UNL1        0.0618
     64 H          -9.9716    1.3258   -3.0532 H       1  UNL1        0.0618
     65 H          -8.7269   -0.7046   -3.6533 H       1  UNL1        0.0618
     66 H          -6.3271   -0.6863   -3.7606 H       1  UNL1        0.0620
     67 H          -4.7537    2.5653   -1.0652 H       1  UNL1        0.1500
     68 H          -3.7264    1.1976    1.6250 H       1  UNL1        0.0467
     69 H          -2.8215   -0.3715    1.6312 H       1  UNL1        0.0467
     70 H          -3.9220   -0.9856    3.7227 H       1  UNL1        0.0573
     71 H          -3.4094    0.7015    3.8797 H       1  UNL1        0.0573
     72 H          -7.2596   -0.0479    2.8576 H       1  UNL1        0.0573
     73 H          -6.4452   -1.2043    3.9261 H       1  UNL1        0.0573
     74 H          -5.2048   -2.1252    2.1921 H       1  UNL1        0.0467
     75 H          -6.6086   -1.5491    1.2111 H       1  UNL1        0.0467
     76 H           2.0819   -0.4042   -1.3863 H       1  UNL1        0.1491
     77 H           1.0642   -2.0480    0.9328 H       1  UNL1        0.0526
     78 H           1.4799   -4.1759    0.1059 H       1  UNL1        0.0287
     79 H           0.1811   -3.2541   -0.6686 H       1  UNL1        0.0287
     80 H           2.8480   -3.9898   -2.0428 H       1  UNL1        0.0301
     81 H          -0.0318   -4.7674   -2.3647 H       1  UNL1        0.0268
     82 H           1.1286   -5.7703   -1.4150 H       1  UNL1        0.0268
     83 H           2.6786   -5.7547   -3.4780 H       1  UNL1        0.0265
     84 H           1.1275   -6.6969   -3.6099 H       1  UNL1        0.0265
     85 H           0.0669   -4.6265   -4.6425 H       1  UNL1        0.0265
     86 H           1.5363   -5.1807   -5.6198 H       1  UNL1        0.0265
     87 H           2.9811   -3.7219   -4.2466 H       1  UNL1        0.0265
     88 H           1.7946   -2.8012   -5.2529 H       1  UNL1        0.0265
     89 H           2.0800   -1.8842   -3.0899 H       1  UNL1        0.0268
     90 H           0.4174   -2.4789   -3.1364 H       1  UNL1        0.0268
     91 H           3.9664   -2.4057   -0.0272 H       1  UNL1        0.0677
     92 H           2.4665   -3.4114    2.1055 H       1  UNL1        0.2101
     93 H           4.3798    0.8993    2.9655 H       1  UNL1        0.1489
     94 H           4.3080    2.7432    0.6407 H       1  UNL1        0.0474
     95 H           5.9496    2.0624    0.7384 H       1  UNL1        0.0474
     96 H           4.4640    3.5792    2.9199 H       1  UNL1        0.0442
     97 H           5.7159    4.2505    1.8791 H       1  UNL1        0.0442
     98 H           8.2034    3.6826    2.5747 H       1  UNL1        0.0449
     99 H           7.8720    1.9694    2.1681 H       1  UNL1        0.0449
    100 H           9.5931    2.5502    3.9295 H       1  UNL1        0.0572
    101 H           8.4655    1.2011    4.2513 H       1  UNL1        0.0572
    102 H           6.6543    2.4322    6.6028 H       1  UNL1        0.0572
    103 H           6.4877    3.9750    5.6739 H       1  UNL1        0.0572
    104 H           6.1910    1.1833    4.4672 H       1  UNL1        0.0449
    105 H           4.9510    2.4501    4.7747 H       1  UNL1        0.0449
@<TRIPOS>BOND
     1     1     2    1
     2     2     3    1
     3     3     4    2
     4     3     5    1
     5     5     6    1
     6     6     7   am
     7     7     8    2
     8     7     9    1
     9     9    10    1
    10    10    11    1
    11    11    12   ar
    12    12    13   ar
    13    13    14   ar
    14    14    15   ar
    15    15    16   ar
    16     9    17    1
    17    17    18    1
    18    18    19    2
    19    18    20    2
    20    18    21    1
    21    21    22    1
    22    22    23    1
    23    23    24    1
    24    24    25    1
    25    25    26    1
    26     5    27    1
    27    27    28    2
    28    27    29   am
    29    29    30    1
    30    30    31    1
    31    31    32    1
    32    32    33    1
    33    33    34    1
    34    34    35    1
    35    35    36    1
    36    36    37    1
    37    30    38    1
    38    38    39    1
    39    38    40    1
    40    40    41    1
    41    40    42    1
    42    40    43    1
    43    43    44    2
    44    43    45   am
    45    45    46    1
    46    46    47    1
    47    47    48    1
    48    48    49    1
    49    49    50    1
    50    50    51    1
    51    51    52    1
    52    52    53    1
    53    16    11   ar
    54    26    21    1
    55    37    32    1
    56    53    48    1
    57     1    54    1
    58     1    55    1
    59     1    56    1
    60     5    57    1
    61     6    58    1
    62     9    59    1
    63    10    60    1
    64    10    61    1
    65    12    62    1
    66    13    63    1
    67    14    64    1
    68    15    65    1
    69    16    66    1
    70    17    67    1
    71    22    68    1
    72    22    69    1
    73    23    70    1
    74    23    71    1
    75    25    72    1
    76    25    73    1
    77    26    74    1
    78    26    75    1
    79    29    76    1
    80    30    77    1
    81    31    78    1
    82    31    79    1
    83    32    80    1
    84    33    81    1
    85    33    82    1
    86    34    83    1
    87    34    84    1
    88    35    85    1
    89    35    86    1
    90    36    87    1
    91    36    88    1
    92    37    89    1
    93    37    90    1
    94    38    91    1
    95    39    92    1
    96    45    93    1
    97    46    94    1
    98    46    95    1
    99    47    96    1
   100    47    97    1
   101    49    98    1
   102    49    99    1
   103    50   100    1
   104    50   101    1
   105    52   102    1
   106    52   103    1
   107    53   104    1
   108    53   105    1
