
     RDKit          3D

105108  0  0  0  0  0  0  0  0999 V2000
    0.5524    4.2375    0.2566 C   0  0  0  0  0  0  0  0  0  0  0  0
   -0.1356    3.1241   -0.2301 O   0  0  0  0  0  0  0  0  0  0  0  0
    0.4805    2.0350   -0.8429 C   0  0  0  0  0  0  0  0  0  0  0  0
    1.7335    2.0907   -0.9474 O   0  0  0  0  0  0  0  0  0  0  0  0
   -0.2481    0.8695   -1.3513 C   0  0  2  0  0  0  0  0  0  0  0  0
   -1.6772    1.0864   -1.1080 N   0  0  0  0  0  0  0  0  0  0  0  0
   -2.6432    0.7222   -2.0349 C   0  0  0  0  0  0  0  0  0  0  0  0
   -2.2032    0.1725   -3.1169 O   0  0  0  0  0  0  0  0  0  0  0  0
   -4.0925    0.8722   -1.9595 C   0  0  2  0  0  0  0  0  0  0  0  0
   -4.6583    1.2738   -3.3263 C   0  0  0  0  0  0  0  0  0  0  0  0
   -6.1101    1.3904   -3.2210 C   0  0  0  0  0  0  0  0  0  0  0  0
   -6.7785    2.5507   -2.8814 C   0  0  0  0  0  0  0  0  0  0  0  0
   -8.1553    2.5051   -2.8284 C   0  0  0  0  0  0  0  0  0  0  0  0
   -8.8920    1.3731   -3.0944 C   0  0  0  0  0  0  0  0  0  0  0  0
   -8.2137    0.2116   -3.4351 C   0  0  0  0  0  0  0  0  0  0  0  0
   -6.8461    0.2389   -3.4923 C   0  0  0  0  0  0  0  0  0  0  0  0
   -4.6707    1.5677   -0.8933 N   0  0  0  0  0  0  0  0  0  0  0  0
   -5.6899    0.8188    0.1927 S   0  0  0  0  0  6  0  0  0  0  0  0
   -6.0407    1.8537    1.2709 O   0  0  0  0  0  0  0  0  0  0  0  0
   -7.0141    0.3591   -0.3212 O   0  0  0  0  0  0  0  0  0  0  0  0
   -4.8695   -0.4276    1.0568 N   0  0  0  0  0  0  0  0  0  0  0  0
   -3.7792    0.1131    1.8450 C   0  0  0  0  0  0  0  0  0  0  0  0
   -4.0971    0.0230    3.3382 C   0  0  0  0  0  0  0  0  0  0  0  0
   -5.4048    0.4739    3.4928 O   0  0  0  0  0  0  0  0  0  0  0  0
   -6.2617   -0.5231    3.0730 C   0  0  0  0  0  0  0  0  0  0  0  0
   -5.7647   -1.2371    1.8433 C   0  0  0  0  0  0  0  0  0  0  0  0
    0.1666   -0.3310   -0.5881 C   0  0  0  0  0  0  0  0  0  0  0  0
   -0.6152   -0.8975    0.2071 O   0  0  0  0  0  0  0  0  0  0  0  0
    1.4885   -0.9307   -0.7135 N   0  0  0  0  0  0  0  0  0  0  0  0
    1.8097   -2.0936    0.0397 C   0  0  1  0  0  0  0  0  0  0  0  0
    1.3004   -3.3658   -0.6241 C   0  0  0  0  0  0  0  0  0  0  0  0
    1.7770   -3.7316   -1.9464 C   0  0  0  0  0  0  0  0  0  0  0  0
    1.0555   -5.0636   -2.2761 C   0  0  0  0  0  0  0  0  0  0  0  0
    1.5945   -5.7025   -3.5059 C   0  0  0  0  0  0  0  0  0  0  0  0
    1.1815   -4.7867   -4.6705 C   0  0  0  0  0  0  0  0  0  0  0  0
    1.8932   -3.4915   -4.4057 C   0  0  0  0  0  0  0  0  0  0  0  0
    1.4499   -2.8260   -3.0962 C   0  0  0  0  0  0  0  0  0  0  0  0
    3.1064   -2.2829    0.6851 C   0  0  0  0  0  0  0  0  0  0  0  0
    3.1284   -3.5555    1.3568 O   0  0  0  0  0  0  0  0  0  0  0  0
    3.5857   -1.3223    1.7223 C   0  0  0  0  0  0  0  0  0  0  0  0
    4.8426   -1.8656    2.2243 F   0  0  0  0  0  0  0  0  0  0  0  0
    2.8121   -1.1536    2.8073 F   0  0  0  0  0  0  0  0  0  0  0  0
    4.1183   -0.0520    1.1237 C   0  0  0  0  0  0  0  0  0  0  0  0
    4.2230    0.0377   -0.1042 O   0  0  0  0  0  0  0  0  0  0  0  0
    4.5052    1.0387    1.9311 N   0  0  0  0  0  0  0  0  0  0  0  0
    5.0310    2.2526    1.3472 C   0  0  0  0  0  0  0  0  0  0  0  0
    5.3996    3.2838    2.3742 C   0  0  0  0  0  0  0  0  0  0  0  0
    6.3699    2.9428    3.3127 N   0  0  0  0  0  0  0  0  0  0  0  0
    7.7132    2.7415    2.9314 C   0  0  0  0  0  0  0  0  0  0  0  0
    8.5327    2.2868    4.1456 C   0  0  0  0  0  0  0  0  0  0  0  0
    8.1709    2.9633    5.2821 O   0  0  0  0  0  0  0  0  0  0  0  0
    6.8469    2.9018    5.6340 C   0  0  0  0  0  0  0  0  0  0  0  0
    6.0107    2.2814    4.5051 C   0  0  0  0  0  0  0  0  0  0  0  0
   -0.1005    4.7406    1.0139 H   0  0  0  0  0  0  0  0  0  0  0  0
    0.7284    5.0118   -0.5394 H   0  0  0  0  0  0  0  0  0  0  0  0
    1.4814    3.9901    0.7899 H   0  0  0  0  0  0  0  0  0  0  0  0
   -0.1104    0.6848   -2.4566 H   0  0  0  0  0  0  0  0  0  0  0  0
   -1.9567    1.5253   -0.2157 H   0  0  0  0  0  0  0  0  0  0  0  0
   -4.4808   -0.2025   -1.8631 H   0  0  0  0  0  0  0  0  0  0  0  0
   -4.3994    0.4483   -4.0113 H   0  0  0  0  0  0  0  0  0  0  0  0
   -4.1524    2.1729   -3.7265 H   0  0  0  0  0  0  0  0  0  0  0  0
   -6.2247    3.4534   -2.6752 H   0  0  0  0  0  0  0  0  0  0  0  0
   -8.7291    3.4001   -2.5632 H   0  0  0  0  0  0  0  0  0  0  0  0
   -9.9716    1.3258   -3.0532 H   0  0  0  0  0  0  0  0  0  0  0  0
   -8.7269   -0.7046   -3.6533 H   0  0  0  0  0  0  0  0  0  0  0  0
   -6.3271   -0.6863   -3.7606 H   0  0  0  0  0  0  0  0  0  0  0  0
   -4.7537    2.5653   -1.0652 H   0  0  0  0  0  0  0  0  0  0  0  0
   -3.7264    1.1976    1.6250 H   0  0  0  0  0  0  0  0  0  0  0  0
   -2.8215   -0.3715    1.6312 H   0  0  0  0  0  0  0  0  0  0  0  0
   -3.9220   -0.9856    3.7227 H   0  0  0  0  0  0  0  0  0  0  0  0
   -3.4094    0.7015    3.8797 H   0  0  0  0  0  0  0  0  0  0  0  0
   -7.2596   -0.0479    2.8576 H   0  0  0  0  0  0  0  0  0  0  0  0
   -6.4452   -1.2043    3.9261 H   0  0  0  0  0  0  0  0  0  0  0  0
   -5.2048   -2.1252    2.1921 H   0  0  0  0  0  0  0  0  0  0  0  0
   -6.6086   -1.5491    1.2111 H   0  0  0  0  0  0  0  0  0  0  0  0
    2.0819   -0.4042   -1.3863 H   0  0  0  0  0  0  0  0  0  0  0  0
    1.0642   -2.0480    0.9328 H   0  0  0  0  0  0  0  0  0  0  0  0
    1.4799   -4.1759    0.1059 H   0  0  0  0  0  0  0  0  0  0  0  0
    0.1811   -3.2541   -0.6686 H   0  0  0  0  0  0  0  0  0  0  0  0
    2.8480   -3.9898   -2.0428 H   0  0  0  0  0  0  0  0  0  0  0  0
   -0.0318   -4.7674   -2.3647 H   0  0  0  0  0  0  0  0  0  0  0  0
    1.1286   -5.7703   -1.4150 H   0  0  0  0  0  0  0  0  0  0  0  0
    2.6786   -5.7547   -3.4780 H   0  0  0  0  0  0  0  0  0  0  0  0
    1.1275   -6.6969   -3.6099 H   0  0  0  0  0  0  0  0  0  0  0  0
    0.0669   -4.6265   -4.6425 H   0  0  0  0  0  0  0  0  0  0  0  0
    1.5363   -5.1807   -5.6198 H   0  0  0  0  0  0  0  0  0  0  0  0
    2.9811   -3.7219   -4.2466 H   0  0  0  0  0  0  0  0  0  0  0  0
    1.7946   -2.8012   -5.2529 H   0  0  0  0  0  0  0  0  0  0  0  0
    2.0800   -1.8842   -3.0899 H   0  0  0  0  0  0  0  0  0  0  0  0
    0.4174   -2.4789   -3.1364 H   0  0  0  0  0  0  0  0  0  0  0  0
    3.9664   -2.4057   -0.0272 H   0  0  0  0  0  0  0  0  0  0  0  0
    2.4665   -3.4114    2.1055 H   0  0  0  0  0  0  0  0  0  0  0  0
    4.3798    0.8993    2.9655 H   0  0  0  0  0  0  0  0  0  0  0  0
    4.3080    2.7432    0.6407 H   0  0  0  0  0  0  0  0  0  0  0  0
    5.9496    2.0624    0.7384 H   0  0  0  0  0  0  0  0  0  0  0  0
    4.4640    3.5792    2.9199 H   0  0  0  0  0  0  0  0  0  0  0  0
    5.7159    4.2505    1.8791 H   0  0  0  0  0  0  0  0  0  0  0  0
    8.2034    3.6826    2.5747 H   0  0  0  0  0  0  0  0  0  0  0  0
    7.8720    1.9694    2.1681 H   0  0  0  0  0  0  0  0  0  0  0  0
    9.5931    2.5502    3.9295 H   0  0  0  0  0  0  0  0  0  0  0  0
    8.4655    1.2011    4.2513 H   0  0  0  0  0  0  0  0  0  0  0  0
    6.6543    2.4322    6.6028 H   0  0  0  0  0  0  0  0  0  0  0  0
    6.4877    3.9750    5.6739 H   0  0  0  0  0  0  0  0  0  0  0  0
    6.1910    1.1833    4.4672 H   0  0  0  0  0  0  0  0  0  0  0  0
    4.9510    2.4501    4.7747 H   0  0  0  0  0  0  0  0  0  0  0  0
  1  2  1  0
  2  3  1  0
  3  4  2  0
  3  5  1  0
  5  6  1  0
  6  7  1  0
  7  8  2  0
  7  9  1  0
  9 10  1  0
 10 11  1  0
 11 12  2  0
 12 13  1  0
 13 14  2  0
 14 15  1  0
 15 16  2  0
  9 17  1  0
 17 18  1  0
 18 19  2  0
 18 20  2  0
 18 21  1  0
 21 22  1  0
 22 23  1  0
 23 24  1  0
 24 25  1  0
 25 26  1  0
  5 27  1  0
 27 28  2  0
 27 29  1  0
 29 30  1  0
 30 31  1  0
 31 32  1  0
 32 33  1  0
 33 34  1  0
 34 35  1  0
 35 36  1  0
 36 37  1  0
 30 38  1  0
 38 39  1  0
 38 40  1  0
 40 41  1  0
 40 42  1  0
 40 43  1  0
 43 44  2  0
 43 45  1  0
 45 46  1  0
 46 47  1  0
 47 48  1  0
 48 49  1  0
 49 50  1  0
 50 51  1  0
 51 52  1  0
 52 53  1  0
 16 11  1  0
 26 21  1  0
 37 32  1  0
 53 48  1  0
  1 54  1  0
  1 55  1  0
  1 56  1  0
  5 57  1  6
  6 58  1  0
  9 59  1  1
 10 60  1  0
 10 61  1  0
 12 62  1  0
 13 63  1  0
 14 64  1  0
 15 65  1  0
 16 66  1  0
 17 67  1  0
 22 68  1  0
 22 69  1  0
 23 70  1  0
 23 71  1  0
 25 72  1  0
 25 73  1  0
 26 74  1  0
 26 75  1  0
 29 76  1  0
 30 77  1  1
 31 78  1  0
 31 79  1  0
 32 80  1  0
 33 81  1  0
 33 82  1  0
 34 83  1  0
 34 84  1  0
 35 85  1  0
 35 86  1  0
 36 87  1  0
 36 88  1  0
 37 89  1  0
 37 90  1  0
 38 91  1  0
 39 92  1  0
 45 93  1  0
 46 94  1  0
 46 95  1  0
 47 96  1  0
 47 97  1  0
 49 98  1  0
 49 99  1  0
 50100  1  0
 50101  1  0
 52102  1  0
 52103  1  0
 53104  1  0
 53105  1  0
M  END
$$$$
