@<TRIPOS>MOLECULE
*****
 43 44 0 0 0
SMALL
GASTEIGER

@<TRIPOS>ATOM
      1 C           1.2411    0.0893   -0.0264 C.3     1  UNL1        0.0179
      2 N           1.2846    1.3283   -0.7140 N.3     1  UNL1       -0.3261
      3 C           2.5092   -0.3725    0.6151 C.3     1  UNL1       -0.0342
      4 C           3.6595   -0.5753   -0.2868 C.3     1  UNL1       -0.0453
      5 C           4.8395   -1.0436    0.5651 C.3     1  UNL1       -0.0626
      6 C           4.1404    0.6514   -1.0033 C.3     1  UNL1       -0.0626
      7 C           0.1925    0.1955    1.0808 C.3     1  UNL1        0.0155
      8 N          -1.1081    0.4763    0.6453 N.3     1  UNL1       -0.2855
      9 C          -1.3949    1.7264    0.0921 C.3     1  UNL1        0.0015
     10 C          -2.6945    2.2043    0.7092 C.3     1  UNL1       -0.0273
     11 C          -3.7476    1.2218    0.2829 C.3     1  UNL1        0.0015
     12 N          -3.4174   -0.1409    0.4966 N.3     1  UNL1       -0.2869
     13 C          -3.8932   -1.0734   -0.4798 C.3     1  UNL1        0.0004
     14 C          -3.1788   -2.3465   -0.0061 C.3     1  UNL1       -0.0375
     15 C          -1.7676   -1.7672    0.1543 C.3     1  UNL1       -0.0227
     16 C          -2.1120   -0.4608    0.8725 C.3     1  UNL1        0.0637
     17 H           0.8501   -0.6720   -0.7452 H       1  UNL1        0.0471
     18 H           1.8381    2.0845   -0.2662 H       1  UNL1        0.1185
     19 H           1.2709    1.3097   -1.7367 H       1  UNL1        0.1185
     20 H           2.7906    0.2968    1.4531 H       1  UNL1        0.0283
     21 H           2.2723   -1.3616    1.0768 H       1  UNL1        0.0283
     22 H           3.4594   -1.3663   -1.0146 H       1  UNL1        0.0296
     23 H           4.6347   -1.9903    1.0916 H       1  UNL1        0.0232
     24 H           5.7706   -1.0817   -0.0343 H       1  UNL1        0.0232
     25 H           4.9986   -0.2236    1.2986 H       1  UNL1        0.0232
     26 H           4.1762    1.5491   -0.3448 H       1  UNL1        0.0232
     27 H           5.2181    0.5217   -1.3133 H       1  UNL1        0.0232
     28 H           3.6095    0.8201   -1.9622 H       1  UNL1        0.0232
     29 H           0.1707   -0.7234    1.7133 H       1  UNL1        0.0442
     30 H           0.5301    1.0090    1.7808 H       1  UNL1        0.0442
     31 H          -1.5933    1.6655   -1.0116 H       1  UNL1        0.0427
     32 H          -0.5638    2.4267    0.3025 H       1  UNL1        0.0427
     33 H          -2.9819    3.2121    0.4090 H       1  UNL1        0.0290
     34 H          -2.5555    2.0917    1.8238 H       1  UNL1        0.0290
     35 H          -3.9448    1.3912   -0.8083 H       1  UNL1        0.0427
     36 H          -4.6930    1.4688    0.8071 H       1  UNL1        0.0427
     37 H          -4.9839   -1.2150   -0.4921 H       1  UNL1        0.0427
     38 H          -3.4795   -0.8713   -1.5034 H       1  UNL1        0.0427
     39 H          -3.2225   -3.1613   -0.7303 H       1  UNL1        0.0278
     40 H          -3.5414   -2.5702    0.9974 H       1  UNL1        0.0278
     41 H          -1.1091   -2.4091    0.7521 H       1  UNL1        0.0294
     42 H          -1.3640   -1.5827   -0.8643 H       1  UNL1        0.0294
     43 H          -2.1100   -0.7317    1.9679 H       1  UNL1        0.0632
@<TRIPOS>BOND
     1     1     2    1
     2     1     3    1
     3     3     4    1
     4     4     5    1
     5     4     6    1
     6     1     7    1
     7     7     8    1
     8     8     9    1
     9     9    10    1
    10    10    11    1
    11    11    12    1
    12    12    13    1
    13    13    14    1
    14    14    15    1
    15    15    16    1
    16    16     8    1
    17    16    12    1
    18     1    17    1
    19     2    18    1
    20     2    19    1
    21     3    20    1
    22     3    21    1
    23     4    22    1
    24     5    23    1
    25     5    24    1
    26     5    25    1
    27     6    26    1
    28     6    27    1
    29     6    28    1
    30     7    29    1
    31     7    30    1
    32     9    31    1
    33     9    32    1
    34    10    33    1
    35    10    34    1
    36    11    35    1
    37    11    36    1
    38    13    37    1
    39    13    38    1
    40    14    39    1
    41    14    40    1
    42    15    41    1
    43    15    42    1
    44    16    43    1
