
     RDKit          3D

 56 56  0  0  0  0  0  0  0  0999 V2000
    7.5391    3.0563   -4.0288 C   0  0  0  0  0  0  0  0  0  0  0  0
    6.3590    3.8939   -3.6463 C   0  0  0  0  0  0  0  0  0  0  0  0
    5.2563    3.0656   -3.3931 O   0  0  0  0  0  0  0  0  0  0  0  0
    4.7694    2.2817   -4.3910 C   0  0  0  0  0  0  0  0  0  0  0  0
    5.4480    2.4565   -5.4177 O   0  0  0  0  0  0  0  0  0  0  0  0
    3.7494    1.3168   -4.7108 C   0  0  0  0  0  0  0  0  0  0  0  0
    2.7289    0.7186   -4.0802 C   0  0  0  0  0  0  0  0  0  0  0  0
    1.5741   -0.1725   -3.9586 C   0  0  0  0  0  0  0  0  0  0  0  0
    2.7577    1.2702   -2.6736 C   0  0  0  0  0  0  0  0  0  0  0  0
    2.1136    1.1685   -1.5400 C   0  0  0  0  0  0  0  0  0  0  0  0
    1.0747    0.6383   -0.6888 C   0  0  0  0  0  0  0  0  0  0  0  0
    0.5716    0.6926    0.4965 C   0  0  0  0  0  0  0  0  0  0  0  0
    1.1794    1.5996    1.4786 C   0  0  0  0  0  0  0  0  0  0  0  0
   -0.5527   -0.1996    0.5798 C   0  0  0  0  0  0  0  0  0  0  0  0
   -1.3962   -0.5184    1.4644 C   0  0  0  0  0  0  0  0  0  0  0  0
   -2.4912   -1.1335    2.1439 C   0  0  0  0  0  0  0  0  0  0  0  0
   -2.8684   -0.7906    3.4453 C   0  0  0  0  0  0  0  0  0  0  0  0
   -2.1734    0.2642    4.1889 C   0  0  0  0  0  0  0  0  0  0  0  0
   -3.9161   -1.4494    3.9928 C   0  0  0  0  0  0  0  0  0  0  0  0
   -4.3219   -1.0917    5.3957 C   0  0  0  0  0  0  0  0  0  0  0  0
   -4.5961   -2.4077    3.3311 C   0  0  0  0  0  0  0  0  0  0  0  0
   -5.6395   -3.0042    3.9774 O   0  0  0  0  0  0  0  0  0  0  0  0
   -6.4381   -4.0111    3.4366 C   0  0  0  0  0  0  0  0  0  0  0  0
   -4.2343   -2.7655    2.0348 C   0  0  0  0  0  0  0  0  0  0  0  0
   -3.1728   -2.1270    1.4329 C   0  0  0  0  0  0  0  0  0  0  0  0
   -2.9012   -2.6074    0.0654 C   0  0  0  0  0  0  0  0  0  0  0  0
    7.9454    3.3794   -5.0207 H   0  0  0  0  0  0  0  0  0  0  0  0
    7.2948    1.9860   -4.1044 H   0  0  0  0  0  0  0  0  0  0  0  0
    8.3318    3.1171   -3.2250 H   0  0  0  0  0  0  0  0  0  0  0  0
    6.6048    4.4984   -2.7377 H   0  0  0  0  0  0  0  0  0  0  0  0
    6.1394    4.5985   -4.4842 H   0  0  0  0  0  0  0  0  0  0  0  0
    3.5349    0.7998   -5.6055 H   0  0  0  0  0  0  0  0  0  0  0  0
    0.6643    0.4270   -3.6930 H   0  0  0  0  0  0  0  0  0  0  0  0
    1.3479   -0.6242   -4.9988 H   0  0  0  0  0  0  0  0  0  0  0  0
    1.7566   -1.0309   -3.3361 H   0  0  0  0  0  0  0  0  0  0  0  0
    3.5361    1.9933   -2.4299 H   0  0  0  0  0  0  0  0  0  0  0  0
    2.4292    1.7628   -0.6841 H   0  0  0  0  0  0  0  0  0  0  0  0
    0.7375   -0.0001   -1.5004 H   0  0  0  0  0  0  0  0  0  0  0  0
    1.1607    2.6270    0.9869 H   0  0  0  0  0  0  0  0  0  0  0  0
    0.5672    1.6036    2.3912 H   0  0  0  0  0  0  0  0  0  0  0  0
    2.2417    1.4061    1.6733 H   0  0  0  0  0  0  0  0  0  0  0  0
   -0.9892   -0.8731   -0.1148 H   0  0  0  0  0  0  0  0  0  0  0  0
   -0.8906    0.1624    2.1776 H   0  0  0  0  0  0  0  0  0  0  0  0
   -1.9425    1.1664    3.5273 H   0  0  0  0  0  0  0  0  0  0  0  0
   -2.9033    0.7200    4.9287 H   0  0  0  0  0  0  0  0  0  0  0  0
   -1.3124   -0.0308    4.7823 H   0  0  0  0  0  0  0  0  0  0  0  0
   -4.9949   -1.8825    5.7953 H   0  0  0  0  0  0  0  0  0  0  0  0
   -4.7580   -0.1113    5.4563 H   0  0  0  0  0  0  0  0  0  0  0  0
   -3.3943   -1.1353    6.0089 H   0  0  0  0  0  0  0  0  0  0  0  0
   -5.8899   -4.9779    3.5469 H   0  0  0  0  0  0  0  0  0  0  0  0
   -7.4303   -4.0575    3.9837 H   0  0  0  0  0  0  0  0  0  0  0  0
   -6.6757   -3.9019    2.3582 H   0  0  0  0  0  0  0  0  0  0  0  0
   -4.8470   -3.5641    1.5918 H   0  0  0  0  0  0  0  0  0  0  0  0
   -3.0997   -1.7667   -0.6645 H   0  0  0  0  0  0  0  0  0  0  0  0
   -1.9162   -3.0543   -0.0935 H   0  0  0  0  0  0  0  0  0  0  0  0
   -3.6678   -3.3812   -0.2587 H   0  0  0  0  0  0  0  0  0  0  0  0
  1  2  1  0
  2  3  1  0
  3  4  1  0
  4  5  2  0
  4  6  1  0
  6  7  2  3
  7  8  1  0
  7  9  1  0
  9 10  2  3
 10 11  1  0
 11 12  2  3
 12 13  1  0
 12 14  1  0
 14 15  2  3
 15 16  1  0
 16 17  2  0
 17 18  1  0
 17 19  1  0
 19 20  1  0
 19 21  2  0
 21 22  1  0
 22 23  1  0
 21 24  1  0
 24 25  2  0
 25 26  1  0
 25 16  1  0
  1 27  1  0
  1 28  1  0
  1 29  1  0
  2 30  1  0
  2 31  1  0
  6 32  1  0
  8 33  1  0
  8 34  1  0
  8 35  1  0
  9 36  1  0
 10 37  1  0
 11 38  1  0
 13 39  1  0
 13 40  1  0
 13 41  1  0
 14 42  1  0
 15 43  1  0
 18 44  1  0
 18 45  1  0
 18 46  1  0
 20 47  1  0
 20 48  1  0
 20 49  1  0
 23 50  1  0
 23 51  1  0
 23 52  1  0
 24 53  1  0
 26 54  1  0
 26 55  1  0
 26 56  1  0
M  END
$$$$
