
     RDKit          3D

 37 39  0  0  0  0  0  0  0  0999 V2000
    3.9709   -1.9649   -0.4185 C   0  0  0  0  0  0  0  0  0  0  0  0
    3.6147   -0.6046    0.1941 C   0  0  2  0  0  0  0  0  0  0  0  0
    3.3028   -0.8802    1.5360 O   0  0  0  0  0  0  0  0  0  0  0  0
    2.4498   -0.0355   -0.5144 C   0  0  0  0  0  0  0  0  0  0  0  0
    2.5559    0.7793   -1.6123 C   0  0  0  0  0  0  0  0  0  0  0  0
    1.4660    1.2984   -2.2583 N   0  0  0  0  0  0  0  0  0  0  0  0
    0.2497    0.9888   -1.7867 C   0  0  0  0  0  0  0  0  0  0  0  0
    0.0562    0.1773   -0.6890 C   0  0  0  0  0  0  0  0  0  0  0  0
   -1.2664   -0.1350   -0.2088 N   0  0  0  0  0  0  0  0  0  0  0  0
   -1.7520   -1.3315    0.0765 N   0  0  0  0  0  0  0  0  0  0  0  0
   -3.0208   -1.2647    0.5002 C   0  0  0  0  0  0  0  0  0  0  0  0
   -3.9415   -2.3555    0.9225 C   0  0  0  0  0  0  0  0  0  0  0  0
   -4.3554   -2.1803    2.2292 F   0  0  0  0  0  0  0  0  0  0  0  0
   -5.1081   -2.3331    0.1487 F   0  0  0  0  0  0  0  0  0  0  0  0
   -3.3692   -3.5898    0.8176 F   0  0  0  0  0  0  0  0  0  0  0  0
   -3.3911    0.0637    0.4920 C   0  0  0  0  0  0  0  0  0  0  0  0
   -4.5513    0.7332    0.8181 C   0  0  0  0  0  0  0  0  0  0  0  0
   -4.6189    2.1040    0.7028 C   0  0  0  0  0  0  0  0  0  0  0  0
   -3.5326    2.7979    0.2644 C   0  0  0  0  0  0  0  0  0  0  0  0
   -2.3619    2.1042   -0.0629 C   0  0  0  0  0  0  0  0  0  0  0  0
   -2.2594    0.7367    0.0402 C   0  0  0  0  0  0  0  0  0  0  0  0
    1.1722   -0.3277   -0.0632 C   0  0  0  0  0  0  0  0  0  0  0  0
    4.8484    0.2302    0.1309 C   0  0  0  0  0  0  0  0  0  0  0  0
    4.6876    1.5022    0.6369 F   0  0  0  0  0  0  0  0  0  0  0  0
    5.4362    0.1894   -1.1107 F   0  0  0  0  0  0  0  0  0  0  0  0
    5.7802   -0.4216    0.9735 F   0  0  0  0  0  0  0  0  0  0  0  0
    3.9975   -1.8179   -1.5345 H   0  0  0  0  0  0  0  0  0  0  0  0
    3.1148   -2.6354   -0.2191 H   0  0  0  0  0  0  0  0  0  0  0  0
    4.9340   -2.3295   -0.0614 H   0  0  0  0  0  0  0  0  0  0  0  0
    3.8690   -0.3256    2.1437 H   0  0  0  0  0  0  0  0  0  0  0  0
    3.5560    1.0233   -1.9851 H   0  0  0  0  0  0  0  0  0  0  0  0
   -0.6626    1.3723   -2.2590 H   0  0  0  0  0  0  0  0  0  0  0  0
   -5.4338    0.2219    1.1690 H   0  0  0  0  0  0  0  0  0  0  0  0
   -5.5193    2.6416    0.9542 H   0  0  0  0  0  0  0  0  0  0  0  0
   -3.5013    3.8717    0.1455 H   0  0  0  0  0  0  0  0  0  0  0  0
   -1.5007    2.6665   -0.4117 H   0  0  0  0  0  0  0  0  0  0  0  0
    1.0846   -0.9695    0.8019 H   0  0  0  0  0  0  0  0  0  0  0  0
  1  2  1  0
  2  3  1  1
  2  4  1  0
  4  5  2  0
  5  6  1  0
  6  7  2  0
  7  8  1  0
  8  9  1  0
  9 10  1  0
 10 11  2  0
 11 12  1  0
 12 13  1  0
 12 14  1  0
 12 15  1  0
 11 16  1  0
 16 17  2  0
 17 18  1  0
 18 19  2  0
 19 20  1  0
 20 21  2  0
  8 22  2  0
  2 23  1  0
 23 24  1  0
 23 25  1  0
 23 26  1  0
 22  4  1  0
 21  9  1  0
 21 16  1  0
  1 27  1  0
  1 28  1  0
  1 29  1  0
  3 30  1  0
  5 31  1  0
  7 32  1  0
 17 33  1  0
 18 34  1  0
 19 35  1  0
 20 36  1  0
 22 37  1  0
M  END
$$$$
