@<TRIPOS>MOLECULE
*****
 37 39 0 0 0
SMALL
GASTEIGER

@<TRIPOS>ATOM
      1 C           3.9709   -1.9649   -0.4185 C.3     1  UNL1       -0.0232
      2 C           3.6147   -0.6046    0.1941 C.3     1  UNL1        0.1843
      3 O           3.3028   -0.8802    1.5360 O.3     1  UNL1       -0.3757
      4 C           2.4498   -0.0355   -0.5144 C.ar    1  UNL1        0.0123
      5 C           2.5559    0.7793   -1.6123 C.ar    1  UNL1        0.0339
      6 N           1.4660    1.2984   -2.2583 N.ar    1  UNL1       -0.2608
      7 C           0.2497    0.9888   -1.7867 C.ar    1  UNL1        0.0530
      8 C           0.0562    0.1773   -0.6890 C.ar    1  UNL1        0.0844
      9 N          -1.2664   -0.1350   -0.2088 N.ar    1  UNL1       -0.2301
     10 N          -1.7520   -1.3315    0.0765 N.ar    1  UNL1       -0.1611
     11 C          -3.0208   -1.2647    0.5002 C.ar    1  UNL1        0.1733
     12 C          -3.9415   -2.3555    0.9225 C.3     1  UNL1        0.4365
     13 F          -4.3554   -2.1803    2.2292 F       1  UNL1       -0.1643
     14 F          -5.1081   -2.3331    0.1487 F       1  UNL1       -0.1643
     15 F          -3.3692   -3.5898    0.8176 F       1  UNL1       -0.1643
     16 C          -3.3911    0.0637    0.4920 C.ar    1  UNL1        0.0321
     17 C          -4.5513    0.7332    0.8181 C.ar    1  UNL1       -0.0505
     18 C          -4.6189    2.1040    0.7028 C.ar    1  UNL1       -0.0610
     19 C          -3.5326    2.7979    0.2644 C.ar    1  UNL1       -0.0597
     20 C          -2.3619    2.1042   -0.0629 C.ar    1  UNL1       -0.0356
     21 C          -2.2594    0.7367    0.0402 C.ar    1  UNL1        0.0752
     22 C           1.1722   -0.3277   -0.0632 C.ar    1  UNL1       -0.0271
     23 C           4.8484    0.2302    0.1309 C.3     1  UNL1        0.4222
     24 F           4.6876    1.5022    0.6369 F       1  UNL1       -0.1673
     25 F           5.4362    0.1894   -1.1107 F       1  UNL1       -0.1673
     26 F           5.7802   -0.4216    0.9735 F       1  UNL1       -0.1673
     27 H           3.9975   -1.8179   -1.5345 H       1  UNL1        0.0263
     28 H           3.1148   -2.6354   -0.2191 H       1  UNL1        0.0263
     29 H           4.9340   -2.3295   -0.0614 H       1  UNL1        0.0263
     30 H           3.8690   -0.3256    2.1437 H       1  UNL1        0.2110
     31 H           3.5560    1.0233   -1.9851 H       1  UNL1        0.0833
     32 H          -0.6626    1.3723   -2.2590 H       1  UNL1        0.0851
     33 H          -5.4338    0.2219    1.1690 H       1  UNL1        0.0625
     34 H          -5.5193    2.6416    0.9542 H       1  UNL1        0.0618
     35 H          -3.5013    3.8717    0.1455 H       1  UNL1        0.0618
     36 H          -1.5007    2.6665   -0.4117 H       1  UNL1        0.0639
     37 H           1.0846   -0.9695    0.8019 H       1  UNL1        0.0643
@<TRIPOS>BOND
     1     1     2    1
     2     2     3    1
     3     2     4    1
     4     4     5   ar
     5     5     6   ar
     6     6     7   ar
     7     7     8   ar
     8     8     9    1
     9     9    10   ar
    10    10    11   ar
    11    11    12    1
    12    12    13    1
    13    12    14    1
    14    12    15    1
    15    11    16   ar
    16    16    17   ar
    17    17    18   ar
    18    18    19   ar
    19    19    20   ar
    20    20    21   ar
    21     8    22   ar
    22     2    23    1
    23    23    24    1
    24    23    25    1
    25    23    26    1
    26    22     4   ar
    27    21     9   ar
    28    21    16   ar
    29     1    27    1
    30     1    28    1
    31     1    29    1
    32     3    30    1
    33     5    31    1
    34     7    32    1
    35    17    33    1
    36    18    34    1
    37    19    35    1
    38    20    36    1
    39    22    37    1
