
     RDKit          3D

 51 54  0  0  0  0  0  0  0  0999 V2000
   -5.0514   -1.4401    1.8067 O   0  0  0  0  0  0  0  0  0  0  0  0
   -4.1778   -0.6593    1.3894 C   0  0  0  0  0  0  0  0  0  0  0  0
   -3.6599    0.5415    1.9849 N   0  0  0  0  0  0  0  0  0  0  0  0
   -2.6586    1.0998    1.1221 C   0  0  0  0  0  0  0  0  0  0  0  0
   -1.8209    1.9367    1.5478 O   0  0  0  0  0  0  0  0  0  0  0  0
   -2.8710    0.4997   -0.1896 C   0  0  2  0  0  0  0  0  0  0  0  0
   -1.6105    0.2159   -0.9518 C   0  0  0  0  0  0  0  0  0  0  0  0
   -0.7196   -0.6810   -0.2979 N   0  0  0  0  0  0  0  0  0  0  0  0
    0.5061   -1.0250   -0.9227 C   0  0  0  0  0  0  0  0  0  0  0  0
    0.7369   -0.5002   -2.0498 O   0  0  0  0  0  0  0  0  0  0  0  0
    1.4880   -1.9547   -0.3039 C   0  0  1  0  0  0  0  0  0  0  0  0
    1.9761   -1.4208    1.0076 C   0  0  0  0  0  0  0  0  0  0  0  0
    2.6410   -0.1044    0.8107 C   0  0  0  0  0  0  0  0  0  0  0  0
    1.9621    1.0719    0.8848 C   0  0  0  0  0  0  0  0  0  0  0  0
    2.6273    2.2739    0.6916 C   0  0  0  0  0  0  0  0  0  0  0  0
    3.9714    2.2891    0.4249 C   0  0  0  0  0  0  0  0  0  0  0  0
    4.6818    3.5825    0.2181 C   0  0  0  0  0  0  0  0  0  0  0  0
    5.5844    3.8062    1.2410 F   0  0  0  0  0  0  0  0  0  0  0  0
    5.3451    3.5060   -0.9990 F   0  0  0  0  0  0  0  0  0  0  0  0
    3.7542    4.6023    0.1694 F   0  0  0  0  0  0  0  0  0  0  0  0
    4.6291    1.0829    0.3565 C   0  0  0  0  0  0  0  0  0  0  0  0
    4.0061   -0.1132    0.5411 C   0  0  0  0  0  0  0  0  0  0  0  0
    0.9183   -3.3545   -0.1708 C   0  0  0  0  0  0  0  0  0  0  0  0
    0.4898   -4.0651   -1.4402 C   0  0  0  0  0  0  0  0  0  0  0  0
    1.7171   -4.4845   -0.6757 C   0  0  0  0  0  0  0  0  0  0  0  0
   -3.8588    1.2084   -1.0569 C   0  0  0  0  0  0  0  0  0  0  0  0
   -3.6791    2.6150   -1.4729 C   0  0  0  0  0  0  0  0  0  0  0  0
   -4.7331    2.2425   -0.4656 C   0  0  0  0  0  0  0  0  0  0  0  0
   -3.4654   -0.7977    0.1637 N   0  0  0  0  0  0  0  0  0  0  0  0
   -4.0029    0.8987    2.9071 H   0  0  0  0  0  0  0  0  0  0  0  0
   -1.0878    1.1977   -1.1164 H   0  0  0  0  0  0  0  0  0  0  0  0
   -1.8431   -0.1687   -1.9625 H   0  0  0  0  0  0  0  0  0  0  0  0
   -0.9381   -1.0948    0.6272 H   0  0  0  0  0  0  0  0  0  0  0  0
    2.3589   -2.0223   -0.9767 H   0  0  0  0  0  0  0  0  0  0  0  0
    2.6213   -2.1308    1.5428 H   0  0  0  0  0  0  0  0  0  0  0  0
    1.0771   -1.2522    1.6475 H   0  0  0  0  0  0  0  0  0  0  0  0
    0.9114    1.1026    1.0926 H   0  0  0  0  0  0  0  0  0  0  0  0
    2.0533    3.1931    0.7580 H   0  0  0  0  0  0  0  0  0  0  0  0
    5.6986    1.1006    0.1441 H   0  0  0  0  0  0  0  0  0  0  0  0
    4.5520   -1.0446    0.4808 H   0  0  0  0  0  0  0  0  0  0  0  0
    0.2790   -3.5179    0.7071 H   0  0  0  0  0  0  0  0  0  0  0  0
    0.6249   -3.5707   -2.4117 H   0  0  0  0  0  0  0  0  0  0  0  0
   -0.3980   -4.7471   -1.3782 H   0  0  0  0  0  0  0  0  0  0  0  0
    1.6622   -5.4737   -0.1595 H   0  0  0  0  0  0  0  0  0  0  0  0
    2.6792   -4.3432   -1.2164 H   0  0  0  0  0  0  0  0  0  0  0  0
   -4.3208    0.5354   -1.8371 H   0  0  0  0  0  0  0  0  0  0  0  0
   -4.0897    2.9353   -2.4541 H   0  0  0  0  0  0  0  0  0  0  0  0
   -2.8165    3.2275   -1.1447 H   0  0  0  0  0  0  0  0  0  0  0  0
   -5.8014    2.2291   -0.7769 H   0  0  0  0  0  0  0  0  0  0  0  0
   -4.5797    2.6466    0.5362 H   0  0  0  0  0  0  0  0  0  0  0  0
   -3.3684   -1.6743   -0.4095 H   0  0  0  0  0  0  0  0  0  0  0  0
  1  2  2  0
  2  3  1  0
  3  4  1  0
  4  5  2  0
  4  6  1  0
  6  7  1  6
  7  8  1  0
  8  9  1  0
  9 10  2  0
  9 11  1  0
 11 12  1  0
 12 13  1  0
 13 14  2  0
 14 15  1  0
 15 16  2  0
 16 17  1  0
 17 18  1  0
 17 19  1  0
 17 20  1  0
 16 21  1  0
 21 22  2  0
 11 23  1  0
 23 24  1  0
 24 25  1  0
  6 26  1  0
 26 27  1  0
 27 28  1  0
  6 29  1  0
 29  2  1  0
 22 13  1  0
 25 23  1  0
 28 26  1  0
  3 30  1  0
  7 31  1  0
  7 32  1  0
  8 33  1  0
 11 34  1  6
 12 35  1  0
 12 36  1  0
 14 37  1  0
 15 38  1  0
 21 39  1  0
 22 40  1  0
 23 41  1  0
 24 42  1  0
 24 43  1  0
 25 44  1  0
 25 45  1  0
 26 46  1  0
 27 47  1  0
 27 48  1  0
 28 49  1  0
 28 50  1  0
 29 51  1  0
M  END
$$$$
