@<TRIPOS>MOLECULE
*****
 56 59 0 0 0
SMALL
GASTEIGER

@<TRIPOS>ATOM
      1 N          -5.3765    3.3624    2.2150 N.pl3   1  UNL1       -0.2516
      2 C          -5.6613    2.3400    1.2694 C.cat   1  UNL1        0.3648
      3 N          -6.7402    1.6798    1.3727 N.2     1  UNL1       -0.1172
      4 C          -7.0684    0.6268    0.4266 C.3     1  UNL1        0.1070
      5 C          -6.5340    0.9405   -0.9540 C.3     1  UNL1        0.0104
      6 C          -5.1111    1.3884   -0.9345 C.3     1  UNL1        0.0638
      7 N          -4.7170    2.0987    0.2401 N.pl3   1  UNL1       -0.2210
      8 C          -3.3782    2.5810    0.4117 C.3     1  UNL1        0.0858
      9 C          -2.3623    1.4847    0.3869 C.ar    1  UNL1       -0.0158
     10 C          -2.0094    0.8663    1.5467 C.ar    1  UNL1       -0.0550
     11 C          -1.0620   -0.1602    1.5440 C.ar    1  UNL1       -0.0493
     12 C          -0.4619   -0.5731    0.3758 C.ar    1  UNL1        0.0370
     13 C           0.5169   -1.6451    0.4303 C.2     1  UNL1        0.2483
     14 O           0.8205   -2.2002    1.5423 O.2     1  UNL1       -0.2699
     15 N           1.1888   -2.1395   -0.7200 N.am    1  UNL1       -0.2808
     16 C           2.1273   -3.1900   -0.5567 C.ar    1  UNL1        0.0459
     17 C           1.7218   -4.5281   -0.6393 C.ar    1  UNL1       -0.0384
     18 C           2.6481   -5.5356   -0.4779 C.ar    1  UNL1       -0.0416
     19 C           3.9622   -5.1970   -0.2371 C.ar    1  UNL1        0.0418
     20 CL          5.1459   -6.4650   -0.0307 Cl      1  UNL1       -0.0835
     21 C           4.3872   -3.8660   -0.1510 C.ar    1  UNL1       -0.0295
     22 C           3.4371   -2.8573   -0.3167 C.ar    1  UNL1        0.0596
     23 C           3.8092   -1.4596   -0.2398 C.2     1  UNL1        0.2511
     24 O           2.9284   -0.5781   -0.3938 O.2     1  UNL1       -0.2697
     25 N           5.1271   -0.9791    0.0026 N.am    1  UNL1       -0.2663
     26 C           5.4163    0.4256    0.0646 C.ar    1  UNL1        0.1252
     27 C           6.7222    0.7865    0.3040 C.ar    1  UNL1       -0.0201
     28 C           7.0508    2.1173    0.3726 C.ar    1  UNL1       -0.0387
     29 C           6.0746    3.0720    0.2019 C.ar    1  UNL1        0.0592
     30 CL          6.4881    4.7872    0.2884 Cl      1  UNL1       -0.0820
     31 C           4.7664    2.6712   -0.0382 C.ar    1  UNL1        0.0480
     32 N           4.4830    1.3569   -0.0985 N.ar    1  UNL1       -0.2387
     33 C          -0.8244    0.0568   -0.7883 C.ar    1  UNL1       -0.0493
     34 C          -1.7665    1.0802   -0.7992 C.ar    1  UNL1       -0.0550
     35 H          -4.6267    3.1908    2.9235 H       1  UNL1        0.2412
     36 H          -5.9095    4.2682    2.1991 H       1  UNL1        0.2412
     37 H          -6.6429   -0.3266    0.8056 H       1  UNL1        0.0694
     38 H          -8.1611    0.5354    0.4191 H       1  UNL1        0.0694
     39 H          -6.5620   -0.0354   -1.5209 H       1  UNL1        0.0326
     40 H          -7.1890    1.6300   -1.5000 H       1  UNL1        0.0326
     41 H          -4.9426    1.9860   -1.8749 H       1  UNL1        0.0635
     42 H          -4.4290    0.4918   -1.0154 H       1  UNL1        0.0635
     43 H          -3.2545    3.1433    1.3561 H       1  UNL1        0.0685
     44 H          -3.1533    3.3190   -0.4080 H       1  UNL1        0.0685
     45 H          -2.4532    1.1552    2.4911 H       1  UNL1        0.0621
     46 H          -0.8256   -0.6102    2.4963 H       1  UNL1        0.0625
     47 H           0.9833   -1.7226   -1.6748 H       1  UNL1        0.1552
     48 H           0.6777   -4.7268   -0.8301 H       1  UNL1        0.0637
     49 H           2.2917   -6.5505   -0.5494 H       1  UNL1        0.0633
     50 H           5.4179   -3.6547    0.0375 H       1  UNL1        0.0640
     51 H           5.8757   -1.6878    0.1338 H       1  UNL1        0.1566
     52 H           7.5053    0.0523    0.4411 H       1  UNL1        0.0652
     53 H           8.0903    2.4002    0.5631 H       1  UNL1        0.0634
     54 H           4.0068    3.4350   -0.1709 H       1  UNL1        0.0845
     55 H          -0.3855   -0.2270   -1.7320 H       1  UNL1        0.0625
     56 H          -2.0628    1.5858   -1.7058 H       1  UNL1        0.0621
@<TRIPOS>BOND
     1     1     2    1
     2     2     3    2
     3     3     4    1
     4     4     5    1
     5     5     6    1
     6     6     7    1
     7     7     8    1
     8     8     9    1
     9     9    10   ar
    10    10    11   ar
    11    11    12   ar
    12    12    13    1
    13    13    14    2
    14    13    15   am
    15    15    16    1
    16    16    17   ar
    17    17    18   ar
    18    18    19   ar
    19    19    20    1
    20    19    21   ar
    21    21    22   ar
    22    22    23    1
    23    23    24    2
    24    23    25   am
    25    25    26    1
    26    26    27   ar
    27    27    28   ar
    28    28    29   ar
    29    29    30    1
    30    29    31   ar
    31    31    32   ar
    32    12    33   ar
    33    33    34   ar
    34     7     2    1
    35    34     9   ar
    36    22    16   ar
    37    32    26   ar
    38     1    35    1
    39     1    36    1
    40     4    37    1
    41     4    38    1
    42     5    39    1
    43     5    40    1
    44     6    41    1
    45     6    42    1
    46     8    43    1
    47     8    44    1
    48    10    45    1
    49    11    46    1
    50    15    47    1
    51    17    48    1
    52    18    49    1
    53    21    50    1
    54    25    51    1
    55    27    52    1
    56    28    53    1
    57    31    54    1
    58    33    55    1
    59    34    56    1
