
     RDKit          3D

 48 50  0  0  0  0  0  0  0  0999 V2000
   -3.2594   -4.1278   -4.8606 N   0  0  0  0  0  0  0  0  0  0  0  0
   -3.4733   -3.6846   -3.5149 C   0  0  0  0  0  0  0  0  0  0  0  0
   -4.1892   -4.6048   -2.7934 N   0  0  0  0  0  0  0  0  0  0  0  0
   -4.4649   -4.2790   -1.4827 C   0  0  0  0  0  0  0  0  0  0  0  0
   -4.0693   -3.1319   -0.9124 N   0  0  0  0  0  0  0  0  0  0  0  0
   -3.3806   -2.2333   -1.5852 C   0  0  0  0  0  0  0  0  0  0  0  0
   -3.0694   -2.4913   -2.8972 C   0  0  0  0  0  0  0  0  0  0  0  0
   -2.3739   -1.5399   -3.4960 N   0  0  0  0  0  0  0  0  0  0  0  0
   -2.1931   -0.5681   -2.5478 C   0  0  0  0  0  0  0  0  0  0  0  0
   -2.8144   -1.0272   -1.4151 N   0  0  0  0  0  0  0  0  0  0  0  0
   -2.9057   -0.3639   -0.1583 C   0  0  2  0  0  0  0  0  0  0  0  0
   -1.8008    0.4921   -0.0804 O   0  0  0  0  0  0  0  0  0  0  0  0
   -0.7633   -0.2778    0.4230 C   0  0  1  0  0  0  0  0  0  0  0  0
    0.1111    0.5021    1.3950 C   0  0  0  0  0  0  0  0  0  0  0  0
    0.6896    1.6209    0.8186 O   0  0  0  0  0  0  0  0  0  0  0  0
    1.5724    2.5330    1.9573 P   0  0  2  0  0  5  0  0  0  0  0  0
    2.2425    1.5874    3.1707 O   0  0  0  0  0  0  0  0  0  0  0  0
    0.6797    3.5833    2.5864 O   0  0  0  0  0  0  0  0  0  0  0  0
    2.8426    3.3470    1.1696 O   0  0  0  0  0  0  0  0  0  0  0  0
    3.5906    2.3416    0.0407 P   0  0  1  0  0  5  0  0  0  0  0  0
    2.7282    0.9177   -0.2460 O   0  0  0  0  0  0  0  0  0  0  0  0
    3.7077    3.0931   -1.2870 O   0  0  0  0  0  0  0  0  0  0  0  0
    5.2308    2.0172    0.5863 N   0  0  0  0  0  0  0  0  0  0  0  0
    5.9715    3.5952    0.8717 P   0  0  0  0  0  0  0  0  0  0  0  0
    5.7853    4.5295   -0.5268 O   0  0  0  0  0  0  0  0  0  0  0  0
    5.1390    4.3467    2.1587 O   0  0  0  0  0  0  0  0  0  0  0  0
    7.4509    3.4678    1.1607 O   0  0  0  0  0  0  0  0  0  0  0  0
   -1.3382   -1.4726    1.1386 C   0  0  2  0  0  0  0  0  0  0  0  0
   -0.9452   -2.6210    0.4541 O   0  0  0  0  0  0  0  0  0  0  0  0
   -2.8153   -1.2295    1.0595 C   0  0  1  0  0  0  0  0  0  0  0  0
   -3.1140   -0.4101    2.1802 O   0  0  0  0  0  0  0  0  0  0  0  0
   -2.8001   -3.3291   -5.3768 H   0  0  0  0  0  0  0  0  0  0  0  0
   -2.8127   -3.5651   -5.6448 H   0  0  0  0  0  0  0  0  0  0  0  0
   -5.0256   -4.9069   -0.7858 H   0  0  0  0  0  0  0  0  0  0  0  0
   -1.6681    0.3677   -2.6681 H   0  0  0  0  0  0  0  0  0  0  0  0
   -3.8079    0.2616   -0.0825 H   0  0  0  0  0  0  0  0  0  0  0  0
   -0.1393   -0.5855   -0.4538 H   0  0  0  0  0  0  0  0  0  0  0  0
    0.9819   -0.1587    1.6895 H   0  0  0  0  0  0  0  0  0  0  0  0
   -0.3930    0.7258    2.3440 H   0  0  0  0  0  0  0  0  0  0  0  0
    2.3868    2.1713    3.9726 H   0  0  0  0  0  0  0  0  0  0  0  0
    2.8861    0.6039   -1.1765 H   0  0  0  0  0  0  0  0  0  0  0  0
    5.1649    1.5535    1.5063 H   0  0  0  0  0  0  0  0  0  0  0  0
    6.6405    4.5637   -1.0367 H   0  0  0  0  0  0  0  0  0  0  0  0
    5.3232    5.3215    2.0658 H   0  0  0  0  0  0  0  0  0  0  0  0
   -0.9848   -1.4883    2.2067 H   0  0  0  0  0  0  0  0  0  0  0  0
   -0.1902   -2.4014   -0.1664 H   0  0  0  0  0  0  0  0  0  0  0  0
   -3.4634   -2.0869    1.1163 H   0  0  0  0  0  0  0  0  0  0  0  0
   -2.8700   -0.9586    2.9964 H   0  0  0  0  0  0  0  0  0  0  0  0
  1  2  1  0
  2  3  2  0
  3  4  1  0
  4  5  2  0
  5  6  1  0
  6  7  2  0
  7  8  1  0
  8  9  2  0
  9 10  1  0
 10 11  1  0
 11 12  1  0
 12 13  1  0
 13 14  1  0
 14 15  1  0
 16 15  1  6
 16 17  1  0
 16 18  2  0
 16 19  1  0
 20 19  1  1
 20 21  1  0
 20 22  2  0
 20 23  1  0
 23 24  1  0
 24 25  1  0
 24 26  1  0
 24 27  2  0
 13 28  1  0
 28 29  1  0
 28 30  1  0
 30 31  1  0
  7  2  1  0
 30 11  1  0
 10  6  1  0
  1 32  1  0
  1 33  1  0
  4 34  1  0
  9 35  1  0
 11 36  1  6
 13 37  1  6
 14 38  1  0
 14 39  1  0
 17 40  1  0
 21 41  1  0
 23 42  1  0
 25 43  1  0
 26 44  1  0
 28 45  1  1
 29 46  1  0
 30 47  1  6
 31 48  1  0
M  END
$$$$
