@<TRIPOS>MOLECULE
*****
 48 50 0 0 0
SMALL
GASTEIGER

@<TRIPOS>ATOM
      1 N          -3.2594   -4.1278   -4.8606 N.pl3   1  UNL1       -0.3413
      2 C          -3.4733   -3.6846   -3.5149 C.ar    1  UNL1        0.1472
      3 N          -4.1892   -4.6048   -2.7934 N.ar    1  UNL1       -0.2188
      4 C          -4.4649   -4.2790   -1.4827 C.ar    1  UNL1        0.1205
      5 N          -4.0693   -3.1319   -0.9124 N.ar    1  UNL1       -0.2159
      6 C          -3.3806   -2.2333   -1.5852 C.ar    1  UNL1        0.1674
      7 C          -3.0694   -2.4913   -2.8972 C.ar    1  UNL1        0.1473
      8 N          -2.3739   -1.5399   -3.4960 N.ar    1  UNL1       -0.2306
      9 C          -2.1931   -0.5681   -2.5478 C.ar    1  UNL1        0.1004
     10 N          -2.8144   -1.0272   -1.4151 N.ar    1  UNL1       -0.2855
     11 C          -2.9057   -0.3639   -0.1583 C.3     1  UNL1        0.1667
     12 O          -1.8008    0.4921   -0.0804 O.3     1  UNL1       -0.3456
     13 C          -0.7633   -0.2778    0.4230 C.3     1  UNL1        0.1134
     14 C           0.1111    0.5021    1.3950 C.3     1  UNL1        0.0879
     15 O           0.6896    1.6209    0.8186 O.3     1  UNL1       -0.2837
     16 P           1.5724    2.5330    1.9573 P.3     1  UNL1        0.4828
     17 O           2.2425    1.5874    3.1707 O.3     1  UNL1       -0.3022
     18 O           0.6797    3.5833    2.5864 O.2     1  UNL1       -0.2269
     19 O           2.8426    3.3470    1.1696 O.3     1  UNL1       -0.1958
     20 P           3.5906    2.3416    0.0407 P.3     1  UNL1        0.4229
     21 O           2.7282    0.9177   -0.2460 O.3     1  UNL1       -0.3117
     22 O           3.7077    3.0931   -1.2870 O.2     1  UNL1       -0.2391
     23 N           5.2308    2.0172    0.5863 N.3     1  UNL1       -0.1255
     24 P           5.9715    3.5952    0.8717 P.3     1  UNL1        0.4119
     25 O           5.7853    4.5295   -0.5268 O.3     1  UNL1       -0.3120
     26 O           5.1390    4.3467    2.1587 O.3     1  UNL1       -0.3120
     27 O           7.4509    3.4678    1.1607 O.2     1  UNL1       -0.2397
     28 C          -1.3382   -1.4726    1.1386 C.3     1  UNL1        0.1135
     29 O          -0.9452   -2.6210    0.4541 O.3     1  UNL1       -0.3864
     30 C          -2.8153   -1.2295    1.0595 C.3     1  UNL1        0.1285
     31 O          -3.1140   -0.4101    2.1802 O.3     1  UNL1       -0.3847
     32 H          -2.8001   -3.3291   -5.3768 H       1  UNL1        0.1438
     33 H          -2.8127   -3.5651   -5.6448 H       1  UNL1        0.1438
     34 H          -5.0256   -4.9069   -0.7858 H       1  UNL1        0.1048
     35 H          -1.6681    0.3677   -2.6681 H       1  UNL1        0.1030
     36 H          -3.8079    0.2616   -0.0825 H       1  UNL1        0.0866
     37 H          -0.1393   -0.5855   -0.4538 H       1  UNL1        0.0647
     38 H           0.9819   -0.1587    1.6895 H       1  UNL1        0.0592
     39 H          -0.3930    0.7258    2.3440 H       1  UNL1        0.0592
     40 H           2.3868    2.1713    3.9726 H       1  UNL1        0.2220
     41 H           2.8861    0.6039   -1.1765 H       1  UNL1        0.2210
     42 H           5.1649    1.5535    1.5063 H       1  UNL1        0.1456
     43 H           6.6405    4.5637   -1.0367 H       1  UNL1        0.2210
     44 H           5.3232    5.3215    2.0658 H       1  UNL1        0.2210
     45 H          -0.9848   -1.4883    2.2067 H       1  UNL1        0.0647
     46 H          -0.1902   -2.4014   -0.1664 H       1  UNL1        0.2100
     47 H          -3.4634   -2.0869    1.1163 H       1  UNL1        0.0665
     48 H          -2.8700   -0.9586    2.9964 H       1  UNL1        0.2101
@<TRIPOS>BOND
     1     1     2    1
     2     2     3   ar
     3     3     4   ar
     4     4     5   ar
     5     5     6   ar
     6     6     7   ar
     7     7     8   ar
     8     8     9   ar
     9     9    10   ar
    10    10    11    1
    11    11    12    1
    12    12    13    1
    13    13    14    1
    14    14    15    1
    15    16    15    1
    16    16    17    1
    17    16    18    2
    18    16    19    1
    19    20    19    1
    20    20    21    1
    21    20    22    2
    22    20    23    1
    23    23    24    1
    24    24    25    1
    25    24    26    1
    26    24    27    2
    27    13    28    1
    28    28    29    1
    29    28    30    1
    30    30    31    1
    31     7     2   ar
    32    30    11    1
    33    10     6   ar
    34     1    32    1
    35     1    33    1
    36     4    34    1
    37     9    35    1
    38    11    36    1
    39    13    37    1
    40    14    38    1
    41    14    39    1
    42    17    40    1
    43    21    41    1
    44    23    42    1
    45    25    43    1
    46    26    44    1
    47    28    45    1
    48    29    46    1
    49    30    47    1
    50    31    48    1
