@<TRIPOS>MOLECULE
*****
 44 45 0 0 0
SMALL
GASTEIGER

@<TRIPOS>ATOM
      1 C           1.1970   -2.0041   -0.7708 C.3     1  UNL1       -0.0619
      2 C           0.6799   -0.8229    0.0594 C.3     1  UNL1       -0.0370
      3 C           1.4285    0.4397   -0.2971 C.3     1  UNL1       -0.0247
      4 C           2.8986    0.2760   -0.0334 C.ar    1  UNL1       -0.0434
      5 C           3.7525   -0.2026   -1.0060 C.ar    1  UNL1       -0.0549
      6 C           5.1067   -0.3517   -0.7581 C.ar    1  UNL1       -0.0163
      7 C           5.6598   -0.0311    0.4628 C.ar    1  UNL1        0.1582
      8 O           7.0337   -0.1848    0.7068 O.3     1  UNL1       -0.5033
      9 C           4.8110    0.4473    1.4373 C.ar    1  UNL1        0.1585
     10 O           5.3301    0.7800    2.6764 O.3     1  UNL1       -0.5033
     11 C           3.4620    0.5942    1.1856 C.ar    1  UNL1       -0.0133
     12 C          -0.8164   -0.7028   -0.0705 C.3     1  UNL1       -0.0370
     13 C          -1.2377   -0.4741   -1.5132 C.3     1  UNL1       -0.0619
     14 C          -1.3542    0.3989    0.7609 C.3     1  UNL1       -0.0247
     15 C          -2.8264    0.5539    0.6713 C.ar    1  UNL1       -0.0434
     16 C          -3.3036    1.3984   -0.3089 C.ar    1  UNL1       -0.0549
     17 C          -4.6799    1.5997   -0.4601 C.ar    1  UNL1       -0.0163
     18 C          -5.5572    0.9483    0.3772 C.ar    1  UNL1        0.1582
     19 O          -6.9288    1.1178    0.2638 O.3     1  UNL1       -0.5033
     20 C          -5.0976    0.1027    1.3600 C.ar    1  UNL1        0.1585
     21 O          -5.9910   -0.5410    2.1891 O.3     1  UNL1       -0.5033
     22 C          -3.7312   -0.0714    1.4792 C.ar    1  UNL1       -0.0133
     23 H           0.4720   -2.8388   -0.6485 H       1  UNL1        0.0233
     24 H           1.2266   -1.7566   -1.8494 H       1  UNL1        0.0233
     25 H           2.1661   -2.2763   -0.3512 H       1  UNL1        0.0233
     26 H           0.9098   -1.0857    1.1110 H       1  UNL1        0.0304
     27 H           1.0910    1.2754    0.3473 H       1  UNL1        0.0316
     28 H           1.2520    0.7517   -1.3456 H       1  UNL1        0.0316
     29 H           3.3815   -0.4698   -1.9780 H       1  UNL1        0.0621
     30 H           5.7769   -0.7294   -1.5276 H       1  UNL1        0.0655
     31 H           7.5096   -0.8564    0.1099 H       1  UNL1        0.2923
     32 H           6.1500    1.3259    2.8328 H       1  UNL1        0.2923
     33 H           2.7651    0.9736    1.9462 H       1  UNL1        0.0658
     34 H          -1.2185   -1.7035    0.1988 H       1  UNL1        0.0304
     35 H          -0.8660   -1.2726   -2.1808 H       1  UNL1        0.0233
     36 H          -0.9166    0.5366   -1.8386 H       1  UNL1        0.0233
     37 H          -2.3378   -0.4930   -1.5644 H       1  UNL1        0.0233
     38 H          -1.1286    0.1801    1.8335 H       1  UNL1        0.0316
     39 H          -0.8952    1.3676    0.5373 H       1  UNL1        0.0316
     40 H          -2.6736    1.9357   -0.9934 H       1  UNL1        0.0621
     41 H          -5.0468    2.2648   -1.2326 H       1  UNL1        0.0655
     42 H          -7.2936    1.3392   -0.6486 H       1  UNL1        0.2923
     43 H          -6.7923   -1.0138    1.7854 H       1  UNL1        0.2923
     44 H          -3.3674   -0.7251    2.2384 H       1  UNL1        0.0658
@<TRIPOS>BOND
     1     1     2    1
     2     2     3    1
     3     3     4    1
     4     4     5   ar
     5     5     6   ar
     6     6     7   ar
     7     7     8    1
     8     7     9   ar
     9     9    10    1
    10     9    11   ar
    11     2    12    1
    12    12    13    1
    13    12    14    1
    14    14    15    1
    15    15    16   ar
    16    16    17   ar
    17    17    18   ar
    18    18    19    1
    19    18    20   ar
    20    20    21    1
    21    20    22   ar
    22    11     4   ar
    23    22    15   ar
    24     1    23    1
    25     1    24    1
    26     1    25    1
    27     2    26    1
    28     3    27    1
    29     3    28    1
    30     5    29    1
    31     6    30    1
    32     8    31    1
    33    10    32    1
    34    11    33    1
    35    12    34    1
    36    13    35    1
    37    13    36    1
    38    13    37    1
    39    14    38    1
    40    14    39    1
    41    16    40    1
    42    17    41    1
    43    19    42    1
    44    21    43    1
    45    22    44    1
