
     RDKit          3D

 44 45  0  0  0  0  0  0  0  0999 V2000
    1.1970   -2.0041   -0.7708 C   0  0  0  0  0  0  0  0  0  0  0  0
    0.6799   -0.8229    0.0594 C   0  0  0  0  0  0  0  0  0  0  0  0
    1.4285    0.4397   -0.2971 C   0  0  0  0  0  0  0  0  0  0  0  0
    2.8986    0.2760   -0.0334 C   0  0  0  0  0  0  0  0  0  0  0  0
    3.7525   -0.2026   -1.0060 C   0  0  0  0  0  0  0  0  0  0  0  0
    5.1067   -0.3517   -0.7581 C   0  0  0  0  0  0  0  0  0  0  0  0
    5.6598   -0.0311    0.4628 C   0  0  0  0  0  0  0  0  0  0  0  0
    7.0337   -0.1848    0.7068 O   0  0  0  0  0  0  0  0  0  0  0  0
    4.8110    0.4473    1.4373 C   0  0  0  0  0  0  0  0  0  0  0  0
    5.3301    0.7800    2.6764 O   0  0  0  0  0  0  0  0  0  0  0  0
    3.4620    0.5942    1.1856 C   0  0  0  0  0  0  0  0  0  0  0  0
   -0.8164   -0.7028   -0.0705 C   0  0  0  0  0  0  0  0  0  0  0  0
   -1.2377   -0.4741   -1.5132 C   0  0  0  0  0  0  0  0  0  0  0  0
   -1.3542    0.3989    0.7609 C   0  0  0  0  0  0  0  0  0  0  0  0
   -2.8264    0.5539    0.6713 C   0  0  0  0  0  0  0  0  0  0  0  0
   -3.3036    1.3984   -0.3089 C   0  0  0  0  0  0  0  0  0  0  0  0
   -4.6799    1.5997   -0.4601 C   0  0  0  0  0  0  0  0  0  0  0  0
   -5.5572    0.9483    0.3772 C   0  0  0  0  0  0  0  0  0  0  0  0
   -6.9288    1.1178    0.2638 O   0  0  0  0  0  0  0  0  0  0  0  0
   -5.0976    0.1027    1.3600 C   0  0  0  0  0  0  0  0  0  0  0  0
   -5.9910   -0.5410    2.1891 O   0  0  0  0  0  0  0  0  0  0  0  0
   -3.7312   -0.0714    1.4792 C   0  0  0  0  0  0  0  0  0  0  0  0
    0.4720   -2.8388   -0.6485 H   0  0  0  0  0  0  0  0  0  0  0  0
    1.2266   -1.7566   -1.8494 H   0  0  0  0  0  0  0  0  0  0  0  0
    2.1661   -2.2763   -0.3512 H   0  0  0  0  0  0  0  0  0  0  0  0
    0.9098   -1.0857    1.1110 H   0  0  0  0  0  0  0  0  0  0  0  0
    1.0910    1.2754    0.3473 H   0  0  0  0  0  0  0  0  0  0  0  0
    1.2520    0.7517   -1.3456 H   0  0  0  0  0  0  0  0  0  0  0  0
    3.3815   -0.4698   -1.9780 H   0  0  0  0  0  0  0  0  0  0  0  0
    5.7769   -0.7294   -1.5276 H   0  0  0  0  0  0  0  0  0  0  0  0
    7.5096   -0.8564    0.1099 H   0  0  0  0  0  0  0  0  0  0  0  0
    6.1500    1.3259    2.8328 H   0  0  0  0  0  0  0  0  0  0  0  0
    2.7651    0.9736    1.9462 H   0  0  0  0  0  0  0  0  0  0  0  0
   -1.2185   -1.7035    0.1988 H   0  0  0  0  0  0  0  0  0  0  0  0
   -0.8660   -1.2726   -2.1808 H   0  0  0  0  0  0  0  0  0  0  0  0
   -0.9166    0.5366   -1.8386 H   0  0  0  0  0  0  0  0  0  0  0  0
   -2.3378   -0.4930   -1.5644 H   0  0  0  0  0  0  0  0  0  0  0  0
   -1.1286    0.1801    1.8335 H   0  0  0  0  0  0  0  0  0  0  0  0
   -0.8952    1.3676    0.5373 H   0  0  0  0  0  0  0  0  0  0  0  0
   -2.6736    1.9357   -0.9934 H   0  0  0  0  0  0  0  0  0  0  0  0
   -5.0468    2.2648   -1.2326 H   0  0  0  0  0  0  0  0  0  0  0  0
   -7.2936    1.3392   -0.6486 H   0  0  0  0  0  0  0  0  0  0  0  0
   -6.7923   -1.0138    1.7854 H   0  0  0  0  0  0  0  0  0  0  0  0
   -3.3674   -0.7251    2.2384 H   0  0  0  0  0  0  0  0  0  0  0  0
  1  2  1  0
  2  3  1  0
  3  4  1  0
  4  5  2  0
  5  6  1  0
  6  7  2  0
  7  8  1  0
  7  9  1  0
  9 10  1  0
  9 11  2  0
  2 12  1  0
 12 13  1  0
 12 14  1  0
 14 15  1  0
 15 16  2  0
 16 17  1  0
 17 18  2  0
 18 19  1  0
 18 20  1  0
 20 21  1  0
 20 22  2  0
 11  4  1  0
 22 15  1  0
  1 23  1  0
  1 24  1  0
  1 25  1  0
  2 26  1  0
  3 27  1  0
  3 28  1  0
  5 29  1  0
  6 30  1  0
  8 31  1  0
 10 32  1  0
 11 33  1  0
 12 34  1  0
 13 35  1  0
 13 36  1  0
 13 37  1  0
 14 38  1  0
 14 39  1  0
 16 40  1  0
 17 41  1  0
 19 42  1  0
 21 43  1  0
 22 44  1  0
M  END
$$$$
