@<TRIPOS>MOLECULE
*****
 21 20 0 0 0
SMALL
GASTEIGER

@<TRIPOS>ATOM
      1 O          -2.7589    0.0562   -0.5190 O.3     1  UNL1       -0.4805
      2 C          -2.1055   -0.3486    0.6185 C.2     1  UNL1        0.3080
      3 O          -2.9980   -0.6921    1.4146 O.2     1  UNL1       -0.2509
      4 C          -0.6392   -0.3703    0.8467 C.3     1  UNL1        0.0845
      5 C           0.0336    0.1340   -0.3924 C.3     1  UNL1        0.1820
      6 O          -0.3179   -0.7064   -1.4293 O.3     1  UNL1       -0.3765
      7 C           1.5162    0.3132   -0.2383 C.3     1  UNL1        0.0845
      8 C           2.2342   -0.9243    0.1057 C.2     1  UNL1        0.3080
      9 O           2.7160   -1.3024    1.3749 O.3     1  UNL1       -0.4805
     10 O           2.4588   -1.7662   -0.8319 O.2     1  UNL1       -0.2509
     11 C          -0.5273    1.4722   -0.7160 C.2     1  UNL1        0.3379
     12 O          -0.3003    2.4783    0.1859 O.3     1  UNL1       -0.4786
     13 O          -1.1897    1.7992   -1.7226 O.2     1  UNL1       -0.2477
     14 H          -3.5082   -0.3879   -0.9895 H       1  UNL1        0.2951
     15 H          -0.3627   -1.4123    1.0774 H       1  UNL1        0.0412
     16 H          -0.3689    0.3126    1.6901 H       1  UNL1        0.0412
     17 H           0.0673   -1.6145   -1.3376 H       1  UNL1        0.2109
     18 H           1.8908    0.6935   -1.1935 H       1  UNL1        0.0412
     19 H           1.6607    1.1075    0.5213 H       1  UNL1        0.0412
     20 H           2.8596   -2.2898    1.6158 H       1  UNL1        0.2951
     21 H          -0.3607    3.4480   -0.0807 H       1  UNL1        0.2951
@<TRIPOS>BOND
     1     1     2    1
     2     2     3    2
     3     2     4    1
     4     4     5    1
     5     5     6    1
     6     5     7    1
     7     7     8    1
     8     8     9    1
     9     8    10    2
    10     5    11    1
    11    11    12    1
    12    11    13    2
    13     1    14    1
    14     4    15    1
    15     4    16    1
    16     6    17    1
    17     7    18    1
    18     7    19    1
    19     9    20    1
    20    12    21    1
