
     RDKit          3D

 42 44  0  0  0  0  0  0  0  0999 V2000
   -3.2991    0.3599    2.5852 C   0  0  0  0  0  0  0  0  0  0  0  0
   -2.8050    0.1929    1.1580 C   0  0  1  0  0  0  0  0  0  0  0  0
   -2.3251   -1.0703    0.8914 O   0  0  0  0  0  0  0  0  0  0  0  0
   -1.0452   -1.4658    0.5329 C   0  0  0  0  0  0  0  0  0  0  0  0
   -0.7813   -2.8046    0.3099 C   0  0  0  0  0  0  0  0  0  0  0  0
    0.4771   -3.2038   -0.0438 C   0  0  0  0  0  0  0  0  0  0  0  0
    1.5177   -2.3125   -0.1915 C   0  0  0  0  0  0  0  0  0  0  0  0
    2.7574   -2.7007   -0.5394 N   0  0  0  0  0  0  0  0  0  0  0  0
    3.7880   -1.8526   -0.6898 C   0  0  0  0  0  0  0  0  0  0  0  0
    3.5867   -0.5096   -0.4816 C   0  0  0  0  0  0  0  0  0  0  0  0
    4.6588    0.4641   -0.6273 C   0  0  0  0  0  0  0  0  0  0  0  0
    5.8679    0.0886   -0.9662 C   0  0  0  0  0  0  0  0  0  0  0  0
    6.9493    1.0914   -1.1106 C   0  0  0  0  0  0  0  0  0  0  0  0
    6.6048    2.4462   -0.8663 N   0  0  0  0  0  0  0  0  0  0  0  0
    8.0956    0.7347   -1.4320 O   0  0  0  0  0  0  0  0  0  0  0  0
    2.3067   -0.0671   -0.1175 C   0  0  0  0  0  0  0  0  0  0  0  0
    1.2931   -0.9735    0.0219 C   0  0  0  0  0  0  0  0  0  0  0  0
   -0.0018   -0.5825    0.3835 C   0  0  0  0  0  0  0  0  0  0  0  0
   -3.8595    0.6353    0.1851 C   0  0  0  0  0  0  0  0  0  0  0  0
   -3.9340    1.9433   -0.2634 C   0  0  0  0  0  0  0  0  0  0  0  0
   -2.7695    3.1194    0.3158 Cl  0  0  0  0  0  0  0  0  0  0  0  0
   -4.8838    2.3764   -1.1501 C   0  0  0  0  0  0  0  0  0  0  0  0
   -5.8169    1.4875   -1.6301 C   0  0  0  0  0  0  0  0  0  0  0  0
   -5.7817    0.1857   -1.2149 C   0  0  0  0  0  0  0  0  0  0  0  0
   -6.7069   -0.6763   -1.6966 F   0  0  0  0  0  0  0  0  0  0  0  0
   -4.8080   -0.2364   -0.3124 C   0  0  0  0  0  0  0  0  0  0  0  0
   -4.8165   -1.8955    0.1743 Cl  0  0  0  0  0  0  0  0  0  0  0  0
   -3.8447    1.3128    2.6331 H   0  0  0  0  0  0  0  0  0  0  0  0
   -2.3935    0.4511    3.2175 H   0  0  0  0  0  0  0  0  0  0  0  0
   -3.9468   -0.4549    2.9156 H   0  0  0  0  0  0  0  0  0  0  0  0
   -1.9928    0.9333    1.0480 H   0  0  0  0  0  0  0  0  0  0  0  0
   -1.5793   -3.5331    0.4179 H   0  0  0  0  0  0  0  0  0  0  0  0
    0.7097   -4.2704   -0.2269 H   0  0  0  0  0  0  0  0  0  0  0  0
    4.7471   -2.2761   -0.9736 H   0  0  0  0  0  0  0  0  0  0  0  0
    4.4404    1.5083   -0.4504 H   0  0  0  0  0  0  0  0  0  0  0  0
    6.1493   -0.9362   -1.1561 H   0  0  0  0  0  0  0  0  0  0  0  0
    6.7145    2.8254    0.0900 H   0  0  0  0  0  0  0  0  0  0  0  0
    6.2472    3.0264   -1.6665 H   0  0  0  0  0  0  0  0  0  0  0  0
    2.1295    0.9824    0.0500 H   0  0  0  0  0  0  0  0  0  0  0  0
   -0.1373    0.4840    0.5429 H   0  0  0  0  0  0  0  0  0  0  0  0
   -4.9220    3.3852   -1.4806 H   0  0  0  0  0  0  0  0  0  0  0  0
   -6.5902    1.7877   -2.3364 H   0  0  0  0  0  0  0  0  0  0  0  0
  1  2  1  0
  2  3  1  0
  3  4  1  0
  4  5  2  0
  5  6  1  0
  6  7  2  0
  7  8  1  0
  8  9  2  0
  9 10  1  0
 10 11  1  0
 11 12  2  0
 12 13  1  0
 13 14  1  0
 13 15  2  0
 10 16  2  0
 16 17  1  0
 17 18  2  0
  2 19  1  0
 19 20  2  0
 20 21  1  0
 20 22  1  0
 22 23  2  0
 23 24  1  0
 24 25  1  0
 24 26  2  0
 26 27  1  0
 18  4  1  0
 26 19  1  0
 17  7  1  0
  1 28  1  0
  1 29  1  0
  1 30  1  0
  2 31  1  1
  5 32  1  0
  6 33  1  0
  9 34  1  0
 11 35  1  0
 12 36  1  0
 14 37  1  0
 14 38  1  0
 16 39  1  0
 18 40  1  0
 22 41  1  0
 23 42  1  0
M  END
$$$$
