@<TRIPOS>MOLECULE
*****
 42 44 0 0 0
SMALL
GASTEIGER

@<TRIPOS>ATOM
      1 C          -3.2991    0.3599    2.5852 C.3     1  UNL1       -0.0234
      2 C          -2.8050    0.1929    1.1580 C.3     1  UNL1        0.1251
      3 O          -2.3251   -1.0703    0.8914 O.3     1  UNL1       -0.4844
      4 C          -1.0452   -1.4658    0.5329 C.ar    1  UNL1        0.1221
      5 C          -0.7813   -2.8046    0.3099 C.ar    1  UNL1       -0.0179
      6 C           0.4771   -3.2038   -0.0438 C.ar    1  UNL1       -0.0323
      7 C           1.5177   -2.3125   -0.1915 C.ar    1  UNL1        0.0712
      8 N           2.7574   -2.7007   -0.5394 N.ar    1  UNL1       -0.2544
      9 C           3.7880   -1.8526   -0.6898 C.ar    1  UNL1        0.0354
     10 C           3.5867   -0.5096   -0.4816 C.ar    1  UNL1       -0.0062
     11 C           4.6588    0.4641   -0.6273 C.2     1  UNL1       -0.0482
     12 C           5.8679    0.0886   -0.9662 C.2     1  UNL1        0.0005
     13 C           6.9493    1.0914   -1.1106 C.2     1  UNL1        0.2344
     14 N           6.6048    2.4462   -0.8663 N.am    1  UNL1       -0.3258
     15 O           8.0956    0.7347   -1.4320 O.2     1  UNL1       -0.2711
     16 C           2.3067   -0.0671   -0.1175 C.ar    1  UNL1       -0.0438
     17 C           1.2931   -0.9735    0.0219 C.ar    1  UNL1        0.0044
     18 C          -0.0018   -0.5825    0.3835 C.ar    1  UNL1       -0.0107
     19 C          -3.8595    0.6353    0.1851 C.ar    1  UNL1        0.0317
     20 C          -3.9340    1.9433   -0.2634 C.ar    1  UNL1        0.0492
     21 CL         -2.7695    3.1194    0.3158 Cl      1  UNL1       -0.0831
     22 C          -4.8838    2.3764   -1.1501 C.ar    1  UNL1       -0.0402
     23 C          -5.8169    1.4875   -1.6301 C.ar    1  UNL1       -0.0236
     24 C          -5.7817    0.1857   -1.2149 C.ar    1  UNL1        0.1421
     25 F          -6.7069   -0.6763   -1.6966 F       1  UNL1       -0.2039
     26 C          -4.8080   -0.2364   -0.3124 C.ar    1  UNL1        0.0841
     27 CL         -4.8165   -1.8955    0.1743 Cl      1  UNL1       -0.0801
     28 H          -3.8447    1.3128    2.6331 H       1  UNL1        0.0269
     29 H          -2.3935    0.4511    3.2175 H       1  UNL1        0.0269
     30 H          -3.9468   -0.4549    2.9156 H       1  UNL1        0.0269
     31 H          -1.9928    0.9333    1.0480 H       1  UNL1        0.0782
     32 H          -1.5793   -3.5331    0.4179 H       1  UNL1        0.0655
     33 H           0.7097   -4.2704   -0.2269 H       1  UNL1        0.0640
     34 H           4.7471   -2.2761   -0.9736 H       1  UNL1        0.0836
     35 H           4.4404    1.5083   -0.4504 H       1  UNL1        0.0625
     36 H           6.1493   -0.9362   -1.1561 H       1  UNL1        0.0669
     37 H           6.7145    2.8254    0.0900 H       1  UNL1        0.1452
     38 H           6.2472    3.0264   -1.6665 H       1  UNL1        0.1452
     39 H           2.1295    0.9824    0.0500 H       1  UNL1        0.0630
     40 H          -0.1373    0.4840    0.5429 H       1  UNL1        0.0661
     41 H          -4.9220    3.3852   -1.4806 H       1  UNL1        0.0633
     42 H          -6.5902    1.7877   -2.3364 H       1  UNL1        0.0647
@<TRIPOS>BOND
     1     1     2    1
     2     2     3    1
     3     3     4    1
     4     4     5   ar
     5     5     6   ar
     6     6     7   ar
     7     7     8   ar
     8     8     9   ar
     9     9    10   ar
    10    10    11    1
    11    11    12    2
    12    12    13    1
    13    13    14   am
    14    13    15    2
    15    10    16   ar
    16    16    17   ar
    17    17    18   ar
    18     2    19    1
    19    19    20   ar
    20    20    21    1
    21    20    22   ar
    22    22    23   ar
    23    23    24   ar
    24    24    25    1
    25    24    26   ar
    26    26    27    1
    27    18     4   ar
    28    26    19   ar
    29    17     7   ar
    30     1    28    1
    31     1    29    1
    32     1    30    1
    33     2    31    1
    34     5    32    1
    35     6    33    1
    36     9    34    1
    37    11    35    1
    38    12    36    1
    39    14    37    1
    40    14    38    1
    41    16    39    1
    42    18    40    1
    43    22    41    1
    44    23    42    1
