@<TRIPOS>MOLECULE
*****
 57 60 0 0 0
SMALL
GASTEIGER

@<TRIPOS>ATOM
      1 C           6.0584    2.9008    2.2620 C.3     1  UNL1        0.0121
      2 C           5.7107    1.8815    1.2324 C.2     1  UNL1        0.2099
      3 O           6.4388    0.8585    1.1560 O.2     1  UNL1       -0.2761
      4 N           4.6011    2.0261    0.3491 N.am    1  UNL1       -0.3152
      5 C           4.2608    1.0230   -0.6580 C.3     1  UNL1        0.0156
      6 C           3.9521   -0.2914   -0.0214 C.3     1  UNL1       -0.0114
      7 C           3.5978   -1.3059   -1.0386 C.ar    1  UNL1       -0.0366
      8 C           4.6366   -2.0996   -1.4964 C.ar    1  UNL1       -0.0579
      9 C           4.3807   -3.0334   -2.4637 C.ar    1  UNL1       -0.0615
     10 C           3.0994   -3.1750   -2.9707 C.ar    1  UNL1       -0.0611
     11 C           2.0822   -2.3794   -2.5039 C.ar    1  UNL1       -0.0522
     12 C           2.3171   -1.4122   -1.5098 C.ar    1  UNL1        0.0080
     13 C           1.1681   -0.6454   -1.0497 C.ar    1  UNL1        0.1278
     14 N           0.9500    0.6668   -0.9851 N.ar    1  UNL1       -0.0769
     15 O          -0.2450    0.9172   -0.4921 O.2     1  UNL1       -0.3575
     16 C          -0.8529   -0.2181   -0.2159 C.ar    1  UNL1        0.1591
     17 C          -2.2026   -0.4682    0.3529 C.3     1  UNL1        0.0663
     18 C          -2.0584   -0.4855    1.8602 C.3     1  UNL1        0.0087
     19 N          -1.4784    0.7859    2.2466 N.3     1  UNL1       -0.3151
     20 C          -2.5277    1.7744    2.0192 C.3     1  UNL1       -0.0011
     21 C          -2.8550    1.9027    0.5588 C.3     1  UNL1       -0.0065
     22 C          -3.1237    0.6261   -0.1402 C.3     1  UNL1        0.1031
     23 O          -2.8076    0.8256   -1.5049 O.3     1  UNL1       -0.3832
     24 C          -4.5318    0.1619   -0.1088 C.ar    1  UNL1       -0.0125
     25 C          -5.4891    0.8801    0.5660 C.ar    1  UNL1       -0.0529
     26 C          -6.7922    0.3705    0.5484 C.ar    1  UNL1       -0.0232
     27 C          -7.0976   -0.7993   -0.1168 C.ar    1  UNL1        0.1584
     28 F          -8.3853   -1.2676   -0.1108 F       1  UNL1       -0.2025
     29 C          -6.1193   -1.5007   -0.7857 C.ar    1  UNL1        0.1587
     30 F          -6.4468   -2.6526   -1.4334 F       1  UNL1       -0.2025
     31 C          -4.8187   -1.0022   -0.7747 C.ar    1  UNL1       -0.0177
     32 C          -0.0003   -1.2374   -0.5508 C.ar    1  UNL1        0.0879
     33 BR         -0.3138   -3.0879   -0.3804 Br      1  UNL1       -0.0444
     34 H           7.1352    3.1767    2.0651 H       1  UNL1        0.0322
     35 H           5.9886    2.4303    3.2787 H       1  UNL1        0.0322
     36 H           5.3919    3.7564    2.1312 H       1  UNL1        0.0322
     37 H           4.0362    2.9106    0.4697 H       1  UNL1        0.1487
     38 H           3.4723    1.4206   -1.2925 H       1  UNL1        0.0465
     39 H           5.1393    0.8731   -1.3484 H       1  UNL1        0.0465
     40 H           4.7592   -0.6484    0.6524 H       1  UNL1        0.0328
     41 H           3.0834   -0.1009    0.6743 H       1  UNL1        0.0328
     42 H           5.6455   -2.0129   -1.1223 H       1  UNL1        0.0620
     43 H           5.1584   -3.6863   -2.8617 H       1  UNL1        0.0618
     44 H           2.9209   -3.9321   -3.7469 H       1  UNL1        0.0618
     45 H           1.0681   -2.4846   -2.8987 H       1  UNL1        0.0624
     46 H          -2.5540   -1.4730    0.0049 H       1  UNL1        0.0425
     47 H          -3.0470   -0.6428    2.3573 H       1  UNL1        0.0432
     48 H          -1.3626   -1.3217    2.0949 H       1  UNL1        0.0432
     49 H          -1.2396    0.8076    3.2622 H       1  UNL1        0.1220
     50 H          -3.3957    1.4798    2.6219 H       1  UNL1        0.0425
     51 H          -2.1225    2.7475    2.3639 H       1  UNL1        0.0425
     52 H          -3.6239    2.6868    0.4506 H       1  UNL1        0.0309
     53 H          -1.9344    2.3679    0.0914 H       1  UNL1        0.0309
     54 H          -2.6873   -0.0509   -1.9636 H       1  UNL1        0.2106
     55 H          -5.2935    1.8024    1.1040 H       1  UNL1        0.0622
     56 H          -7.5459    0.9544    1.0913 H       1  UNL1        0.0647
     57 H          -4.1002   -1.5998   -1.3194 H       1  UNL1        0.0651
@<TRIPOS>BOND
     1     1     2    1
     2     2     3    2
     3     2     4   am
     4     4     5    1
     5     5     6    1
     6     6     7    1
     7     7     8   ar
     8     8     9   ar
     9     9    10   ar
    10    10    11   ar
    11    11    12   ar
    12    12    13    1
    13    13    14   ar
    14    14    15   ar
    15    15    16   ar
    16    16    17    1
    17    17    18    1
    18    18    19    1
    19    19    20    1
    20    20    21    1
    21    21    22    1
    22    22    23    1
    23    22    24    1
    24    24    25   ar
    25    25    26   ar
    26    26    27   ar
    27    27    28    1
    28    27    29   ar
    29    29    30    1
    30    29    31   ar
    31    16    32   ar
    32    32    33    1
    33    12     7   ar
    34    32    13   ar
    35    22    17    1
    36    31    24   ar
    37     1    34    1
    38     1    35    1
    39     1    36    1
    40     4    37    1
    41     5    38    1
    42     5    39    1
    43     6    40    1
    44     6    41    1
    45     8    42    1
    46     9    43    1
    47    10    44    1
    48    11    45    1
    49    17    46    1
    50    18    47    1
    51    18    48    1
    52    19    49    1
    53    20    50    1
    54    20    51    1
    55    21    52    1
    56    21    53    1
    57    23    54    1
    58    25    55    1
    59    26    56    1
    60    31    57    1
