@<TRIPOS>MOLECULE
*****
 59 62 0 0 0
SMALL
GASTEIGER

@<TRIPOS>ATOM
      1 C          -8.0384   -1.3922   -0.2379 C.3     1  UNL1       -0.0223
      2 C          -6.9038   -0.4192   -0.1601 C.ar    1  UNL1        0.0393
      3 C          -5.6182   -0.8586   -0.3547 C.ar    1  UNL1       -0.0337
      4 C          -4.5421    0.0321   -0.2867 C.ar    1  UNL1        0.0004
      5 C          -3.1529   -0.4136   -0.4924 C.3     1  UNL1        0.1153
      6 O          -2.4285   -0.5116    0.7090 O.3     1  UNL1       -0.4874
      7 C          -1.1163   -0.9154    0.6899 C.ar    1  UNL1        0.1210
      8 C          -0.5057   -1.2254   -0.5032 C.ar    1  UNL1       -0.0196
      9 C           0.7951   -1.6344   -0.6064 C.ar    1  UNL1       -0.0541
     10 C           1.5573   -1.7479    0.5552 C.ar    1  UNL1       -0.0324
     11 C           2.9408   -2.1902    0.4502 C.3     1  UNL1        0.0706
     12 C           3.0021   -3.6686    0.2370 C.3     1  UNL1       -0.0471
     13 C           3.7822   -1.7113    1.5933 C.3     1  UNL1       -0.0193
     14 C           3.9591   -0.2384    1.1802 C.3     1  UNL1        0.0167
     15 N           4.3728   -0.4005   -0.2008 N.am    1  UNL1       -0.2894
     16 C           5.3520    0.4350   -0.8661 C.3     1  UNL1        0.1013
     17 C           6.6854    0.3589   -0.1288 C.3     1  UNL1       -0.0378
     18 C           4.8732    1.8278   -0.8676 C.2     1  UNL1        0.2557
     19 O           3.7851    2.1277   -0.3520 O.2     1  UNL1       -0.2717
     20 N           5.6648    2.8460   -1.4665 N.am    1  UNL1       -0.1960
     21 O           5.2412    4.1088   -1.4732 O.3     1  UNL1       -0.2951
     22 C           3.6378   -1.5016   -0.7132 C.2     1  UNL1        0.2265
     23 O           3.5749   -1.8434   -1.9069 O.2     1  UNL1       -0.2746
     24 C           0.9716   -1.4458    1.7481 C.ar    1  UNL1       -0.0541
     25 C          -0.3546   -1.0318    1.8244 C.ar    1  UNL1       -0.0196
     26 C          -4.7692    1.3766   -0.0196 C.ar    1  UNL1        0.0068
     27 C          -3.7379    2.2886    0.0564 C.ar    1  UNL1       -0.0522
     28 C          -3.9846    3.6198    0.3227 C.ar    1  UNL1       -0.0611
     29 C          -5.2831    4.0464    0.5162 C.ar    1  UNL1       -0.0597
     30 C          -6.2947    3.1157    0.4351 C.ar    1  UNL1       -0.0357
     31 C          -6.0810    1.7762    0.1702 C.ar    1  UNL1        0.0716
     32 N          -7.0911    0.8873    0.0965 N.ar    1  UNL1       -0.2519
     33 H          -7.8480   -2.0765   -1.1025 H       1  UNL1        0.0292
     34 H          -8.9776   -0.8538   -0.4911 H       1  UNL1        0.0292
     35 H          -8.2110   -1.9234    0.7003 H       1  UNL1        0.0292
     36 H          -5.4064   -1.8957   -0.5639 H       1  UNL1        0.0639
     37 H          -3.1868   -1.4214   -0.9893 H       1  UNL1        0.0748
     38 H          -2.6528    0.2556   -1.2162 H       1  UNL1        0.0748
     39 H          -1.0786   -1.1439   -1.4163 H       1  UNL1        0.0654
     40 H           1.2784   -1.8784   -1.5322 H       1  UNL1        0.0622
     41 H           3.9267   -3.9516   -0.3238 H       1  UNL1        0.0243
     42 H           2.0918   -4.0005   -0.3118 H       1  UNL1        0.0243
     43 H           2.9956   -4.1527    1.2370 H       1  UNL1        0.0243
     44 H           4.7823   -2.2240    1.5488 H       1  UNL1        0.0293
     45 H           3.3721   -1.7796    2.5867 H       1  UNL1        0.0293
     46 H           2.9418    0.1907    1.2041 H       1  UNL1        0.0465
     47 H           4.6888    0.2727    1.8036 H       1  UNL1        0.0465
     48 H           5.4906    0.1071   -1.9119 H       1  UNL1        0.0594
     49 H           7.3019   -0.4076   -0.6562 H       1  UNL1        0.0252
     50 H           7.2371    1.3074   -0.1738 H       1  UNL1        0.0252
     51 H           6.5454   -0.0129    0.9163 H       1  UNL1        0.0252
     52 H           6.5817    2.6089   -1.9040 H       1  UNL1        0.1823
     53 H           5.8644    4.7467   -1.0350 H       1  UNL1        0.2414
     54 H           1.4950   -1.5145    2.6823 H       1  UNL1        0.0622
     55 H          -0.7970   -0.7960    2.7974 H       1  UNL1        0.0654
     56 H          -2.7187    1.9665   -0.0931 H       1  UNL1        0.0624
     57 H          -3.1987    4.3613    0.3890 H       1  UNL1        0.0618
     58 H          -5.4783    5.1019    0.7269 H       1  UNL1        0.0618
     59 H          -7.3332    3.4163    0.5824 H       1  UNL1        0.0639
@<TRIPOS>BOND
     1     1     2    1
     2     2     3   ar
     3     3     4   ar
     4     4     5    1
     5     5     6    1
     6     6     7    1
     7     7     8   ar
     8     8     9   ar
     9     9    10   ar
    10    10    11    1
    11    11    12    1
    12    11    13    1
    13    13    14    1
    14    14    15    1
    15    15    16    1
    16    16    17    1
    17    16    18    1
    18    18    19    2
    19    18    20   am
    20    20    21    1
    21    15    22   am
    22    22    23    2
    23    10    24   ar
    24    24    25   ar
    25     4    26   ar
    26    26    27   ar
    27    27    28   ar
    28    28    29   ar
    29    29    30   ar
    30    30    31   ar
    31    31    32   ar
    32    32     2   ar
    33    25     7   ar
    34    31    26   ar
    35    22    11    1
    36     1    33    1
    37     1    34    1
    38     1    35    1
    39     3    36    1
    40     5    37    1
    41     5    38    1
    42     8    39    1
    43     9    40    1
    44    12    41    1
    45    12    42    1
    46    12    43    1
    47    13    44    1
    48    13    45    1
    49    14    46    1
    50    14    47    1
    51    16    48    1
    52    17    49    1
    53    17    50    1
    54    17    51    1
    55    20    52    1
    56    21    53    1
    57    24    54    1
    58    25    55    1
    59    27    56    1
    60    28    57    1
    61    29    58    1
    62    30    59    1
