
     RDKit          3D

 59 62  0  0  0  0  0  0  0  0999 V2000
   -8.0384   -1.3922   -0.2379 C   0  0  0  0  0  0  0  0  0  0  0  0
   -6.9038   -0.4192   -0.1601 C   0  0  0  0  0  0  0  0  0  0  0  0
   -5.6182   -0.8586   -0.3547 C   0  0  0  0  0  0  0  0  0  0  0  0
   -4.5421    0.0321   -0.2867 C   0  0  0  0  0  0  0  0  0  0  0  0
   -3.1529   -0.4136   -0.4924 C   0  0  0  0  0  0  0  0  0  0  0  0
   -2.4285   -0.5116    0.7090 O   0  0  0  0  0  0  0  0  0  0  0  0
   -1.1163   -0.9154    0.6899 C   0  0  0  0  0  0  0  0  0  0  0  0
   -0.5057   -1.2254   -0.5032 C   0  0  0  0  0  0  0  0  0  0  0  0
    0.7951   -1.6344   -0.6064 C   0  0  0  0  0  0  0  0  0  0  0  0
    1.5573   -1.7479    0.5552 C   0  0  0  0  0  0  0  0  0  0  0  0
    2.9408   -2.1902    0.4502 C   0  0  2  0  0  0  0  0  0  0  0  0
    3.0021   -3.6686    0.2370 C   0  0  0  0  0  0  0  0  0  0  0  0
    3.7822   -1.7113    1.5933 C   0  0  0  0  0  0  0  0  0  0  0  0
    3.9591   -0.2384    1.1802 C   0  0  0  0  0  0  0  0  0  0  0  0
    4.3728   -0.4005   -0.2008 N   0  0  0  0  0  0  0  0  0  0  0  0
    5.3520    0.4350   -0.8661 C   0  0  2  0  0  0  0  0  0  0  0  0
    6.6854    0.3589   -0.1288 C   0  0  0  0  0  0  0  0  0  0  0  0
    4.8732    1.8278   -0.8676 C   0  0  0  0  0  0  0  0  0  0  0  0
    3.7851    2.1277   -0.3520 O   0  0  0  0  0  0  0  0  0  0  0  0
    5.6648    2.8460   -1.4665 N   0  0  0  0  0  0  0  0  0  0  0  0
    5.2412    4.1088   -1.4732 O   0  0  0  0  0  0  0  0  0  0  0  0
    3.6378   -1.5016   -0.7132 C   0  0  0  0  0  0  0  0  0  0  0  0
    3.5749   -1.8434   -1.9069 O   0  0  0  0  0  0  0  0  0  0  0  0
    0.9716   -1.4458    1.7481 C   0  0  0  0  0  0  0  0  0  0  0  0
   -0.3546   -1.0318    1.8244 C   0  0  0  0  0  0  0  0  0  0  0  0
   -4.7692    1.3766   -0.0196 C   0  0  0  0  0  0  0  0  0  0  0  0
   -3.7379    2.2886    0.0564 C   0  0  0  0  0  0  0  0  0  0  0  0
   -3.9846    3.6198    0.3227 C   0  0  0  0  0  0  0  0  0  0  0  0
   -5.2831    4.0464    0.5162 C   0  0  0  0  0  0  0  0  0  0  0  0
   -6.2947    3.1157    0.4351 C   0  0  0  0  0  0  0  0  0  0  0  0
   -6.0810    1.7762    0.1702 C   0  0  0  0  0  0  0  0  0  0  0  0
   -7.0911    0.8873    0.0965 N   0  0  0  0  0  0  0  0  0  0  0  0
   -7.8480   -2.0765   -1.1025 H   0  0  0  0  0  0  0  0  0  0  0  0
   -8.9776   -0.8538   -0.4911 H   0  0  0  0  0  0  0  0  0  0  0  0
   -8.2110   -1.9234    0.7003 H   0  0  0  0  0  0  0  0  0  0  0  0
   -5.4064   -1.8957   -0.5639 H   0  0  0  0  0  0  0  0  0  0  0  0
   -3.1868   -1.4214   -0.9893 H   0  0  0  0  0  0  0  0  0  0  0  0
   -2.6528    0.2556   -1.2162 H   0  0  0  0  0  0  0  0  0  0  0  0
   -1.0786   -1.1439   -1.4163 H   0  0  0  0  0  0  0  0  0  0  0  0
    1.2784   -1.8784   -1.5322 H   0  0  0  0  0  0  0  0  0  0  0  0
    3.9267   -3.9516   -0.3238 H   0  0  0  0  0  0  0  0  0  0  0  0
    2.0918   -4.0005   -0.3118 H   0  0  0  0  0  0  0  0  0  0  0  0
    2.9956   -4.1527    1.2370 H   0  0  0  0  0  0  0  0  0  0  0  0
    4.7823   -2.2240    1.5488 H   0  0  0  0  0  0  0  0  0  0  0  0
    3.3721   -1.7796    2.5867 H   0  0  0  0  0  0  0  0  0  0  0  0
    2.9418    0.1907    1.2041 H   0  0  0  0  0  0  0  0  0  0  0  0
    4.6888    0.2727    1.8036 H   0  0  0  0  0  0  0  0  0  0  0  0
    5.4906    0.1071   -1.9119 H   0  0  0  0  0  0  0  0  0  0  0  0
    7.3019   -0.4076   -0.6562 H   0  0  0  0  0  0  0  0  0  0  0  0
    7.2371    1.3074   -0.1738 H   0  0  0  0  0  0  0  0  0  0  0  0
    6.5454   -0.0129    0.9163 H   0  0  0  0  0  0  0  0  0  0  0  0
    6.5817    2.6089   -1.9040 H   0  0  0  0  0  0  0  0  0  0  0  0
    5.8644    4.7467   -1.0350 H   0  0  0  0  0  0  0  0  0  0  0  0
    1.4950   -1.5145    2.6823 H   0  0  0  0  0  0  0  0  0  0  0  0
   -0.7970   -0.7960    2.7974 H   0  0  0  0  0  0  0  0  0  0  0  0
   -2.7187    1.9665   -0.0931 H   0  0  0  0  0  0  0  0  0  0  0  0
   -3.1987    4.3613    0.3890 H   0  0  0  0  0  0  0  0  0  0  0  0
   -5.4783    5.1019    0.7269 H   0  0  0  0  0  0  0  0  0  0  0  0
   -7.3332    3.4163    0.5824 H   0  0  0  0  0  0  0  0  0  0  0  0
  1  2  1  0
  2  3  2  0
  3  4  1  0
  4  5  1  0
  5  6  1  0
  6  7  1  0
  7  8  2  0
  8  9  1  0
  9 10  2  0
 10 11  1  0
 11 12  1  6
 11 13  1  0
 13 14  1  0
 14 15  1  0
 15 16  1  0
 16 17  1  0
 16 18  1  0
 18 19  2  0
 18 20  1  0
 20 21  1  0
 15 22  1  0
 22 23  2  0
 10 24  1  0
 24 25  2  0
  4 26  2  0
 26 27  1  0
 27 28  2  0
 28 29  1  0
 29 30  2  0
 30 31  1  0
 31 32  2  0
 32  2  1  0
 25  7  1  0
 31 26  1  0
 22 11  1  0
  1 33  1  0
  1 34  1  0
  1 35  1  0
  3 36  1  0
  5 37  1  0
  5 38  1  0
  8 39  1  0
  9 40  1  0
 12 41  1  0
 12 42  1  0
 12 43  1  0
 13 44  1  0
 13 45  1  0
 14 46  1  0
 14 47  1  0
 16 48  1  6
 17 49  1  0
 17 50  1  0
 17 51  1  0
 20 52  1  0
 21 53  1  0
 24 54  1  0
 25 55  1  0
 27 56  1  0
 28 57  1  0
 29 58  1  0
 30 59  1  0
M  END
$$$$
