@<TRIPOS>MOLECULE
*****
 92 97 0 0 0
SMALL
GASTEIGER

@<TRIPOS>ATOM
      1 C         -10.4535    0.7909    1.5654 C.3     1  UNL1        0.0790
      2 O          -9.4419   -0.1072    1.1317 O.3     1  UNL1       -0.4914
      3 C          -8.2675    0.3888    0.5918 C.ar    1  UNL1        0.1618
      4 C          -8.0421    1.7350    0.4591 C.ar    1  UNL1       -0.0160
      5 C          -6.8460    2.2112   -0.0900 C.ar    1  UNL1       -0.0534
      6 C          -5.8498    1.3510   -0.5180 C.ar    1  UNL1       -0.0255
      7 C          -6.1228    0.0001   -0.3643 C.ar    1  UNL1        0.0158
      8 C          -7.2830   -0.4802    0.1691 C.ar    1  UNL1        0.1667
      9 O          -7.2349   -1.8552    0.1802 O.3     1  UNL1       -0.4836
     10 C          -5.8937   -2.2933   -0.0053 C.3     1  UNL1        0.1161
     11 C          -5.8585   -3.6098   -0.6898 C.3     1  UNL1        0.0151
     12 C          -4.6843   -3.6966   -1.6324 C.3     1  UNL1        0.0768
     13 O          -4.6197   -4.9359   -2.2669 O.3     1  UNL1       -0.3876
     14 C          -4.9248   -2.6050   -2.6562 C.2     1  UNL1       -0.0588
     15 C          -5.2018   -1.3751   -2.1810 C.2     1  UNL1       -0.0715
     16 C          -5.2577   -1.1467   -0.7278 C.3     1  UNL1        0.0558
     17 C          -3.8533   -0.9604   -0.1490 C.3     1  UNL1       -0.0235
     18 C          -3.7649    0.4385    0.4812 C.3     1  UNL1        0.0004
     19 N          -3.4820    1.3600   -0.5668 N.3     1  UNL1       -0.2981
     20 C          -2.3851    2.2713   -0.2967 C.3     1  UNL1       -0.0008
     21 C          -1.1153    1.4605   -0.2687 C.3     1  UNL1       -0.0402
     22 C           0.1299    2.2819   -0.0096 C.3     1  UNL1       -0.0519
     23 C           0.0334    3.0087    1.3270 C.3     1  UNL1       -0.0530
     24 C          -0.1355    2.0422    2.4333 C.3     1  UNL1       -0.0530
     25 C           0.9353    1.0680    2.6719 C.3     1  UNL1       -0.0500
     26 C           2.2626    1.5098    3.1338 C.3     1  UNL1       -0.0186
     27 C           3.0849    2.4276    2.3251 C.3     1  UNL1        0.0896
     28 O           3.4126    2.0237    1.0684 O.3     1  UNL1       -0.4920
     29 C           4.2004    0.9822    0.6817 C.ar    1  UNL1        0.1205
     30 C           4.8895    0.1074    1.4652 C.ar    1  UNL1       -0.0196
     31 C           5.6745   -0.9444    0.9927 C.ar    1  UNL1       -0.0539
     32 C           5.7639   -1.1141   -0.3622 C.ar    1  UNL1       -0.0331
     33 C           6.5695   -2.2003   -0.9203 C.3     1  UNL1        0.0240
     34 N           7.9245   -1.7965   -1.1651 N.3     1  UNL1       -0.2982
     35 C           8.0141   -0.7050   -2.1176 C.3     1  UNL1       -0.0008
     36 C           9.4843   -0.4562   -2.3725 C.3     1  UNL1       -0.0402
     37 C          10.3372   -1.5792   -1.7847 C.3     1  UNL1       -0.0507
     38 C          10.1567   -1.6990   -0.3038 C.3     1  UNL1       -0.0402
     39 C           8.6886   -1.5412    0.0179 C.3     1  UNL1       -0.0008
     40 C           5.0894   -0.2586   -1.2164 C.ar    1  UNL1       -0.0539
     41 C           4.3319    0.7572   -0.7136 C.ar    1  UNL1       -0.0196
     42 C          -4.6497    2.0328   -1.0608 C.3     1  UNL1        0.0244
     43 H         -10.7313    1.4344    0.7283 H       1  UNL1        0.0660
     44 H         -11.3266    0.2272    1.9620 H       1  UNL1        0.0660
     45 H         -10.0549    1.4229    2.4112 H       1  UNL1        0.0660
     46 H          -8.8240    2.4023    0.7951 H       1  UNL1        0.0655
     47 H          -6.7143    3.2744   -0.1735 H       1  UNL1        0.0622
     48 H          -5.3849   -2.4146    0.9874 H       1  UNL1        0.0746
     49 H          -5.7789   -4.4133    0.0936 H       1  UNL1        0.0329
     50 H          -6.7975   -3.7370   -1.2779 H       1  UNL1        0.0329
     51 H          -3.7284   -3.5383   -1.0999 H       1  UNL1        0.0639
     52 H          -5.3995   -4.9672   -2.8796 H       1  UNL1        0.2102
     53 H          -4.8699   -2.8352   -3.6828 H       1  UNL1        0.0595
     54 H          -5.3762   -0.5882   -2.8761 H       1  UNL1        0.0580
     55 H          -3.6535   -1.6770    0.6476 H       1  UNL1        0.0290
     56 H          -3.1290   -1.0892   -0.9631 H       1  UNL1        0.0290
     57 H          -4.7335    0.6567    0.9532 H       1  UNL1        0.0427
     58 H          -2.9722    0.3747    1.2631 H       1  UNL1        0.0427
     59 H          -2.5801    2.7764    0.6947 H       1  UNL1        0.0427
     60 H          -2.3843    3.0219   -1.0847 H       1  UNL1        0.0427
     61 H          -1.0094    1.0270   -1.3074 H       1  UNL1        0.0278
     62 H          -1.1738    0.6248    0.4238 H       1  UNL1        0.0278
     63 H           0.3062    3.0224   -0.8055 H       1  UNL1        0.0266
     64 H           0.9645    1.5734    0.0625 H       1  UNL1        0.0266
     65 H           0.9348    3.6304    1.3881 H       1  UNL1        0.0265
     66 H          -0.8793    3.6573    1.2315 H       1  UNL1        0.0265
     67 H          -1.0934    1.4465    2.2889 H       1  UNL1        0.0265
     68 H          -0.3790    2.5917    3.4074 H       1  UNL1        0.0265
     69 H           0.6083    0.2593    3.4191 H       1  UNL1        0.0266
     70 H           1.0837    0.4195    1.7396 H       1  UNL1        0.0266
     71 H           2.8551    0.5732    3.3560 H       1  UNL1        0.0298
     72 H           2.1194    1.9196    4.1946 H       1  UNL1        0.0298
     73 H           4.1266    2.4024    2.8945 H       1  UNL1        0.0696
     74 H           2.8674    3.5200    2.4601 H       1  UNL1        0.0696
     75 H           4.8592    0.2413    2.5473 H       1  UNL1        0.0654
     76 H           6.1995   -1.6114    1.6472 H       1  UNL1        0.0622
     77 H           6.5898   -3.0241   -0.1694 H       1  UNL1        0.0476
     78 H           6.1365   -2.6142   -1.8547 H       1  UNL1        0.0476
     79 H           7.4940   -0.9920   -3.0712 H       1  UNL1        0.0427
     80 H           7.5611    0.2278   -1.7766 H       1  UNL1        0.0427
     81 H           9.8091    0.5186   -1.9524 H       1  UNL1        0.0278
     82 H           9.6498   -0.4952   -3.4660 H       1  UNL1        0.0278
     83 H          11.3958   -1.3126   -1.9813 H       1  UNL1        0.0266
     84 H          10.0144   -2.5092   -2.2896 H       1  UNL1        0.0266
     85 H          10.4474   -2.7406    0.0177 H       1  UNL1        0.0278
     86 H          10.7825   -0.9765    0.2651 H       1  UNL1        0.0278
     87 H           8.3798   -2.2018    0.8545 H       1  UNL1        0.0427
     88 H           8.5729   -0.4796    0.3779 H       1  UNL1        0.0427
     89 H           5.1933   -0.4359   -2.2935 H       1  UNL1        0.0622
     90 H           3.8107    1.4181   -1.3899 H       1  UNL1        0.0654
     91 H          -4.7160    1.9969   -2.1720 H       1  UNL1        0.0476
     92 H          -4.6873    3.1030   -0.7971 H       1  UNL1        0.0476
@<TRIPOS>BOND
     1     1     2    1
     2     2     3    1
     3     3     4   ar
     4     4     5   ar
     5     5     6   ar
     6     6     7   ar
     7     7     8   ar
     8     8     9    1
     9     9    10    1
    10    10    11    1
    11    11    12    1
    12    12    13    1
    13    12    14    1
    14    14    15    2
    15    15    16    1
    16    16    17    1
    17    17    18    1
    18    18    19    1
    19    19    20    1
    20    20    21    1
    21    21    22    1
    22    22    23    1
    23    23    24    1
    24    24    25    1
    25    25    26    1
    26    26    27    1
    27    27    28    1
    28    28    29    1
    29    29    30   ar
    30    30    31   ar
    31    31    32   ar
    32    32    33    1
    33    33    34    1
    34    34    35    1
    35    35    36    1
    36    36    37    1
    37    37    38    1
    38    38    39    1
    39    32    40   ar
    40    40    41   ar
    41    19    42    1
    42     8     3   ar
    43    16    10    1
    44    41    29   ar
    45    42     6    1
    46    16     7    1
    47    39    34    1
    48     1    43    1
    49     1    44    1
    50     1    45    1
    51     4    46    1
    52     5    47    1
    53    10    48    1
    54    11    49    1
    55    11    50    1
    56    12    51    1
    57    13    52    1
    58    14    53    1
    59    15    54    1
    60    17    55    1
    61    17    56    1
    62    18    57    1
    63    18    58    1
    64    20    59    1
    65    20    60    1
    66    21    61    1
    67    21    62    1
    68    22    63    1
    69    22    64    1
    70    23    65    1
    71    23    66    1
    72    24    67    1
    73    24    68    1
    74    25    69    1
    75    25    70    1
    76    26    71    1
    77    26    72    1
    78    27    73    1
    79    27    74    1
    80    30    75    1
    81    31    76    1
    82    33    77    1
    83    33    78    1
    84    35    79    1
    85    35    80    1
    86    36    81    1
    87    36    82    1
    88    37    83    1
    89    37    84    1
    90    38    85    1
    91    38    86    1
    92    39    87    1
    93    39    88    1
    94    40    89    1
    95    41    90    1
    96    42    91    1
    97    42    92    1
