
     RDKit          3D

 92 97  0  0  0  0  0  0  0  0999 V2000
  -10.4535    0.7909    1.5654 C   0  0  0  0  0  0  0  0  0  0  0  0
   -9.4419   -0.1072    1.1317 O   0  0  0  0  0  0  0  0  0  0  0  0
   -8.2675    0.3888    0.5918 C   0  0  0  0  0  0  0  0  0  0  0  0
   -8.0421    1.7350    0.4591 C   0  0  0  0  0  0  0  0  0  0  0  0
   -6.8460    2.2112   -0.0900 C   0  0  0  0  0  0  0  0  0  0  0  0
   -5.8498    1.3510   -0.5180 C   0  0  0  0  0  0  0  0  0  0  0  0
   -6.1228    0.0001   -0.3643 C   0  0  0  0  0  0  0  0  0  0  0  0
   -7.2830   -0.4802    0.1691 C   0  0  0  0  0  0  0  0  0  0  0  0
   -7.2349   -1.8552    0.1802 O   0  0  0  0  0  0  0  0  0  0  0  0
   -5.8937   -2.2933   -0.0053 C   0  0  1  0  0  0  0  0  0  0  0  0
   -5.8585   -3.6098   -0.6898 C   0  0  0  0  0  0  0  0  0  0  0  0
   -4.6843   -3.6966   -1.6324 C   0  0  1  0  0  0  0  0  0  0  0  0
   -4.6197   -4.9359   -2.2669 O   0  0  0  0  0  0  0  0  0  0  0  0
   -4.9248   -2.6050   -2.6562 C   0  0  0  0  0  0  0  0  0  0  0  0
   -5.2018   -1.3751   -2.1810 C   0  0  0  0  0  0  0  0  0  0  0  0
   -5.2577   -1.1467   -0.7278 C   0  0  1  0  0  0  0  0  0  0  0  0
   -3.8533   -0.9604   -0.1490 C   0  0  0  0  0  0  0  0  0  0  0  0
   -3.7649    0.4385    0.4812 C   0  0  0  0  0  0  0  0  0  0  0  0
   -3.4820    1.3600   -0.5668 N   0  0  0  0  0  0  0  0  0  0  0  0
   -2.3851    2.2713   -0.2967 C   0  0  0  0  0  0  0  0  0  0  0  0
   -1.1153    1.4605   -0.2687 C   0  0  0  0  0  0  0  0  0  0  0  0
    0.1299    2.2819   -0.0096 C   0  0  0  0  0  0  0  0  0  0  0  0
    0.0334    3.0087    1.3270 C   0  0  0  0  0  0  0  0  0  0  0  0
   -0.1355    2.0422    2.4333 C   0  0  0  0  0  0  0  0  0  0  0  0
    0.9353    1.0680    2.6719 C   0  0  0  0  0  0  0  0  0  0  0  0
    2.2626    1.5098    3.1338 C   0  0  0  0  0  0  0  0  0  0  0  0
    3.0849    2.4276    2.3251 C   0  0  0  0  0  0  0  0  0  0  0  0
    3.4126    2.0237    1.0684 O   0  0  0  0  0  0  0  0  0  0  0  0
    4.2004    0.9822    0.6817 C   0  0  0  0  0  0  0  0  0  0  0  0
    4.8895    0.1074    1.4652 C   0  0  0  0  0  0  0  0  0  0  0  0
    5.6745   -0.9444    0.9927 C   0  0  0  0  0  0  0  0  0  0  0  0
    5.7639   -1.1141   -0.3622 C   0  0  0  0  0  0  0  0  0  0  0  0
    6.5695   -2.2003   -0.9203 C   0  0  0  0  0  0  0  0  0  0  0  0
    7.9245   -1.7965   -1.1651 N   0  0  0  0  0  0  0  0  0  0  0  0
    8.0141   -0.7050   -2.1176 C   0  0  0  0  0  0  0  0  0  0  0  0
    9.4843   -0.4562   -2.3725 C   0  0  0  0  0  0  0  0  0  0  0  0
   10.3372   -1.5792   -1.7847 C   0  0  0  0  0  0  0  0  0  0  0  0
   10.1567   -1.6990   -0.3038 C   0  0  0  0  0  0  0  0  0  0  0  0
    8.6886   -1.5412    0.0179 C   0  0  0  0  0  0  0  0  0  0  0  0
    5.0894   -0.2586   -1.2164 C   0  0  0  0  0  0  0  0  0  0  0  0
    4.3319    0.7572   -0.7136 C   0  0  0  0  0  0  0  0  0  0  0  0
   -4.6497    2.0328   -1.0608 C   0  0  0  0  0  0  0  0  0  0  0  0
  -10.7313    1.4344    0.7283 H   0  0  0  0  0  0  0  0  0  0  0  0
  -11.3266    0.2272    1.9620 H   0  0  0  0  0  0  0  0  0  0  0  0
  -10.0549    1.4229    2.4112 H   0  0  0  0  0  0  0  0  0  0  0  0
   -8.8240    2.4023    0.7951 H   0  0  0  0  0  0  0  0  0  0  0  0
   -6.7143    3.2744   -0.1735 H   0  0  0  0  0  0  0  0  0  0  0  0
   -5.3849   -2.4146    0.9874 H   0  0  0  0  0  0  0  0  0  0  0  0
   -5.7789   -4.4133    0.0936 H   0  0  0  0  0  0  0  0  0  0  0  0
   -6.7975   -3.7370   -1.2779 H   0  0  0  0  0  0  0  0  0  0  0  0
   -3.7284   -3.5383   -1.0999 H   0  0  0  0  0  0  0  0  0  0  0  0
   -5.3995   -4.9672   -2.8796 H   0  0  0  0  0  0  0  0  0  0  0  0
   -4.8699   -2.8352   -3.6828 H   0  0  0  0  0  0  0  0  0  0  0  0
   -5.3762   -0.5882   -2.8761 H   0  0  0  0  0  0  0  0  0  0  0  0
   -3.6535   -1.6770    0.6476 H   0  0  0  0  0  0  0  0  0  0  0  0
   -3.1290   -1.0892   -0.9631 H   0  0  0  0  0  0  0  0  0  0  0  0
   -4.7335    0.6567    0.9532 H   0  0  0  0  0  0  0  0  0  0  0  0
   -2.9722    0.3747    1.2631 H   0  0  0  0  0  0  0  0  0  0  0  0
   -2.5801    2.7764    0.6947 H   0  0  0  0  0  0  0  0  0  0  0  0
   -2.3843    3.0219   -1.0847 H   0  0  0  0  0  0  0  0  0  0  0  0
   -1.0094    1.0270   -1.3074 H   0  0  0  0  0  0  0  0  0  0  0  0
   -1.1738    0.6248    0.4238 H   0  0  0  0  0  0  0  0  0  0  0  0
    0.3062    3.0224   -0.8055 H   0  0  0  0  0  0  0  0  0  0  0  0
    0.9645    1.5734    0.0625 H   0  0  0  0  0  0  0  0  0  0  0  0
    0.9348    3.6304    1.3881 H   0  0  0  0  0  0  0  0  0  0  0  0
   -0.8793    3.6573    1.2315 H   0  0  0  0  0  0  0  0  0  0  0  0
   -1.0934    1.4465    2.2889 H   0  0  0  0  0  0  0  0  0  0  0  0
   -0.3790    2.5917    3.4074 H   0  0  0  0  0  0  0  0  0  0  0  0
    0.6083    0.2593    3.4191 H   0  0  0  0  0  0  0  0  0  0  0  0
    1.0837    0.4195    1.7396 H   0  0  0  0  0  0  0  0  0  0  0  0
    2.8551    0.5732    3.3560 H   0  0  0  0  0  0  0  0  0  0  0  0
    2.1194    1.9196    4.1946 H   0  0  0  0  0  0  0  0  0  0  0  0
    4.1266    2.4024    2.8945 H   0  0  0  0  0  0  0  0  0  0  0  0
    2.8674    3.5200    2.4601 H   0  0  0  0  0  0  0  0  0  0  0  0
    4.8592    0.2413    2.5473 H   0  0  0  0  0  0  0  0  0  0  0  0
    6.1995   -1.6114    1.6472 H   0  0  0  0  0  0  0  0  0  0  0  0
    6.5898   -3.0241   -0.1694 H   0  0  0  0  0  0  0  0  0  0  0  0
    6.1365   -2.6142   -1.8547 H   0  0  0  0  0  0  0  0  0  0  0  0
    7.4940   -0.9920   -3.0712 H   0  0  0  0  0  0  0  0  0  0  0  0
    7.5611    0.2278   -1.7766 H   0  0  0  0  0  0  0  0  0  0  0  0
    9.8091    0.5186   -1.9524 H   0  0  0  0  0  0  0  0  0  0  0  0
    9.6498   -0.4952   -3.4660 H   0  0  0  0  0  0  0  0  0  0  0  0
   11.3958   -1.3126   -1.9813 H   0  0  0  0  0  0  0  0  0  0  0  0
   10.0144   -2.5092   -2.2896 H   0  0  0  0  0  0  0  0  0  0  0  0
   10.4474   -2.7406    0.0177 H   0  0  0  0  0  0  0  0  0  0  0  0
   10.7825   -0.9765    0.2651 H   0  0  0  0  0  0  0  0  0  0  0  0
    8.3798   -2.2018    0.8545 H   0  0  0  0  0  0  0  0  0  0  0  0
    8.5729   -0.4796    0.3779 H   0  0  0  0  0  0  0  0  0  0  0  0
    5.1933   -0.4359   -2.2935 H   0  0  0  0  0  0  0  0  0  0  0  0
    3.8107    1.4181   -1.3899 H   0  0  0  0  0  0  0  0  0  0  0  0
   -4.7160    1.9969   -2.1720 H   0  0  0  0  0  0  0  0  0  0  0  0
   -4.6873    3.1030   -0.7971 H   0  0  0  0  0  0  0  0  0  0  0  0
  1  2  1  0
  2  3  1  0
  3  4  2  0
  4  5  1  0
  5  6  2  0
  6  7  1  0
  7  8  2  0
  8  9  1  0
  9 10  1  0
 10 11  1  0
 11 12  1  0
 12 13  1  0
 12 14  1  0
 14 15  2  0
 15 16  1  0
 16 17  1  1
 17 18  1  0
 18 19  1  0
 19 20  1  0
 20 21  1  0
 21 22  1  0
 22 23  1  0
 23 24  1  0
 24 25  1  0
 25 26  1  0
 26 27  1  0
 27 28  1  0
 28 29  1  0
 29 30  2  0
 30 31  1  0
 31 32  2  0
 32 33  1  0
 33 34  1  0
 34 35  1  0
 35 36  1  0
 36 37  1  0
 37 38  1  0
 38 39  1  0
 32 40  1  0
 40 41  2  0
 19 42  1  0
  8  3  1  0
 16 10  1  0
 41 29  1  0
 42  6  1  0
 16  7  1  0
 39 34  1  0
  1 43  1  0
  1 44  1  0
  1 45  1  0
  4 46  1  0
  5 47  1  0
 10 48  1  1
 11 49  1  0
 11 50  1  0
 12 51  1  1
 13 52  1  0
 14 53  1  0
 15 54  1  0
 17 55  1  0
 17 56  1  0
 18 57  1  0
 18 58  1  0
 20 59  1  0
 20 60  1  0
 21 61  1  0
 21 62  1  0
 22 63  1  0
 22 64  1  0
 23 65  1  0
 23 66  1  0
 24 67  1  0
 24 68  1  0
 25 69  1  0
 25 70  1  0
 26 71  1  0
 26 72  1  0
 27 73  1  0
 27 74  1  0
 30 75  1  0
 31 76  1  0
 33 77  1  0
 33 78  1  0
 35 79  1  0
 35 80  1  0
 36 81  1  0
 36 82  1  0
 37 83  1  0
 37 84  1  0
 38 85  1  0
 38 86  1  0
 39 87  1  0
 39 88  1  0
 40 89  1  0
 41 90  1  0
 42 91  1  0
 42 92  1  0
M  END
$$$$
