
     RDKit          3D

 31 33  0  0  0  0  0  0  0  0999 V2000
   -0.4876   -2.2534   -0.6750 C   0  0  0  0  0  0  0  0  0  0  0  0
   -0.5812   -0.8084   -0.2751 C   0  0  1  0  0  0  0  0  0  0  0  0
    0.7586   -0.2441    0.1394 C   0  0  0  0  0  0  0  0  0  0  0  0
    1.9577   -0.3416   -1.1913 S   0  0  0  0  0  0  0  0  0  0  0  0
    3.5024    0.3426   -0.6187 C   0  0  0  0  0  0  0  0  0  0  0  0
    3.8236    0.8634    0.5692 N   0  0  0  0  0  0  0  0  0  0  0  0
    5.1195    1.2609    0.5511 C   0  0  0  0  0  0  0  0  0  0  0  0
    5.5879    0.9691   -0.6853 N   0  0  0  0  0  0  0  0  0  0  0  0
    4.6076    0.4165   -1.3830 N   0  0  0  0  0  0  0  0  0  0  0  0
   -1.3442    0.1919   -1.5862 S   0  0  0  0  0  0  0  0  0  0  0  0
   -2.7200    0.8471   -0.5701 C   0  0  2  0  0  0  0  0  0  0  0  0
   -2.7013    2.3449   -0.4201 C   0  0  2  0  0  0  0  0  0  0  0  0
   -1.2276    3.2158   -1.2872 Br  0  0  0  0  0  0  0  0  0  0  0  0
   -2.5204    2.0694    1.0200 C   0  0  0  0  0  0  0  0  0  0  0  0
   -2.6816    2.7922    2.0390 O   0  0  0  0  0  0  0  0  0  0  0  0
   -2.1207    0.7397    0.7261 N   0  0  0  0  0  0  0  0  0  0  0  0
   -1.5438   -0.5635    0.8686 C   0  0  1  0  0  0  0  0  0  0  0  0
   -2.6452   -1.5694    0.8618 C   0  0  0  0  0  0  0  0  0  0  0  0
   -3.8404   -1.2432    0.8195 O   0  0  0  0  0  0  0  0  0  0  0  0
   -2.3777   -2.9390    0.9032 O   0  0  0  0  0  0  0  0  0  0  0  0
   -1.3944   -2.6118   -1.1916 H   0  0  0  0  0  0  0  0  0  0  0  0
   -0.1695   -2.9087    0.1545 H   0  0  0  0  0  0  0  0  0  0  0  0
    0.3316   -2.3056   -1.4428 H   0  0  0  0  0  0  0  0  0  0  0  0
    1.0922   -0.8334    1.0258 H   0  0  0  0  0  0  0  0  0  0  0  0
    0.6732    0.8029    0.4923 H   0  0  0  0  0  0  0  0  0  0  0  0
    5.6893    1.7163    1.3355 H   0  0  0  0  0  0  0  0  0  0  0  0
    6.5625    1.1412   -1.0571 H   0  0  0  0  0  0  0  0  0  0  0  0
   -3.6819    0.3885   -0.7640 H   0  0  0  0  0  0  0  0  0  0  0  0
   -3.6971    2.7549   -0.6089 H   0  0  0  0  0  0  0  0  0  0  0  0
   -0.9782   -0.6468    1.8471 H   0  0  0  0  0  0  0  0  0  0  0  0
   -2.9932   -3.5883    0.4035 H   0  0  0  0  0  0  0  0  0  0  0  0
  2  1  1  6
  2  3  1  0
  3  4  1  0
  4  5  1  0
  5  6  1  0
  6  7  2  0
  7  8  1  0
  8  9  1  0
  2 10  1  0
 10 11  1  0
 11 12  1  0
 12 13  1  0
 12 14  1  0
 14 15  2  0
 14 16  1  0
 16 17  1  0
 17 18  1  0
 18 19  2  0
 18 20  1  0
 17  2  1  0
  9  5  2  0
 16 11  1  0
  1 21  1  0
  1 22  1  0
  1 23  1  0
  3 24  1  0
  3 25  1  0
  7 26  1  0
  8 27  1  0
 11 28  1  1
 12 29  1  1
 17 30  1  1
 20 31  1  0
M  END
$$$$
