@<TRIPOS>MOLECULE
*****
 31 33 0 0 0
SMALL
GASTEIGER

@<TRIPOS>ATOM
      1 C          -0.4876   -2.2534   -0.6750 C.3     1  UNL1       -0.0473
      2 C          -0.5812   -0.8084   -0.2751 C.3     1  UNL1        0.0538
      3 C           0.7586   -0.2441    0.1394 C.3     1  UNL1        0.0179
      4 S           1.9577   -0.3416   -1.1913 S.3     1  UNL1       -0.0830
      5 C           3.5024    0.3426   -0.6187 C.ar    1  UNL1        0.2085
      6 N           3.8236    0.8634    0.5692 N.ar    1  UNL1       -0.2098
      7 C           5.1195    1.2609    0.5511 C.ar    1  UNL1        0.1125
      8 N           5.5879    0.9691   -0.6853 N.ar    1  UNL1       -0.2644
      9 N           4.6076    0.4165   -1.3830 N.ar    1  UNL1       -0.1458
     10 S          -1.3442    0.1919   -1.5862 S.3     1  UNL1       -0.1270
     11 C          -2.7200    0.8471   -0.5701 C.3     1  UNL1        0.0945
     12 C          -2.7013    2.3449   -0.4201 C.3     1  UNL1        0.1188
     13 BR         -1.2276    3.2158   -1.2872 Br      1  UNL1       -0.0754
     14 C          -2.5204    2.0694    1.0200 C.2     1  UNL1        0.2334
     15 O          -2.6816    2.7922    2.0390 O.2     1  UNL1       -0.2742
     16 N          -2.1207    0.7397    0.7261 N.am    1  UNL1       -0.2721
     17 C          -1.5438   -0.5635    0.8686 C.3     1  UNL1        0.1389
     18 C          -2.6452   -1.5694    0.8618 C.2     1  UNL1        0.3269
     19 O          -3.8404   -1.2432    0.8195 O.2     1  UNL1       -0.2489
     20 O          -2.3777   -2.9390    0.9032 O.3     1  UNL1       -0.4793
     21 H          -1.3944   -2.6118   -1.1916 H       1  UNL1        0.0244
     22 H          -0.1695   -2.9087    0.1545 H       1  UNL1        0.0244
     23 H           0.3316   -2.3056   -1.4428 H       1  UNL1        0.0244
     24 H           1.0922   -0.8334    1.0258 H       1  UNL1        0.0395
     25 H           0.6732    0.8029    0.4923 H       1  UNL1        0.0395
     26 H           5.6893    1.7163    1.3355 H       1  UNL1        0.1042
     27 H           6.5625    1.1412   -1.0571 H       1  UNL1        0.1900
     28 H          -3.6819    0.3885   -0.7640 H       1  UNL1        0.0633
     29 H          -3.6971    2.7549   -0.6089 H       1  UNL1        0.0540
     30 H          -0.9782   -0.6468    1.8471 H       1  UNL1        0.0631
     31 H          -2.9932   -3.5883    0.4035 H       1  UNL1        0.2951
@<TRIPOS>BOND
     1     2     1    1
     2     2     3    1
     3     3     4    1
     4     4     5    1
     5     5     6   ar
     6     6     7   ar
     7     7     8   ar
     8     8     9   ar
     9     2    10    1
    10    10    11    1
    11    11    12    1
    12    12    13    1
    13    12    14    1
    14    14    15    2
    15    14    16   am
    16    16    17    1
    17    17    18    1
    18    18    19    2
    19    18    20    1
    20    17     2    1
    21     9     5   ar
    22    16    11    1
    23     1    21    1
    24     1    22    1
    25     1    23    1
    26     3    24    1
    27     3    25    1
    28     7    26    1
    29     8    27    1
    30    11    28    1
    31    12    29    1
    32    17    30    1
    33    20    31    1
