@<TRIPOS>MOLECULE
*****
 57 61 0 0 0
SMALL
GASTEIGER

@<TRIPOS>ATOM
      1 C           8.5200   -1.9399   -0.0127 C.3     1  UNL1        0.0788
      2 O           7.4537   -2.5705   -0.6665 O.3     1  UNL1       -0.4951
      3 C           6.1723   -2.0670   -0.5771 C.ar    1  UNL1        0.1202
      4 C           5.1094   -2.6923   -1.2259 C.ar    1  UNL1       -0.0182
      5 C           3.8395   -2.1907   -1.1355 C.ar    1  UNL1       -0.0368
      6 C           3.5775   -1.0490   -0.3972 C.ar    1  UNL1        0.0383
      7 N           2.2358   -0.5447   -0.2979 N.am    1  UNL1       -0.2506
      8 C           1.2176   -1.4087   -0.8775 C.3     1  UNL1        0.0510
      9 C          -0.1592   -1.0009   -0.6364 C.ar    1  UNL1        0.0288
     10 C          -1.1667   -1.8383   -1.0746 C.ar    1  UNL1        0.0392
     11 N          -2.4351   -1.5073   -0.9074 N.ar    1  UNL1       -0.2222
     12 C          -2.8067   -0.3731   -0.3204 C.ar    1  UNL1        0.2212
     13 N          -4.1588   -0.0499   -0.1567 N.pl3   1  UNL1       -0.2836
     14 C          -5.2563   -0.8065   -0.5882 C.ar    1  UNL1        0.0337
     15 C          -6.5321   -0.4050   -0.1576 C.ar    1  UNL1       -0.0378
     16 C          -7.6504   -1.0772   -0.5369 C.ar    1  UNL1       -0.0247
     17 C          -7.6132   -2.1791   -1.3550 C.ar    1  UNL1        0.1235
     18 F          -8.7640   -2.7774   -1.6760 F       1  UNL1       -0.2055
     19 C          -6.3776   -2.5980   -1.7945 C.ar    1  UNL1       -0.0247
     20 C          -5.2253   -1.9053   -1.4038 C.ar    1  UNL1       -0.0378
     21 N          -1.8187    0.4702    0.1213 N.ar    1  UNL1       -0.1985
     22 C          -0.5364    0.1678   -0.0302 C.ar    1  UNL1        0.1388
     23 N           0.4441    1.0376    0.4617 N.am    1  UNL1       -0.2359
     24 C           0.1652    2.2740    1.0997 C.3     1  UNL1        0.0364
     25 C          -0.7128    2.1993    2.3079 C.3     1  UNL1       -0.0314
     26 C          -1.0129    3.6853    2.5552 C.3     1  UNL1       -0.0251
     27 C          -1.3556    4.1490    1.1613 C.3     1  UNL1        0.0570
     28 O          -1.0523    5.5039    0.9632 O.3     1  UNL1       -0.3917
     29 C          -0.5732    3.2561    0.2146 C.3     1  UNL1       -0.0077
     30 C           1.8317    0.6519    0.3097 C.2     1  UNL1        0.3150
     31 O           2.7197    1.4423    0.7489 O.2     1  UNL1       -0.2516
     32 C           4.6371   -0.4588    0.2272 C.ar    1  UNL1       -0.0368
     33 C           5.9458   -0.9335    0.1631 C.ar    1  UNL1       -0.0182
     34 H           8.4180   -1.9703    1.1073 H       1  UNL1        0.0660
     35 H           9.4825   -2.4359   -0.3202 H       1  UNL1        0.0660
     36 H           8.6311   -0.8693   -0.2901 H       1  UNL1        0.0660
     37 H           5.3020   -3.5937   -1.8117 H       1  UNL1        0.0655
     38 H           2.9991   -2.6616   -1.6340 H       1  UNL1        0.0637
     39 H           1.3337   -2.4470   -0.4874 H       1  UNL1        0.0520
     40 H           1.4009   -1.4601   -1.9759 H       1  UNL1        0.0520
     41 H          -0.9401   -2.7958   -1.5704 H       1  UNL1        0.0835
     42 H          -4.3512    0.8689    0.3453 H       1  UNL1        0.1550
     43 H          -6.6047    0.4753    0.5014 H       1  UNL1        0.0637
     44 H          -8.6155   -0.7241   -0.1750 H       1  UNL1        0.0647
     45 H          -6.3285   -3.4589   -2.4355 H       1  UNL1        0.0647
     46 H          -4.2969   -2.2717   -1.7817 H       1  UNL1        0.0637
     47 H           1.1075    2.8011    1.4087 H       1  UNL1        0.0506
     48 H          -0.1764    1.8568    3.2130 H       1  UNL1        0.0284
     49 H          -1.6755    1.7238    2.1312 H       1  UNL1        0.0284
     50 H          -1.8225    3.8252    3.2829 H       1  UNL1        0.0291
     51 H          -0.0702    4.2084    2.8689 H       1  UNL1        0.0291
     52 H          -2.4565    4.0534    0.9512 H       1  UNL1        0.0594
     53 H          -0.2175    5.7687    1.4558 H       1  UNL1        0.2098
     54 H          -1.2239    2.7166   -0.4730 H       1  UNL1        0.0308
     55 H           0.1481    3.9279   -0.3268 H       1  UNL1        0.0308
     56 H           4.5269    0.4209    0.8267 H       1  UNL1        0.0637
     57 H           6.7675   -0.4228    0.6835 H       1  UNL1        0.0655
@<TRIPOS>BOND
     1     1     2    1
     2     2     3    1
     3     3     4   ar
     4     4     5   ar
     5     5     6   ar
     6     6     7    1
     7     7     8    1
     8     8     9    1
     9     9    10   ar
    10    10    11   ar
    11    11    12   ar
    12    12    13    1
    13    13    14    1
    14    14    15   ar
    15    15    16   ar
    16    16    17   ar
    17    17    18    1
    18    17    19   ar
    19    19    20   ar
    20    12    21   ar
    21    21    22   ar
    22    22    23    1
    23    23    24    1
    24    24    25    1
    25    25    26    1
    26    26    27    1
    27    27    28    1
    28    27    29    1
    29    23    30   am
    30    30    31    2
    31     6    32   ar
    32    32    33   ar
    33    33     3   ar
    34    30     7   am
    35    22     9   ar
    36    29    24    1
    37    20    14   ar
    38     1    34    1
    39     1    35    1
    40     1    36    1
    41     4    37    1
    42     5    38    1
    43     8    39    1
    44     8    40    1
    45    10    41    1
    46    13    42    1
    47    15    43    1
    48    16    44    1
    49    19    45    1
    50    20    46    1
    51    24    47    1
    52    25    48    1
    53    25    49    1
    54    26    50    1
    55    26    51    1
    56    27    52    1
    57    28    53    1
    58    29    54    1
    59    29    55    1
    60    32    56    1
    61    33    57    1
