
     RDKit          3D

 57 61  0  0  0  0  0  0  0  0999 V2000
    8.5200   -1.9399   -0.0127 C   0  0  0  0  0  0  0  0  0  0  0  0
    7.4537   -2.5705   -0.6665 O   0  0  0  0  0  0  0  0  0  0  0  0
    6.1723   -2.0670   -0.5771 C   0  0  0  0  0  0  0  0  0  0  0  0
    5.1094   -2.6923   -1.2259 C   0  0  0  0  0  0  0  0  0  0  0  0
    3.8395   -2.1907   -1.1355 C   0  0  0  0  0  0  0  0  0  0  0  0
    3.5775   -1.0490   -0.3972 C   0  0  0  0  0  0  0  0  0  0  0  0
    2.2358   -0.5447   -0.2979 N   0  0  0  0  0  0  0  0  0  0  0  0
    1.2176   -1.4087   -0.8775 C   0  0  0  0  0  0  0  0  0  0  0  0
   -0.1592   -1.0009   -0.6364 C   0  0  0  0  0  0  0  0  0  0  0  0
   -1.1667   -1.8383   -1.0746 C   0  0  0  0  0  0  0  0  0  0  0  0
   -2.4351   -1.5073   -0.9074 N   0  0  0  0  0  0  0  0  0  0  0  0
   -2.8067   -0.3731   -0.3204 C   0  0  0  0  0  0  0  0  0  0  0  0
   -4.1588   -0.0499   -0.1567 N   0  0  0  0  0  0  0  0  0  0  0  0
   -5.2563   -0.8065   -0.5882 C   0  0  0  0  0  0  0  0  0  0  0  0
   -6.5321   -0.4050   -0.1576 C   0  0  0  0  0  0  0  0  0  0  0  0
   -7.6504   -1.0772   -0.5369 C   0  0  0  0  0  0  0  0  0  0  0  0
   -7.6132   -2.1791   -1.3550 C   0  0  0  0  0  0  0  0  0  0  0  0
   -8.7640   -2.7774   -1.6760 F   0  0  0  0  0  0  0  0  0  0  0  0
   -6.3776   -2.5980   -1.7945 C   0  0  0  0  0  0  0  0  0  0  0  0
   -5.2253   -1.9053   -1.4038 C   0  0  0  0  0  0  0  0  0  0  0  0
   -1.8187    0.4702    0.1213 N   0  0  0  0  0  0  0  0  0  0  0  0
   -0.5364    0.1678   -0.0302 C   0  0  0  0  0  0  0  0  0  0  0  0
    0.4441    1.0376    0.4617 N   0  0  0  0  0  0  0  0  0  0  0  0
    0.1652    2.2740    1.0997 C   0  0  0  0  0  0  0  0  0  0  0  0
   -0.7128    2.1993    2.3079 C   0  0  0  0  0  0  0  0  0  0  0  0
   -1.0129    3.6853    2.5552 C   0  0  0  0  0  0  0  0  0  0  0  0
   -1.3556    4.1490    1.1613 C   0  0  1  0  0  0  0  0  0  0  0  0
   -1.0523    5.5039    0.9632 O   0  0  0  0  0  0  0  0  0  0  0  0
   -0.5732    3.2561    0.2146 C   0  0  0  0  0  0  0  0  0  0  0  0
    1.8317    0.6519    0.3097 C   0  0  0  0  0  0  0  0  0  0  0  0
    2.7197    1.4423    0.7489 O   0  0  0  0  0  0  0  0  0  0  0  0
    4.6371   -0.4588    0.2272 C   0  0  0  0  0  0  0  0  0  0  0  0
    5.9458   -0.9335    0.1631 C   0  0  0  0  0  0  0  0  0  0  0  0
    8.4180   -1.9703    1.1073 H   0  0  0  0  0  0  0  0  0  0  0  0
    9.4825   -2.4359   -0.3202 H   0  0  0  0  0  0  0  0  0  0  0  0
    8.6311   -0.8693   -0.2901 H   0  0  0  0  0  0  0  0  0  0  0  0
    5.3020   -3.5937   -1.8117 H   0  0  0  0  0  0  0  0  0  0  0  0
    2.9991   -2.6616   -1.6340 H   0  0  0  0  0  0  0  0  0  0  0  0
    1.3337   -2.4470   -0.4874 H   0  0  0  0  0  0  0  0  0  0  0  0
    1.4009   -1.4601   -1.9759 H   0  0  0  0  0  0  0  0  0  0  0  0
   -0.9401   -2.7958   -1.5704 H   0  0  0  0  0  0  0  0  0  0  0  0
   -4.3512    0.8689    0.3453 H   0  0  0  0  0  0  0  0  0  0  0  0
   -6.6047    0.4753    0.5014 H   0  0  0  0  0  0  0  0  0  0  0  0
   -8.6155   -0.7241   -0.1750 H   0  0  0  0  0  0  0  0  0  0  0  0
   -6.3285   -3.4589   -2.4355 H   0  0  0  0  0  0  0  0  0  0  0  0
   -4.2969   -2.2717   -1.7817 H   0  0  0  0  0  0  0  0  0  0  0  0
    1.1075    2.8011    1.4087 H   0  0  0  0  0  0  0  0  0  0  0  0
   -0.1764    1.8568    3.2130 H   0  0  0  0  0  0  0  0  0  0  0  0
   -1.6755    1.7238    2.1312 H   0  0  0  0  0  0  0  0  0  0  0  0
   -1.8225    3.8252    3.2829 H   0  0  0  0  0  0  0  0  0  0  0  0
   -0.0702    4.2084    2.8689 H   0  0  0  0  0  0  0  0  0  0  0  0
   -2.4565    4.0534    0.9512 H   0  0  0  0  0  0  0  0  0  0  0  0
   -0.2175    5.7687    1.4558 H   0  0  0  0  0  0  0  0  0  0  0  0
   -1.2239    2.7166   -0.4730 H   0  0  0  0  0  0  0  0  0  0  0  0
    0.1481    3.9279   -0.3268 H   0  0  0  0  0  0  0  0  0  0  0  0
    4.5269    0.4209    0.8267 H   0  0  0  0  0  0  0  0  0  0  0  0
    6.7675   -0.4228    0.6835 H   0  0  0  0  0  0  0  0  0  0  0  0
  1  2  1  0
  2  3  1  0
  3  4  2  0
  4  5  1  0
  5  6  2  0
  6  7  1  0
  7  8  1  0
  8  9  1  0
  9 10  2  0
 10 11  1  0
 11 12  2  0
 12 13  1  0
 13 14  1  0
 14 15  2  0
 15 16  1  0
 16 17  2  0
 17 18  1  0
 17 19  1  0
 19 20  2  0
 12 21  1  0
 21 22  2  0
 22 23  1  0
 23 24  1  0
 24 25  1  0
 25 26  1  0
 26 27  1  0
 27 28  1  0
 27 29  1  0
 23 30  1  0
 30 31  2  0
  6 32  1  0
 32 33  2  0
 33  3  1  0
 30  7  1  0
 22  9  1  0
 29 24  1  0
 20 14  1  0
  1 34  1  0
  1 35  1  0
  1 36  1  0
  4 37  1  0
  5 38  1  0
  8 39  1  0
  8 40  1  0
 10 41  1  0
 13 42  1  0
 15 43  1  0
 16 44  1  0
 19 45  1  0
 20 46  1  0
 24 47  1  0
 25 48  1  0
 25 49  1  0
 26 50  1  0
 26 51  1  0
 27 52  1  6
 28 53  1  0
 29 54  1  0
 29 55  1  0
 32 56  1  0
 33 57  1  0
M  END
$$$$
