
     RDKit          3D

 57 61  0  0  0  0  0  0  0  0999 V2000
   -2.6053   -2.4923    1.9633 N   0  0  0  0  0  0  0  0  0  0  0  0
   -1.9129   -1.9053    1.0407 C   0  0  0  0  0  0  0  0  0  0  0  0
   -0.7819   -2.5151    0.4451 N   0  0  0  0  0  0  0  0  0  0  0  0
   -0.0488   -1.4967   -0.2861 C   0  0  0  0  0  0  0  0  0  0  0  0
    0.5066   -2.1707   -1.4884 C   0  0  0  0  0  0  0  0  0  0  0  0
    1.3570   -3.2444   -1.2063 C   0  0  0  0  0  0  0  0  0  0  0  0
    1.9346   -3.9500   -2.2367 C   0  0  0  0  0  0  0  0  0  0  0  0
    1.6815   -3.6065   -3.5472 C   0  0  0  0  0  0  0  0  0  0  0  0
    0.8457   -2.5511   -3.8315 C   0  0  0  0  0  0  0  0  0  0  0  0
    0.2634   -1.8404   -2.7788 C   0  0  0  0  0  0  0  0  0  0  0  0
    1.1160   -1.0373    0.5020 C   0  0  0  0  0  0  0  0  0  0  0  0
    1.4641   -1.7138    1.6457 C   0  0  0  0  0  0  0  0  0  0  0  0
    2.5647   -1.3051    2.4137 C   0  0  0  0  0  0  0  0  0  0  0  0
    3.2977   -0.2232    2.0203 C   0  0  0  0  0  0  0  0  0  0  0  0
    2.9574    0.4610    0.8770 C   0  0  0  0  0  0  0  0  0  0  0  0
    3.7575    1.6274    0.4605 C   0  0  0  0  0  0  0  0  0  0  0  0
    4.3464    2.4104    1.4237 C   0  0  0  0  0  0  0  0  0  0  0  0
    5.0938    3.4960    1.0308 C   0  0  0  0  0  0  0  0  0  0  0  0
    5.2315    3.7675   -0.2969 C   0  0  0  0  0  0  0  0  0  0  0  0
    4.6542    2.9994   -1.2326 N   0  0  0  0  0  0  0  0  0  0  0  0
    3.9208    1.9353   -0.8692 C   0  0  0  0  0  0  0  0  0  0  0  0
    1.8650    0.0463    0.1247 C   0  0  0  0  0  0  0  0  0  0  0  0
   -1.0417   -0.4730   -0.5257 C   0  0  0  0  0  0  0  0  0  0  0  0
   -1.0955    0.4398   -1.3870 O   0  0  0  0  0  0  0  0  0  0  0  0
   -2.0849   -0.6295    0.4429 N   0  0  0  0  0  0  0  0  0  0  0  0
   -3.1328    0.2634    0.8092 C   0  0  0  0  0  0  0  0  0  0  0  0
   -4.0570    0.4226   -0.4030 C   0  0  0  0  0  0  0  0  0  0  0  0
   -5.3274    1.1494    0.0259 C   0  0  0  0  0  0  0  0  0  0  0  0
   -4.9073    2.5212    0.4756 C   0  0  0  0  0  0  0  0  0  0  0  0
   -3.4111    2.6966    0.5070 C   0  0  0  0  0  0  0  0  0  0  0  0
   -2.7073    1.6053    1.2850 C   0  0  0  0  0  0  0  0  0  0  0  0
   -3.4213   -2.0449    2.3888 H   0  0  0  0  0  0  0  0  0  0  0  0
   -0.4785   -3.5113    0.4903 H   0  0  0  0  0  0  0  0  0  0  0  0
    1.5710   -3.5329   -0.1637 H   0  0  0  0  0  0  0  0  0  0  0  0
    2.5935   -4.7818   -1.9937 H   0  0  0  0  0  0  0  0  0  0  0  0
    2.1477   -4.1762   -4.3645 H   0  0  0  0  0  0  0  0  0  0  0  0
    0.6553   -2.2922   -4.8617 H   0  0  0  0  0  0  0  0  0  0  0  0
   -0.3801   -1.0302   -3.0012 H   0  0  0  0  0  0  0  0  0  0  0  0
    0.9043   -2.5742    1.9845 H   0  0  0  0  0  0  0  0  0  0  0  0
    2.8441   -1.8344    3.3164 H   0  0  0  0  0  0  0  0  0  0  0  0
    4.1608    0.1207    2.5955 H   0  0  0  0  0  0  0  0  0  0  0  0
    4.2547    2.2200    2.4848 H   0  0  0  0  0  0  0  0  0  0  0  0
    5.5589    4.1145    1.7991 H   0  0  0  0  0  0  0  0  0  0  0  0
    5.8363    4.6429   -0.5651 H   0  0  0  0  0  0  0  0  0  0  0  0
    3.4363    1.2890   -1.6154 H   0  0  0  0  0  0  0  0  0  0  0  0
    1.6176    0.6157   -0.7861 H   0  0  0  0  0  0  0  0  0  0  0  0
   -3.7547   -0.1971    1.5962 H   0  0  0  0  0  0  0  0  0  0  0  0
   -4.3730   -0.5627   -0.7908 H   0  0  0  0  0  0  0  0  0  0  0  0
   -3.5694    0.9607   -1.2202 H   0  0  0  0  0  0  0  0  0  0  0  0
   -6.0043    1.1488   -0.8389 H   0  0  0  0  0  0  0  0  0  0  0  0
   -5.7793    0.5916    0.8772 H   0  0  0  0  0  0  0  0  0  0  0  0
   -5.3738    2.8092    1.4586 H   0  0  0  0  0  0  0  0  0  0  0  0
   -5.2960    3.2445   -0.2770 H   0  0  0  0  0  0  0  0  0  0  0  0
   -3.0360    2.8180   -0.5190 H   0  0  0  0  0  0  0  0  0  0  0  0
   -3.2334    3.6946    1.0062 H   0  0  0  0  0  0  0  0  0  0  0  0
   -1.6319    1.8038    1.2307 H   0  0  0  0  0  0  0  0  0  0  0  0
   -2.9927    1.7772    2.3652 H   0  0  0  0  0  0  0  0  0  0  0  0
  1  2  2  3
  2  3  1  0
  3  4  1  0
  4  5  1  0
  5  6  2  0
  6  7  1  0
  7  8  2  0
  8  9  1  0
  9 10  2  0
  4 11  1  0
 11 12  2  0
 12 13  1  0
 13 14  2  0
 14 15  1  0
 15 16  1  0
 16 17  2  0
 17 18  1  0
 18 19  2  0
 19 20  1  0
 20 21  2  0
 15 22  2  0
  4 23  1  0
 23 24  2  0
 23 25  1  0
 25 26  1  0
 26 27  1  0
 27 28  1  0
 28 29  1  0
 29 30  1  0
 30 31  1  0
 25  2  1  0
 31 26  1  0
 10  5  1  0
 22 11  1  0
 21 16  1  0
  1 32  1  0
  3 33  1  0
  6 34  1  0
  7 35  1  0
  8 36  1  0
  9 37  1  0
 10 38  1  0
 12 39  1  0
 13 40  1  0
 14 41  1  0
 17 42  1  0
 18 43  1  0
 19 44  1  0
 21 45  1  0
 22 46  1  0
 26 47  1  0
 27 48  1  0
 27 49  1  0
 28 50  1  0
 28 51  1  0
 29 52  1  0
 29 53  1  0
 30 54  1  0
 30 55  1  0
 31 56  1  0
 31 57  1  0
M  END
$$$$
