@<TRIPOS>MOLECULE
*****
 57 61 0 0 0
SMALL
GASTEIGER

@<TRIPOS>ATOM
      1 N          -2.6053   -2.4923    1.9633 N.2     1  UNL1       -0.1329
      2 C          -1.9129   -1.9053    1.0407 C.2     1  UNL1        0.3729
      3 N          -0.7819   -2.5151    0.4451 N.pl3   1  UNL1       -0.2151
      4 C          -0.0488   -1.4967   -0.2861 C.3     1  UNL1        0.2215
      5 C           0.5066   -2.1707   -1.4884 C.ar    1  UNL1        0.0053
      6 C           1.3570   -3.2444   -1.2063 C.ar    1  UNL1       -0.0543
      7 C           1.9346   -3.9500   -2.2367 C.ar    1  UNL1       -0.0614
      8 C           1.6815   -3.6065   -3.5472 C.ar    1  UNL1       -0.0617
      9 C           0.8457   -2.5511   -3.8315 C.ar    1  UNL1       -0.0614
     10 C           0.2634   -1.8404   -2.7788 C.ar    1  UNL1       -0.0543
     11 C           1.1160   -1.0373    0.5020 C.ar    1  UNL1        0.0058
     12 C           1.4641   -1.7138    1.6457 C.ar    1  UNL1       -0.0543
     13 C           2.5647   -1.3051    2.4137 C.ar    1  UNL1       -0.0608
     14 C           3.2977   -0.2232    2.0203 C.ar    1  UNL1       -0.0540
     15 C           2.9574    0.4610    0.8770 C.ar    1  UNL1       -0.0160
     16 C           3.7575    1.6274    0.4605 C.ar    1  UNL1        0.0002
     17 C           4.3464    2.4104    1.4237 C.ar    1  UNL1       -0.0512
     18 C           5.0938    3.4960    1.0308 C.ar    1  UNL1       -0.0430
     19 C           5.2315    3.7675   -0.2969 C.ar    1  UNL1        0.0276
     20 N           4.6542    2.9994   -1.2326 N.ar    1  UNL1       -0.2627
     21 C           3.9208    1.9353   -0.8692 C.ar    1  UNL1        0.0352
     22 C           1.8650    0.0463    0.1247 C.ar    1  UNL1       -0.0465
     23 C          -1.0417   -0.4730   -0.5257 C.2     1  UNL1        0.3252
     24 O          -1.0955    0.4398   -1.3870 O.2     1  UNL1       -0.2524
     25 N          -2.0849   -0.6295    0.4429 N.am    1  UNL1       -0.1561
     26 C          -3.1328    0.2634    0.8092 C.3     1  UNL1        0.0795
     27 C          -4.0570    0.4226   -0.4030 C.3     1  UNL1       -0.0205
     28 C          -5.3274    1.1494    0.0259 C.3     1  UNL1       -0.0501
     29 C          -4.9073    2.5212    0.4756 C.3     1  UNL1       -0.0529
     30 C          -3.4111    2.6966    0.5070 C.3     1  UNL1       -0.0501
     31 C          -2.7073    1.6053    1.2850 C.3     1  UNL1       -0.0205
     32 H          -3.4213   -2.0449    2.3888 H       1  UNL1        0.3058
     33 H          -0.4785   -3.5113    0.4903 H       1  UNL1        0.2462
     34 H           1.5710   -3.5329   -0.1637 H       1  UNL1        0.0622
     35 H           2.5935   -4.7818   -1.9937 H       1  UNL1        0.0618
     36 H           2.1477   -4.1762   -4.3645 H       1  UNL1        0.0618
     37 H           0.6553   -2.2922   -4.8617 H       1  UNL1        0.0618
     38 H          -0.3801   -1.0302   -3.0012 H       1  UNL1        0.0622
     39 H           0.9043   -2.5742    1.9845 H       1  UNL1        0.0622
     40 H           2.8441   -1.8344    3.3164 H       1  UNL1        0.0618
     41 H           4.1608    0.1207    2.5955 H       1  UNL1        0.0624
     42 H           4.2547    2.2200    2.4848 H       1  UNL1        0.0625
     43 H           5.5589    4.1145    1.7991 H       1  UNL1        0.0633
     44 H           5.8363    4.6429   -0.5651 H       1  UNL1        0.0829
     45 H           3.4363    1.2890   -1.6154 H       1  UNL1        0.0836
     46 H           1.6176    0.6157   -0.7861 H       1  UNL1        0.0628
     47 H          -3.7547   -0.1971    1.5962 H       1  UNL1        0.0675
     48 H          -4.3730   -0.5627   -0.7908 H       1  UNL1        0.0297
     49 H          -3.5694    0.9607   -1.2202 H       1  UNL1        0.0297
     50 H          -6.0043    1.1488   -0.8389 H       1  UNL1        0.0266
     51 H          -5.7793    0.5916    0.8772 H       1  UNL1        0.0266
     52 H          -5.3738    2.8092    1.4586 H       1  UNL1        0.0265
     53 H          -5.2960    3.2445   -0.2770 H       1  UNL1        0.0265
     54 H          -3.0360    2.8180   -0.5190 H       1  UNL1        0.0266
     55 H          -3.2334    3.6946    1.0062 H       1  UNL1        0.0266
     56 H          -1.6319    1.8038    1.2307 H       1  UNL1        0.0297
     57 H          -2.9927    1.7772    2.3652 H       1  UNL1        0.0297
@<TRIPOS>BOND
     1     1     2    2
     2     2     3    1
     3     3     4    1
     4     4     5    1
     5     5     6   ar
     6     6     7   ar
     7     7     8   ar
     8     8     9   ar
     9     9    10   ar
    10     4    11    1
    11    11    12   ar
    12    12    13   ar
    13    13    14   ar
    14    14    15   ar
    15    15    16    1
    16    16    17   ar
    17    17    18   ar
    18    18    19   ar
    19    19    20   ar
    20    20    21   ar
    21    15    22   ar
    22     4    23    1
    23    23    24    2
    24    23    25   am
    25    25    26    1
    26    26    27    1
    27    27    28    1
    28    28    29    1
    29    29    30    1
    30    30    31    1
    31    25     2    1
    32    31    26    1
    33    10     5   ar
    34    22    11   ar
    35    21    16   ar
    36     1    32    1
    37     3    33    1
    38     6    34    1
    39     7    35    1
    40     8    36    1
    41     9    37    1
    42    10    38    1
    43    12    39    1
    44    13    40    1
    45    14    41    1
    46    17    42    1
    47    18    43    1
    48    19    44    1
    49    21    45    1
    50    22    46    1
    51    26    47    1
    52    27    48    1
    53    27    49    1
    54    28    50    1
    55    28    51    1
    56    29    52    1
    57    29    53    1
    58    30    54    1
    59    30    55    1
    60    31    56    1
    61    31    57    1
