@<TRIPOS>MOLECULE
*****
 61 63 0 0 0
SMALL
GASTEIGER

@<TRIPOS>ATOM
      1 C           2.0934   -2.7257    1.3124 C.3     1  UNL1       -0.0606
      2 C           3.2669   -1.7921    1.0237 C.3     1  UNL1       -0.0232
      3 C           4.2927   -2.4152    0.1410 C.3     1  UNL1       -0.0606
      4 C           2.7686   -0.4684    0.4921 C.3     1  UNL1        0.0500
      5 O           2.0515   -0.5996   -0.6733 O.3     1  UNL1       -0.3779
      6 C           1.5945    0.6069   -1.1777 C.3     1  UNL1        0.0647
      7 C           0.6988    1.3789   -0.2918 C.3     1  UNL1        0.0494
      8 C          -0.6702    0.8899    0.0098 C.3     1  UNL1        0.0303
      9 N          -0.9079   -0.3699    0.5947 N.pl3   1  UNL1       -0.3240
     10 C          -0.9769   -1.5568   -0.1943 C.3     1  UNL1        0.0373
     11 C          -2.2568   -1.6206   -0.9718 C.ar    1  UNL1       -0.0302
     12 C          -2.4097   -1.1412   -2.2390 C.ar    1  UNL1       -0.0571
     13 C          -3.5961   -1.1951   -2.9375 C.ar    1  UNL1       -0.0615
     14 C          -4.6862   -1.7621   -2.3276 C.ar    1  UNL1       -0.0617
     15 C          -4.5673   -2.2610   -1.0377 C.ar    1  UNL1       -0.0615
     16 C          -3.3428   -2.1883   -0.3579 C.ar    1  UNL1       -0.0571
     17 C          -1.0454   -0.4435    2.0330 C.ar    1  UNL1        0.0300
     18 C          -0.8571    0.7133    2.7936 C.ar    1  UNL1       -0.0407
     19 C          -0.9938    0.7113    4.1712 C.ar    1  UNL1       -0.0600
     20 C          -1.3190   -0.4358    4.8218 C.ar    1  UNL1       -0.0616
     21 C          -1.5084   -1.5793    4.1091 C.ar    1  UNL1       -0.0600
     22 C          -1.3717   -1.5816    2.7143 C.ar    1  UNL1       -0.0407
     23 N           0.4069    2.7002   -0.9092 N.3     1  UNL1       -0.2957
     24 C          -0.2040    2.6426   -2.1712 C.3     1  UNL1       -0.0007
     25 C           0.5348    3.6378   -3.0522 C.3     1  UNL1       -0.0390
     26 C           1.1734    4.5440   -2.0277 C.3     1  UNL1       -0.0390
     27 C           1.4840    3.6055   -0.8759 C.3     1  UNL1       -0.0007
     28 H           1.7188   -3.1356    0.3579 H       1  UNL1        0.0233
     29 H           1.3507   -2.1319    1.8646 H       1  UNL1        0.0233
     30 H           2.4586   -3.5244    1.9920 H       1  UNL1        0.0233
     31 H           3.7219   -1.5922    2.0281 H       1  UNL1        0.0318
     32 H           4.0305   -3.4433   -0.1808 H       1  UNL1        0.0233
     33 H           5.2651   -2.5332    0.6969 H       1  UNL1        0.0233
     34 H           4.4521   -1.8381   -0.8025 H       1  UNL1        0.0233
     35 H           3.6516    0.1973    0.4045 H       1  UNL1        0.0562
     36 H           2.1594   -0.0235    1.3315 H       1  UNL1        0.0562
     37 H           1.1415    0.4095   -2.1936 H       1  UNL1        0.0576
     38 H           2.5247    1.1847   -1.4351 H       1  UNL1        0.0576
     39 H           1.2662    1.6465    0.6378 H       1  UNL1        0.0501
     40 H          -1.2178    0.8913   -1.0054 H       1  UNL1        0.0480
     41 H          -1.1816    1.7423    0.5694 H       1  UNL1        0.0480
     42 H          -0.9205   -2.4494    0.4264 H       1  UNL1        0.0513
     43 H          -0.1417   -1.6786   -0.9361 H       1  UNL1        0.0513
     44 H          -1.5776   -0.7002   -2.7377 H       1  UNL1        0.0621
     45 H          -3.6431   -0.7914   -3.9457 H       1  UNL1        0.0618
     46 H          -5.6407   -1.8139   -2.8653 H       1  UNL1        0.0618
     47 H          -5.4342   -2.7009   -0.5809 H       1  UNL1        0.0618
     48 H          -3.3629   -2.6058    0.6372 H       1  UNL1        0.0621
     49 H          -0.5869    1.6671    2.3747 H       1  UNL1        0.0636
     50 H          -0.8438    1.6288    4.7574 H       1  UNL1        0.0618
     51 H          -1.4202   -0.4112    5.9120 H       1  UNL1        0.0618
     52 H          -1.7656   -2.5022    4.5900 H       1  UNL1        0.0618
     53 H          -1.5348   -2.4989    2.1735 H       1  UNL1        0.0636
     54 H          -1.2456    3.0734   -2.0656 H       1  UNL1        0.0427
     55 H          -0.3475    1.6799   -2.6517 H       1  UNL1        0.0427
     56 H          -0.1747    4.1861   -3.7099 H       1  UNL1        0.0278
     57 H           1.2866    3.0912   -3.6253 H       1  UNL1        0.0278
     58 H           0.4005    5.2500   -1.6891 H       1  UNL1        0.0278
     59 H           2.0829    5.0416   -2.4113 H       1  UNL1        0.0278
     60 H           1.3779    4.2268    0.0586 H       1  UNL1        0.0427
     61 H           2.4979    3.1643   -0.9481 H       1  UNL1        0.0427
@<TRIPOS>BOND
     1     1     2    1
     2     2     3    1
     3     2     4    1
     4     4     5    1
     5     5     6    1
     6     6     7    1
     7     7     8    1
     8     8     9    1
     9     9    10    1
    10    10    11    1
    11    11    12   ar
    12    12    13   ar
    13    13    14   ar
    14    14    15   ar
    15    15    16   ar
    16     9    17    1
    17    17    18   ar
    18    18    19   ar
    19    19    20   ar
    20    20    21   ar
    21    21    22   ar
    22     7    23    1
    23    23    24    1
    24    24    25    1
    25    25    26    1
    26    26    27    1
    27    16    11   ar
    28    22    17   ar
    29    27    23    1
    30     1    28    1
    31     1    29    1
    32     1    30    1
    33     2    31    1
    34     3    32    1
    35     3    33    1
    36     3    34    1
    37     4    35    1
    38     4    36    1
    39     6    37    1
    40     6    38    1
    41     7    39    1
    42     8    40    1
    43     8    41    1
    44    10    42    1
    45    10    43    1
    46    12    44    1
    47    13    45    1
    48    14    46    1
    49    15    47    1
    50    16    48    1
    51    18    49    1
    52    19    50    1
    53    20    51    1
    54    21    52    1
    55    22    53    1
    56    24    54    1
    57    24    55    1
    58    25    56    1
    59    25    57    1
    60    26    58    1
    61    26    59    1
    62    27    60    1
    63    27    61    1
