@<TRIPOS>MOLECULE
*****
 48 50 0 0 0
SMALL
GASTEIGER

@<TRIPOS>ATOM
      1 C          -3.1966    2.1744   -2.7292 C.3     1  UNL1        0.0624
      2 O          -1.8720    2.4512   -2.3517 O.3     1  UNL1       -0.2807
      3 N          -1.5717    1.6527   -1.2595 N.am    1  UNL1       -0.1840
      4 C          -1.8458    2.2724   -0.0020 C.3     1  UNL1        0.0305
      5 C          -1.0314    0.3980   -1.5262 C.2     1  UNL1        0.2461
      6 O          -0.8477    0.1530   -2.7924 O.2     1  UNL1       -0.2730
      7 C          -0.6332   -0.6864   -0.6400 C.3     1  UNL1        0.0901
      8 C           0.1773   -0.3270    0.5588 C.3     1  UNL1        0.1174
      9 O           1.5546   -0.2235    0.1953 O.3     1  UNL1       -0.4570
     10 C           2.2318    0.9664    0.3286 C.2     1  UNL1        0.3395
     11 O           1.6130    1.9584    0.7777 O.2     1  UNL1       -0.2450
     12 C           3.6532    1.0608   -0.0515 C.ar    1  UNL1        0.0590
     13 C           4.3460    2.2458    0.0761 C.ar    1  UNL1       -0.0478
     14 C           5.6792    2.3284   -0.2820 C.ar    1  UNL1       -0.0610
     15 C           6.3646    1.2388   -0.7771 C.ar    1  UNL1       -0.0617
     16 C           5.6708    0.0533   -0.9045 C.ar    1  UNL1       -0.0610
     17 C           4.3367   -0.0282   -0.5458 C.ar    1  UNL1       -0.0478
     18 C           0.0396   -1.2480    1.7305 C.3     1  UNL1        0.0008
     19 C          -1.2492   -1.9948    1.7405 C.3     1  UNL1        0.0138
     20 C          -2.4850   -1.1407    1.7694 C.3     1  UNL1       -0.0358
     21 C          -2.9473   -1.1094    0.3266 C.3     1  UNL1       -0.0351
     22 C          -1.7537   -1.6322   -0.4014 C.3     1  UNL1        0.0250
     23 N          -1.3489   -2.7344    0.4743 N.3     1  UNL1       -0.2985
     24 C          -2.4562   -3.6724    0.4899 C.3     1  UNL1       -0.0122
     25 H          -3.4801    1.1266   -2.4376 H       1  UNL1        0.0547
     26 H          -3.3488    2.2557   -3.8161 H       1  UNL1        0.0547
     27 H          -3.8673    2.8416   -2.1388 H       1  UNL1        0.0547
     28 H          -2.2247    1.6584    0.8012 H       1  UNL1        0.0453
     29 H          -2.6558    3.0624   -0.1499 H       1  UNL1        0.0453
     30 H          -0.9193    2.8438    0.2795 H       1  UNL1        0.0453
     31 H           0.1072   -1.3645   -1.2804 H       1  UNL1        0.0447
     32 H          -0.1186    0.6788    0.9044 H       1  UNL1        0.0742
     33 H           3.8490    3.1254    0.4596 H       1  UNL1        0.0626
     34 H           6.1980    3.2526   -0.1764 H       1  UNL1        0.0618
     35 H           7.4128    1.2910   -1.0621 H       1  UNL1        0.0618
     36 H           6.2235   -0.7981   -1.2962 H       1  UNL1        0.0618
     37 H           3.8170   -0.9667   -0.6552 H       1  UNL1        0.0626
     38 H           0.1788   -0.6498    2.6702 H       1  UNL1        0.0316
     39 H           0.8563   -2.0059    1.7773 H       1  UNL1        0.0316
     40 H          -1.3310   -2.6992    2.6016 H       1  UNL1        0.0464
     41 H          -2.3616   -0.1740    2.2408 H       1  UNL1        0.0281
     42 H          -3.3069   -1.6632    2.3486 H       1  UNL1        0.0281
     43 H          -3.3619   -0.1702   -0.0152 H       1  UNL1        0.0281
     44 H          -3.7619   -1.8782    0.1694 H       1  UNL1        0.0281
     45 H          -2.0849   -2.0845   -1.3628 H       1  UNL1        0.0471
     46 H          -2.0454   -4.7038    0.5968 H       1  UNL1        0.0391
     47 H          -3.1809   -3.4643    1.3087 H       1  UNL1        0.0391
     48 H          -3.0218   -3.6704   -0.4566 H       1  UNL1        0.0391
@<TRIPOS>BOND
     1     1     2    1
     2     2     3    1
     3     3     4    1
     4     3     5   am
     5     5     6    2
     6     5     7    1
     7     7     8    1
     8     8     9    1
     9     9    10    1
    10    10    11    2
    11    10    12    1
    12    12    13   ar
    13    13    14   ar
    14    14    15   ar
    15    15    16   ar
    16    16    17   ar
    17     8    18    1
    18    18    19    1
    19    19    20    1
    20    20    21    1
    21    21    22    1
    22    22    23    1
    23    23    24    1
    24    22     7    1
    25    17    12   ar
    26    23    19    1
    27     1    25    1
    28     1    26    1
    29     1    27    1
    30     4    28    1
    31     4    29    1
    32     4    30    1
    33     7    31    1
    34     8    32    1
    35    13    33    1
    36    14    34    1
    37    15    35    1
    38    16    36    1
    39    17    37    1
    40    18    38    1
    41    18    39    1
    42    19    40    1
    43    20    41    1
    44    20    42    1
    45    21    43    1
    46    21    44    1
    47    22    45    1
    48    24    46    1
    49    24    47    1
    50    24    48    1
