
     RDKit          3D

 47 52  0  0  0  0  0  0  0  0999 V2000
   -5.2706   -0.1255    3.7664 O   0  0  0  0  0  0  0  0  0  0  0  0
   -5.1056   -0.0459    2.5290 C   0  0  0  0  0  0  0  0  0  0  0  0
   -5.9497    0.6138    1.6148 N   0  0  0  0  0  0  0  0  0  0  0  0
   -5.4119    0.4278    0.3126 C   0  0  0  0  0  0  0  0  0  0  0  0
   -5.8711    0.8544   -0.9429 C   0  0  0  0  0  0  0  0  0  0  0  0
   -5.2243    0.5578   -2.1193 C   0  0  0  0  0  0  0  0  0  0  0  0
   -4.0715   -0.1947   -2.0503 C   0  0  0  0  0  0  0  0  0  0  0  0
   -3.5944   -0.6302   -0.8158 C   0  0  0  0  0  0  0  0  0  0  0  0
   -4.2604   -0.3194    0.3491 C   0  0  0  0  0  0  0  0  0  0  0  0
   -3.9827   -0.6318    1.7660 C   0  0  2  0  0  0  0  0  0  0  0  0
   -3.3414   -1.9133    2.1349 C   0  0  0  0  0  0  0  0  0  0  0  0
   -2.6677   -0.5850    2.3895 C   0  0  1  0  0  0  0  0  0  0  0  0
   -1.4045   -0.2809    1.6774 C   0  0  0  0  0  0  0  0  0  0  0  0
   -0.2799   -1.0592    1.9259 C   0  0  0  0  0  0  0  0  0  0  0  0
    0.9221   -0.8074    1.2992 C   0  0  0  0  0  0  0  0  0  0  0  0
    1.0549    0.2281    0.4003 C   0  0  0  0  0  0  0  0  0  0  0  0
    2.1103    0.6884   -0.3471 C   0  0  0  0  0  0  0  0  0  0  0  0
    3.4852    0.1624   -0.3940 C   0  0  0  0  0  0  0  0  0  0  0  0
    4.4077    0.7035   -1.1616 C   0  0  0  0  0  0  0  0  0  0  0  0
    5.7862    0.2449   -1.2651 C   0  0  0  0  0  0  0  0  0  0  0  0
    6.2933   -0.8204   -0.5650 C   0  0  0  0  0  0  0  0  0  0  0  0
    7.6340   -1.1607   -0.7529 C   0  0  0  0  0  0  0  0  0  0  0  0
    8.4362   -0.4826   -1.5912 N   0  0  0  0  0  0  0  0  0  0  0  0
    7.9741    0.5719   -2.2982 C   0  0  0  0  0  0  0  0  0  0  0  0
    6.6545    0.9029   -2.1100 C   0  0  0  0  0  0  0  0  0  0  0  0
    1.6382    1.7356   -1.0446 N   0  0  0  0  0  0  0  0  0  0  0  0
    0.3628    1.9298   -0.7592 N   0  0  0  0  0  0  0  0  0  0  0  0
   -0.0538    1.0206    0.1348 C   0  0  0  0  0  0  0  0  0  0  0  0
   -1.2648    0.7526    0.7781 C   0  0  0  0  0  0  0  0  0  0  0  0
   -6.8344    1.1624    1.8058 H   0  0  0  0  0  0  0  0  0  0  0  0
   -6.7721    1.4428   -0.9997 H   0  0  0  0  0  0  0  0  0  0  0  0
   -5.5788    0.8872   -3.0883 H   0  0  0  0  0  0  0  0  0  0  0  0
   -3.5705   -0.4238   -2.9728 H   0  0  0  0  0  0  0  0  0  0  0  0
   -2.6925   -1.2196   -0.7776 H   0  0  0  0  0  0  0  0  0  0  0  0
   -2.9040   -2.5065    1.2987 H   0  0  0  0  0  0  0  0  0  0  0  0
   -3.6318   -2.5145    2.9974 H   0  0  0  0  0  0  0  0  0  0  0  0
   -2.6158   -0.3377    3.4968 H   0  0  0  0  0  0  0  0  0  0  0  0
   -0.3838   -1.8695    2.6294 H   0  0  0  0  0  0  0  0  0  0  0  0
    1.8100   -1.4055    1.4819 H   0  0  0  0  0  0  0  0  0  0  0  0
    3.7697   -0.6882    0.2071 H   0  0  0  0  0  0  0  0  0  0  0  0
    4.1155    1.5566   -1.7620 H   0  0  0  0  0  0  0  0  0  0  0  0
    5.6607   -1.3579    0.0984 H   0  0  0  0  0  0  0  0  0  0  0  0
    8.0399   -1.9994   -0.2040 H   0  0  0  0  0  0  0  0  0  0  0  0
    8.6281    1.1209   -2.9786 H   0  0  0  0  0  0  0  0  0  0  0  0
    6.2914    1.7502   -2.6809 H   0  0  0  0  0  0  0  0  0  0  0  0
   -0.2278    2.6741   -1.1659 H   0  0  0  0  0  0  0  0  0  0  0  0
   -2.1089    1.3908    0.5579 H   0  0  0  0  0  0  0  0  0  0  0  0
  1  2  2  0
  2  3  1  0
  3  4  1  0
  4  5  2  0
  5  6  1  0
  6  7  2  0
  7  8  1  0
  8  9  2  0
  9 10  1  0
 10 11  1  6
 11 12  1  0
 12 13  1  0
 13 14  2  0
 14 15  1  0
 15 16  2  0
 16 17  1  0
 17 18  1  0
 18 19  2  0
 19 20  1  0
 20 21  2  0
 21 22  1  0
 22 23  2  0
 23 24  1  0
 24 25  2  0
 17 26  2  0
 26 27  1  0
 27 28  1  0
 28 29  2  0
 10  2  1  0
 29 13  1  0
  9  4  1  0
 12 10  1  0
 28 16  1  0
 25 20  1  0
  3 30  1  0
  5 31  1  0
  6 32  1  0
  7 33  1  0
  8 34  1  0
 11 35  1  0
 11 36  1  0
 12 37  1  1
 14 38  1  0
 15 39  1  0
 18 40  1  0
 19 41  1  0
 21 42  1  0
 22 43  1  0
 24 44  1  0
 25 45  1  0
 27 46  1  0
 29 47  1  0
M  END
$$$$
