@<TRIPOS>MOLECULE
*****
 47 52 0 0 0
SMALL
GASTEIGER

@<TRIPOS>ATOM
      1 O          -5.2706   -0.1255    3.7664 O.2     1  UNL1       -0.2745
      2 C          -5.1056   -0.0459    2.5290 C.2     1  UNL1        0.2284
      3 N          -5.9497    0.6138    1.6148 N.am    1  UNL1       -0.2845
      4 C          -5.4119    0.4278    0.3126 C.ar    1  UNL1        0.0376
      5 C          -5.8711    0.8544   -0.9429 C.ar    1  UNL1       -0.0402
      6 C          -5.2243    0.5578   -2.1193 C.ar    1  UNL1       -0.0600
      7 C          -4.0715   -0.1947   -2.0503 C.ar    1  UNL1       -0.0614
      8 C          -3.5944   -0.6302   -0.8158 C.ar    1  UNL1       -0.0558
      9 C          -4.2604   -0.3194    0.3491 C.ar    1  UNL1       -0.0106
     10 C          -3.9827   -0.6318    1.7660 C.3     1  UNL1        0.0812
     11 C          -3.3414   -1.9133    2.1349 C.3     1  UNL1       -0.0263
     12 C          -2.6677   -0.5850    2.3895 C.3     1  UNL1        0.0035
     13 C          -1.4045   -0.2809    1.6774 C.ar    1  UNL1       -0.0409
     14 C          -0.2799   -1.0592    1.9259 C.ar    1  UNL1       -0.0575
     15 C           0.9221   -0.8074    1.2992 C.ar    1  UNL1       -0.0502
     16 C           1.0549    0.2281    0.4003 C.ar    1  UNL1        0.0268
     17 C           2.1103    0.6884   -0.3471 C.ar    1  UNL1        0.0931
     18 C           3.4852    0.1624   -0.3940 C.2     1  UNL1       -0.0334
     19 C           4.4077    0.7035   -1.1616 C.2     1  UNL1       -0.0524
     20 C           5.7862    0.2449   -1.2651 C.ar    1  UNL1       -0.0221
     21 C           6.2933   -0.8204   -0.5650 C.ar    1  UNL1       -0.0364
     22 C           7.6340   -1.1607   -0.7529 C.ar    1  UNL1        0.0281
     23 N           8.4362   -0.4826   -1.5912 N.ar    1  UNL1       -0.2632
     24 C           7.9741    0.5719   -2.2982 C.ar    1  UNL1        0.0281
     25 C           6.6545    0.9029   -2.1100 C.ar    1  UNL1       -0.0364
     26 N           1.6382    1.7356   -1.0446 N.ar    1  UNL1       -0.1733
     27 N           0.3628    1.9298   -0.7592 N.ar    1  UNL1       -0.2764
     28 C          -0.0538    1.0206    0.1348 C.ar    1  UNL1        0.0666
     29 C          -1.2648    0.7526    0.7781 C.ar    1  UNL1       -0.0328
     30 H          -6.8344    1.1624    1.8058 H       1  UNL1        0.1548
     31 H          -6.7721    1.4428   -0.9997 H       1  UNL1        0.0636
     32 H          -5.5788    0.8872   -3.0883 H       1  UNL1        0.0618
     33 H          -3.5705   -0.4238   -2.9728 H       1  UNL1        0.0618
     34 H          -2.6925   -1.2196   -0.7776 H       1  UNL1        0.0621
     35 H          -2.9040   -2.5065    1.2987 H       1  UNL1        0.0285
     36 H          -3.6318   -2.5145    2.9974 H       1  UNL1        0.0285
     37 H          -2.6158   -0.3377    3.4968 H       1  UNL1        0.0362
     38 H          -0.3838   -1.8695    2.6294 H       1  UNL1        0.0621
     39 H           1.8100   -1.4055    1.4819 H       1  UNL1        0.0625
     40 H           3.7697   -0.6882    0.2071 H       1  UNL1        0.0640
     41 H           4.1155    1.5566   -1.7620 H       1  UNL1        0.0624
     42 H           5.6607   -1.3579    0.0984 H       1  UNL1        0.0639
     43 H           8.0399   -1.9994   -0.2040 H       1  UNL1        0.0830
     44 H           8.6281    1.1209   -2.9786 H       1  UNL1        0.0830
     45 H           6.2914    1.7502   -2.6809 H       1  UNL1        0.0639
     46 H          -0.2278    2.6741   -1.1659 H       1  UNL1        0.1889
     47 H          -2.1089    1.3908    0.5579 H       1  UNL1        0.0642
@<TRIPOS>BOND
     1     1     2    2
     2     2     3   am
     3     3     4    1
     4     4     5   ar
     5     5     6   ar
     6     6     7   ar
     7     7     8   ar
     8     8     9   ar
     9     9    10    1
    10    10    11    1
    11    11    12    1
    12    12    13    1
    13    13    14   ar
    14    14    15   ar
    15    15    16   ar
    16    16    17   ar
    17    17    18    1
    18    18    19    2
    19    19    20    1
    20    20    21   ar
    21    21    22   ar
    22    22    23   ar
    23    23    24   ar
    24    24    25   ar
    25    17    26   ar
    26    26    27   ar
    27    27    28   ar
    28    28    29   ar
    29    10     2    1
    30    29    13   ar
    31     9     4   ar
    32    12    10    1
    33    28    16   ar
    34    25    20   ar
    35     3    30    1
    36     5    31    1
    37     6    32    1
    38     7    33    1
    39     8    34    1
    40    11    35    1
    41    11    36    1
    42    12    37    1
    43    14    38    1
    44    15    39    1
    45    18    40    1
    46    19    41    1
    47    21    42    1
    48    22    43    1
    49    24    44    1
    50    25    45    1
    51    27    46    1
    52    29    47    1
