
     RDKit          3D

 45 47  0  0  0  0  0  0  0  0999 V2000
   -2.5140   -2.3153   -1.3746 C   0  0  0  0  0  0  0  0  0  0  0  0
   -2.2915   -0.8600   -1.0152 C   0  0  1  0  0  0  0  0  0  0  0  0
   -1.0356   -0.3712   -1.6197 C   0  0  0  0  0  0  0  0  0  0  0  0
   -0.0338    0.1378   -0.7836 C   0  0  0  0  0  0  0  0  0  0  0  0
    1.1575    0.6144   -1.2828 C   0  0  0  0  0  0  0  0  0  0  0  0
    2.1864    1.1368   -0.4276 N   0  0  0  0  0  0  0  0  0  0  0  0
    3.1968    0.2944    0.1093 C   0  0  0  0  0  0  0  0  0  0  0  0
    3.1353   -0.9214   -0.2059 O   0  0  0  0  0  0  0  0  0  0  0  0
    4.2572    0.7751    0.9771 C   0  0  0  0  0  0  0  0  0  0  0  0
    4.3915    2.0556    1.3536 N   0  0  0  0  0  0  0  0  0  0  0  0
    5.3576    2.5199    2.1496 C   0  0  0  0  0  0  0  0  0  0  0  0
    6.3160    1.6643    2.6516 C   0  0  0  0  0  0  0  0  0  0  0  0
    7.3712    2.1326    3.5128 C   0  0  0  0  0  0  0  0  0  0  0  0
    8.2210    2.5301    4.2237 N   0  0  0  0  0  0  0  0  0  0  0  0
    6.2304    0.3208    2.2964 C   0  0  0  0  0  0  0  0  0  0  0  0
    5.2008   -0.1056    1.4629 C   0  0  0  0  0  0  0  0  0  0  0  0
    5.1466   -1.8108    1.0507 Cl  0  0  0  0  0  0  0  0  0  0  0  0
    1.3338    0.5733   -2.6518 C   0  0  0  0  0  0  0  0  0  0  0  0
    0.3641    0.0774   -3.4981 C   0  0  0  0  0  0  0  0  0  0  0  0
    0.5294    0.0334   -4.8459 F   0  0  0  0  0  0  0  0  0  0  0  0
   -0.8418   -0.4034   -2.9726 C   0  0  0  0  0  0  0  0  0  0  0  0
   -1.8053   -0.9001   -3.7748 F   0  0  0  0  0  0  0  0  0  0  0  0
   -3.4380   -0.0797   -1.6197 C   0  0  0  0  0  0  0  0  0  0  0  0
   -4.6952   -0.1070   -0.8172 C   0  0  1  0  0  0  0  0  0  0  0  0
   -5.8779   -0.6271   -1.6124 C   0  0  0  0  0  0  0  0  0  0  0  0
   -6.0959    0.1802   -2.7089 F   0  0  0  0  0  0  0  0  0  0  0  0
   -5.6663   -1.9383   -1.9886 F   0  0  0  0  0  0  0  0  0  0  0  0
   -7.0361   -0.6010   -0.8608 F   0  0  0  0  0  0  0  0  0  0  0  0
   -4.5798   -0.7672    0.4286 O   0  0  0  0  0  0  0  0  0  0  0  0
   -3.3681   -0.6974    1.0859 C   0  0  0  0  0  0  0  0  0  0  0  0
   -3.3482   -0.5773    2.5267 N   0  0  0  0  0  0  0  0  0  0  0  0
   -2.2738   -0.7390    0.4249 N   0  0  0  0  0  0  0  0  0  0  0  0
   -2.9808   -2.3887   -2.3810 H   0  0  0  0  0  0  0  0  0  0  0  0
   -1.5717   -2.9019   -1.2953 H   0  0  0  0  0  0  0  0  0  0  0  0
   -3.2350   -2.7890   -0.6700 H   0  0  0  0  0  0  0  0  0  0  0  0
   -0.2104    0.1529    0.2855 H   0  0  0  0  0  0  0  0  0  0  0  0
    2.2185    2.1489   -0.1783 H   0  0  0  0  0  0  0  0  0  0  0  0
    5.4482    3.5597    2.4417 H   0  0  0  0  0  0  0  0  0  0  0  0
    6.9730   -0.3694    2.6793 H   0  0  0  0  0  0  0  0  0  0  0  0
    2.2676    0.9470   -3.0445 H   0  0  0  0  0  0  0  0  0  0  0  0
   -3.0637    0.9662   -1.7918 H   0  0  0  0  0  0  0  0  0  0  0  0
   -3.6970   -0.4695   -2.6344 H   0  0  0  0  0  0  0  0  0  0  0  0
   -4.9594    0.9637   -0.5725 H   0  0  0  0  0  0  0  0  0  0  0  0
   -3.3753    0.3734    2.9473 H   0  0  0  0  0  0  0  0  0  0  0  0
   -3.3082   -1.4174    3.1157 H   0  0  0  0  0  0  0  0  0  0  0  0
  2  1  1  1
  2  3  1  0
  3  4  2  0
  4  5  1  0
  5  6  1  0
  6  7  1  0
  7  8  2  0
  7  9  1  0
  9 10  2  0
 10 11  1  0
 11 12  2  0
 12 13  1  0
 13 14  3  0
 12 15  1  0
 15 16  2  0
 16 17  1  0
  5 18  2  0
 18 19  1  0
 19 20  1  0
 19 21  2  0
 21 22  1  0
  2 23  1  0
 23 24  1  0
 24 25  1  0
 25 26  1  0
 25 27  1  0
 25 28  1  0
 24 29  1  0
 29 30  1  0
 30 31  1  0
 30 32  2  0
 32  2  1  0
 21  3  1  0
 16  9  1  0
  1 33  1  0
  1 34  1  0
  1 35  1  0
  4 36  1  0
  6 37  1  0
 11 38  1  0
 15 39  1  0
 18 40  1  0
 23 41  1  0
 23 42  1  0
 24 43  1  1
 31 44  1  0
 31 45  1  0
M  END
$$$$
