@<TRIPOS>MOLECULE
*****
 45 47 0 0 0
SMALL
GASTEIGER

@<TRIPOS>ATOM
      1 C          -2.5140   -2.3153   -1.3746 C.3     1  UNL1       -0.0352
      2 C          -2.2915   -0.8600   -1.0152 C.3     1  UNL1        0.0952
      3 C          -1.0356   -0.3712   -1.6197 C.ar    1  UNL1        0.0197
      4 C          -0.0338    0.1378   -0.7836 C.ar    1  UNL1       -0.0321
      5 C           1.1575    0.6144   -1.2828 C.ar    1  UNL1        0.0369
      6 N           2.1864    1.1368   -0.4276 N.am    1  UNL1       -0.2801
      7 C           3.1968    0.2944    0.1093 C.2     1  UNL1        0.2680
      8 O           3.1353   -0.9214   -0.2059 O.2     1  UNL1       -0.2681
      9 C           4.2572    0.7751    0.9771 C.ar    1  UNL1        0.1439
     10 N           4.3915    2.0556    1.3536 N.ar    1  UNL1       -0.2476
     11 C           5.3576    2.5199    2.1496 C.ar    1  UNL1        0.0459
     12 C           6.3160    1.6643    2.6516 C.ar    1  UNL1        0.0712
     13 C           7.3712    2.1326    3.5128 C.1     1  UNL1        0.1007
     14 N           8.2210    2.5301    4.2237 N.1     1  UNL1       -0.1908
     15 C           6.2304    0.3208    2.2964 C.ar    1  UNL1       -0.0223
     16 C           5.2008   -0.1056    1.4629 C.ar    1  UNL1        0.0726
     17 CL          5.1466   -1.8108    1.0507 Cl      1  UNL1       -0.0811
     18 C           1.3338    0.5733   -2.6518 C.ar    1  UNL1       -0.0023
     19 C           0.3641    0.0774   -3.4981 C.ar    1  UNL1        0.1605
     20 F           0.5294    0.0334   -4.8459 F       1  UNL1       -0.2024
     21 C          -0.8418   -0.4034   -2.9726 C.ar    1  UNL1        0.1640
     22 F          -1.8053   -0.9001   -3.7748 F       1  UNL1       -0.2021
     23 C          -3.4380   -0.0797   -1.6197 C.3     1  UNL1        0.0223
     24 C          -4.6952   -0.1070   -0.8172 C.3     1  UNL1        0.1997
     25 C          -5.8779   -0.6271   -1.6124 C.3     1  UNL1        0.4266
     26 F          -6.0959    0.1802   -2.7089 F       1  UNL1       -0.1669
     27 F          -5.6663   -1.9383   -1.9886 F       1  UNL1       -0.1669
     28 F          -7.0361   -0.6010   -0.8608 F       1  UNL1       -0.1669
     29 O          -4.5798   -0.7672    0.4286 O.2     1  UNL1       -0.4534
     30 C          -3.3681   -0.6974    1.0859 C.2     1  UNL1        0.2765
     31 N          -3.3482   -0.5773    2.5267 N.pl3   1  UNL1       -0.3134
     32 N          -2.2738   -0.7390    0.4249 N.2     1  UNL1       -0.2257
     33 H          -2.9808   -2.3887   -2.3810 H       1  UNL1        0.0256
     34 H          -1.5717   -2.9019   -1.2953 H       1  UNL1        0.0256
     35 H          -3.2350   -2.7890   -0.6700 H       1  UNL1        0.0256
     36 H          -0.2104    0.1529    0.2855 H       1  UNL1        0.0640
     37 H           2.2185    2.1489   -0.1783 H       1  UNL1        0.1552
     38 H           5.4482    3.5597    2.4417 H       1  UNL1        0.0843
     39 H           6.9730   -0.3694    2.6793 H       1  UNL1        0.0646
     40 H           2.2676    0.9470   -3.0445 H       1  UNL1        0.0666
     41 H          -3.0637    0.9662   -1.7918 H       1  UNL1        0.0330
     42 H          -3.6970   -0.4695   -2.6344 H       1  UNL1        0.0330
     43 H          -4.9594    0.9637   -0.5725 H       1  UNL1        0.0826
     44 H          -3.3753    0.3734    2.9473 H       1  UNL1        0.1466
     45 H          -3.3082   -1.4174    3.1157 H       1  UNL1        0.1466
@<TRIPOS>BOND
     1     2     1    1
     2     2     3    1
     3     3     4   ar
     4     4     5   ar
     5     5     6    1
     6     6     7   am
     7     7     8    2
     8     7     9    1
     9     9    10   ar
    10    10    11   ar
    11    11    12   ar
    12    12    13    1
    13    13    14    3
    14    12    15   ar
    15    15    16   ar
    16    16    17    1
    17     5    18   ar
    18    18    19   ar
    19    19    20    1
    20    19    21   ar
    21    21    22    1
    22     2    23    1
    23    23    24    1
    24    24    25    1
    25    25    26    1
    26    25    27    1
    27    25    28    1
    28    24    29    1
    29    29    30    1
    30    30    31    1
    31    30    32    2
    32    32     2    1
    33    21     3   ar
    34    16     9   ar
    35     1    33    1
    36     1    34    1
    37     1    35    1
    38     4    36    1
    39     6    37    1
    40    11    38    1
    41    15    39    1
    42    18    40    1
    43    23    41    1
    44    23    42    1
    45    24    43    1
    46    31    44    1
    47    31    45    1
