@<TRIPOS>MOLECULE
*****
 49 51 0 0 0
SMALL
GASTEIGER

@<TRIPOS>ATOM
      1 O          -4.1003    0.8925   -1.9342 O.3     0  UNK0       -0.3864
      2 C          -3.3276    0.3759   -0.9246 C.3     0  UNK0        0.1135
      3 C          -3.6807    0.9598    0.4500 C.3     0  UNK0        0.1134
      4 C          -4.8906    0.2363    1.0052 C.3     0  UNK0        0.0878
      5 O          -6.0522    0.5517    0.3602 O.3     0  UNK0       -0.2841
      6 P          -7.4103   -0.2334    0.9481 P.3     0  UNK0        0.4724
      7 O          -7.0879   -1.7854    1.5174 O.3     0  UNK0       -0.3026
      8 O          -8.0154    0.6736    2.2426 O.3     0  UNK0       -0.3026
      9 O          -8.5095   -0.3296   -0.0846 O.2     0  UNK0       -0.2275
     10 O          -2.5196    0.6030    1.1437 O.3     0  UNK0       -0.3456
     11 C          -1.4800    1.0589    0.3731 C.3     0  UNK0        0.1667
     12 C          -1.9023    0.8605   -1.0841 C.3     0  UNK0        0.1285
     13 O          -1.9321    2.0759   -1.7270 O.3     0  UNK0       -0.3847
     14 N          -0.2483    0.2954    0.6115 N.ar    0  UNK0       -0.2855
     15 C          -0.2108   -0.8256    1.3535 C.ar    0  UNK0        0.1004
     16 N           1.0856   -1.2331    1.3395 N.ar    0  UNK0       -0.2306
     17 C           1.7576   -0.3569    0.6045 C.ar    0  UNK0        0.1475
     18 C           3.1182   -0.3342    0.2885 C.ar    0  UNK0        0.1503
     19 N           4.0841   -1.2655    0.7227 N.pl3   1  ASP1       -0.3141
     20 CA          5.4932   -1.4915    0.5566 C.3     1  ASP1        0.1295
     21 CB          5.8356   -1.9298   -0.8403 C.3     1  ASP1        0.0734
     22 CG          5.4596   -0.9276   -1.8233 C.2     1  ASP1        0.3070
     23 OD1         5.2256   -0.1852   -2.9712 O.3     1  ASP1       -0.4806
     24 OD2         5.8272   -1.4483   -2.9377 O.2     1  ASP1       -0.2509
     25 C           6.2590   -0.2330    0.9019 C.2     1  ASP1        0.3258
     26 O           7.6301   -0.2247    0.8124 O.3     1  ASP1       -0.4793
     27 OXT         5.6498    0.8084    1.2712 O.2     1  ASP1       -0.2489
     28 N           3.6036    0.6470   -0.4755 N.ar    0  UNK0       -0.2186
     29 C           2.7945    1.6071   -0.9392 C.ar    0  UNK0        0.1205
     30 N           1.4612    1.6146   -0.6494 N.ar    0  UNK0       -0.2159
     31 C           0.9533    0.6375    0.1169 C.ar    0  UNK0        0.1674
     32 H          -4.9251    0.3390   -1.9718 H       0  UNK0        0.2100
     33 H          -3.3571   -0.7305   -0.8518 H       0  UNK0        0.0647
     34 H          -3.8019    2.0424    0.3642 H       0  UNK0        0.0647
     35 H          -5.0134    0.6191    2.0575 H       0  UNK0        0.0592
     36 H          -4.6447   -0.8196    1.1087 H       0  UNK0        0.0592
     37 H          -7.0294   -2.4657    0.8057 H       0  UNK0        0.2220
     38 H          -8.2850    1.5651    1.8774 H       0  UNK0        0.2220
     39 H          -1.3387    2.1422    0.5920 H       0  UNK0        0.0866
     40 H          -1.2583    0.0945   -1.5635 H       0  UNK0        0.0665
     41 H          -1.9650    2.8338   -1.0929 H       0  UNK0        0.2101
     42 H          -1.0515   -1.2893    1.8497 H       0  UNK0        0.1030
     43 H           3.6111   -1.9883    1.3398 H       1  ASP1        0.1483
     44 HA          5.8471   -2.2829    1.2673 H       1  ASP1        0.0619
     45 HB1         6.9248   -2.2145   -0.8813 H       1  ASP1        0.0401
     46 HB2         5.2122   -2.8601   -1.0244 H       1  ASP1        0.0401
     47 HD1         4.9583    0.8063   -2.9113 H       1  ASP1        0.2951
     48 H           8.0973    0.6891    0.8509 H       1  ASP1        0.2951
     49 H           3.1485    2.4249   -1.5647 H       0  UNK0        0.1048
@<TRIPOS>BOND
     1     1     2    1
     2     2     3    1
     3     3     4    1
     4     4     5    1
     5     5     6    1
     6     6     7    1
     7     6     8    1
     8     6     9    2
     9     3    10    1
    10    10    11    1
    11    11    12    1
    12    12    13    1
    13    11    14    1
    14    14    15   ar
    15    15    16   ar
    16    16    17   ar
    17    17    18   ar
    18    18    19    1
    19    19    20    1
    20    20    21    1
    21    21    22    1
    22    22    23    1
    23    22    24    2
    24    20    25    1
    25    25    26    1
    26    25    27    2
    27    18    28   ar
    28    28    29   ar
    29    29    30   ar
    30    30    31   ar
    31    12     2    1
    32    31    14   ar
    33    31    17   ar
    34     1    32    1
    35     2    33    1
    36     3    34    1
    37     4    35    1
    38     4    36    1
    39     7    37    1
    40     8    38    1
    41    11    39    1
    42    12    40    1
    43    13    41    1
    44    15    42    1
    45    19    43    1
    46    20    44    1
    47    21    45    1
    48    21    46    1
    49    23    47    1
    50    26    48    1
    51    29    49    1
