
     RDKit          3D

 49 51  0  0  0  0  0  0  0  0999 V2000
   -4.1003    0.8925   -1.9342 O   0  0  0  0  0  0  0  0  0  0  0  0
   -3.3276    0.3759   -0.9246 C   0  0  2  0  0  0  0  0  0  0  0  0
   -3.6807    0.9598    0.4500 C   0  0  1  0  0  0  0  0  0  0  0  0
   -4.8906    0.2363    1.0052 C   0  0  0  0  0  0  0  0  0  0  0  0
   -6.0522    0.5517    0.3602 O   0  0  0  0  0  0  0  0  0  0  0  0
   -7.4103   -0.2334    0.9481 P   0  0  0  0  0  0  0  0  0  0  0  0
   -7.0879   -1.7854    1.5174 O   0  0  0  0  0  0  0  0  0  0  0  0
   -8.0154    0.6736    2.2426 O   0  0  0  0  0  0  0  0  0  0  0  0
   -8.5095   -0.3296   -0.0846 O   0  0  0  0  0  0  0  0  0  0  0  0
   -2.5196    0.6030    1.1437 O   0  0  0  0  0  0  0  0  0  0  0  0
   -1.4800    1.0589    0.3731 C   0  0  2  0  0  0  0  0  0  0  0  0
   -1.9023    0.8605   -1.0841 C   0  0  2  0  0  0  0  0  0  0  0  0
   -1.9321    2.0759   -1.7270 O   0  0  0  0  0  0  0  0  0  0  0  0
   -0.2483    0.2954    0.6115 N   0  0  0  0  0  0  0  0  0  0  0  0
   -0.2108   -0.8256    1.3535 C   0  0  0  0  0  0  0  0  0  0  0  0
    1.0856   -1.2331    1.3395 N   0  0  0  0  0  0  0  0  0  0  0  0
    1.7576   -0.3569    0.6045 C   0  0  0  0  0  0  0  0  0  0  0  0
    3.1182   -0.3342    0.2885 C   0  0  0  0  0  0  0  0  0  0  0  0
    4.0841   -1.2655    0.7227 N   0  0  0  0  0  0  0  0  0  0  0  0
    5.4932   -1.4915    0.5566 C   0  0  1  0  0  0  0  0  0  0  0  0
    5.8356   -1.9298   -0.8403 C   0  0  0  0  0  0  0  0  0  0  0  0
    5.4596   -0.9276   -1.8233 C   0  0  0  0  0  0  0  0  0  0  0  0
    5.2256   -0.1852   -2.9712 O   0  0  0  0  0  0  0  0  0  0  0  0
    5.8272   -1.4483   -2.9377 O   0  0  0  0  0  0  0  0  0  0  0  0
    6.2590   -0.2330    0.9019 C   0  0  0  0  0  0  0  0  0  0  0  0
    7.6301   -0.2247    0.8124 O   0  0  0  0  0  0  0  0  0  0  0  0
    5.6498    0.8084    1.2712 O   0  0  0  0  0  0  0  0  0  0  0  0
    3.6036    0.6470   -0.4755 N   0  0  0  0  0  0  0  0  0  0  0  0
    2.7945    1.6071   -0.9392 C   0  0  0  0  0  0  0  0  0  0  0  0
    1.4612    1.6146   -0.6494 N   0  0  0  0  0  0  0  0  0  0  0  0
    0.9533    0.6375    0.1169 C   0  0  0  0  0  0  0  0  0  0  0  0
   -4.9251    0.3390   -1.9718 H   0  0  0  0  0  0  0  0  0  0  0  0
   -3.3571   -0.7305   -0.8518 H   0  0  0  0  0  0  0  0  0  0  0  0
   -3.8019    2.0424    0.3642 H   0  0  0  0  0  0  0  0  0  0  0  0
   -5.0134    0.6191    2.0575 H   0  0  0  0  0  0  0  0  0  0  0  0
   -4.6447   -0.8196    1.1087 H   0  0  0  0  0  0  0  0  0  0  0  0
   -7.0294   -2.4657    0.8057 H   0  0  0  0  0  0  0  0  0  0  0  0
   -8.2850    1.5651    1.8774 H   0  0  0  0  0  0  0  0  0  0  0  0
   -1.3387    2.1422    0.5920 H   0  0  0  0  0  0  0  0  0  0  0  0
   -1.2583    0.0945   -1.5635 H   0  0  0  0  0  0  0  0  0  0  0  0
   -1.9650    2.8338   -1.0929 H   0  0  0  0  0  0  0  0  0  0  0  0
   -1.0515   -1.2893    1.8497 H   0  0  0  0  0  0  0  0  0  0  0  0
    3.6111   -1.9883    1.3398 H   0  0  0  0  0  0  0  0  0  0  0  0
    5.8471   -2.2829    1.2673 H   0  0  0  0  0  0  0  0  0  0  0  0
    6.9248   -2.2145   -0.8813 H   0  0  0  0  0  0  0  0  0  0  0  0
    5.2122   -2.8601   -1.0244 H   0  0  0  0  0  0  0  0  0  0  0  0
    4.9583    0.8063   -2.9113 H   0  0  0  0  0  0  0  0  0  0  0  0
    8.0973    0.6891    0.8509 H   0  0  0  0  0  0  0  0  0  0  0  0
    3.1485    2.4249   -1.5647 H   0  0  0  0  0  0  0  0  0  0  0  0
  1  2  1  0
  2  3  1  0
  3  4  1  0
  4  5  1  0
  5  6  1  0
  6  7  1  0
  6  8  1  0
  6  9  2  0
  3 10  1  0
 10 11  1  0
 11 12  1  0
 12 13  1  0
 11 14  1  0
 14 15  1  0
 15 16  2  0
 16 17  1  0
 17 18  2  0
 18 19  1  0
 19 20  1  0
 20 21  1  0
 21 22  1  0
 22 23  1  0
 22 24  2  0
 20 25  1  0
 25 26  1  0
 25 27  2  0
 18 28  1  0
 28 29  2  0
 29 30  1  0
 30 31  2  0
 12  2  1  0
 31 14  1  0
 31 17  1  0
  1 32  1  0
  2 33  1  1
  3 34  1  6
  4 35  1  0
  4 36  1  0
  7 37  1  0
  8 38  1  0
 11 39  1  6
 12 40  1  6
 13 41  1  0
 15 42  1  0
 19 43  1  0
 20 44  1  1
 21 45  1  0
 21 46  1  0
 23 47  1  0
 26 48  1  0
 29 49  1  0
M  END
$$$$
