
     RDKit          3D

 46 49  0  0  0  0  0  0  0  0999 V2000
   -3.1727   -3.0455    1.0227 C   0  0  0  0  0  0  0  0  0  0  0  0
   -2.3514   -2.9100   -0.2358 C   0  0  1  0  0  0  0  0  0  0  0  0
   -2.6783   -3.9904   -1.0533 O   0  0  0  0  0  0  0  0  0  0  0  0
   -2.8216   -1.6510   -0.9297 C   0  0  0  0  0  0  0  0  0  0  0  0
   -2.6384   -0.4800   -0.0970 N   0  0  0  0  0  0  0  0  0  0  0  0
   -3.5025    0.0473    0.7905 C   0  0  0  0  0  0  0  0  0  0  0  0
   -2.9350    1.1486    1.3647 N   0  0  0  0  0  0  0  0  0  0  0  0
   -1.7039    1.3236    0.8403 C   0  0  0  0  0  0  0  0  0  0  0  0
   -0.7297    2.3623    1.1438 C   0  0  0  0  0  0  0  0  0  0  0  0
   -0.2224    2.4969    2.4181 C   0  0  0  0  0  0  0  0  0  0  0  0
    0.6977    3.4540    2.7736 C   0  0  0  0  0  0  0  0  0  0  0  0
    1.1628    4.3450    1.8375 C   0  0  0  0  0  0  0  0  0  0  0  0
    2.0780    5.3121    2.1585 F   0  0  0  0  0  0  0  0  0  0  0  0
    0.6740    4.2354    0.5533 C   0  0  0  0  0  0  0  0  0  0  0  0
   -0.2533    3.2671    0.2056 C   0  0  0  0  0  0  0  0  0  0  0  0
   -1.5580    0.2902   -0.0642 C   0  0  0  0  0  0  0  0  0  0  0  0
   -0.3631    0.0736   -0.8814 C   0  0  0  0  0  0  0  0  0  0  0  0
   -0.4210    0.1766   -2.2513 C   0  0  0  0  0  0  0  0  0  0  0  0
    0.7161   -0.0346   -2.9923 C   0  0  0  0  0  0  0  0  0  0  0  0
    1.9258   -0.3522   -2.3674 C   0  0  0  0  0  0  0  0  0  0  0  0
    3.1490   -0.5989   -2.8966 N   0  0  0  0  0  0  0  0  0  0  0  0
    3.9910   -0.8580   -1.8956 C   0  0  0  0  0  0  0  0  0  0  0  0
    3.2673   -0.7683   -0.7269 C   0  0  0  0  0  0  0  0  0  0  0  0
    3.7833   -0.9766    0.6125 C   0  0  0  0  0  0  0  0  0  0  0  0
    5.1515   -1.3104    0.8046 N   0  0  0  0  0  0  0  0  0  0  0  0
    3.0746   -0.8771    1.6439 O   0  0  0  0  0  0  0  0  0  0  0  0
    1.9773   -0.4514   -1.0335 N   0  0  0  0  0  0  0  0  0  0  0  0
    0.8586   -0.2417   -0.3279 C   0  0  0  0  0  0  0  0  0  0  0  0
   -3.2124   -4.1090    1.3070 H   0  0  0  0  0  0  0  0  0  0  0  0
   -2.7943   -2.3804    1.8174 H   0  0  0  0  0  0  0  0  0  0  0  0
   -4.2026   -2.7106    0.7928 H   0  0  0  0  0  0  0  0  0  0  0  0
   -1.2613   -2.8926   -0.0535 H   0  0  0  0  0  0  0  0  0  0  0  0
   -2.6930   -3.7265   -2.0080 H   0  0  0  0  0  0  0  0  0  0  0  0
   -3.8892   -1.8130   -1.1839 H   0  0  0  0  0  0  0  0  0  0  0  0
   -2.2829   -1.5899   -1.8825 H   0  0  0  0  0  0  0  0  0  0  0  0
   -4.4909   -0.3112    1.0375 H   0  0  0  0  0  0  0  0  0  0  0  0
   -0.5915    1.7849    3.1754 H   0  0  0  0  0  0  0  0  0  0  0  0
    1.0405    3.4921    3.7862 H   0  0  0  0  0  0  0  0  0  0  0  0
    1.0616    4.9552   -0.1716 H   0  0  0  0  0  0  0  0  0  0  0  0
   -0.6088    3.2134   -0.7957 H   0  0  0  0  0  0  0  0  0  0  0  0
   -1.3461    0.4200   -2.7389 H   0  0  0  0  0  0  0  0  0  0  0  0
    0.7339    0.0315   -4.0656 H   0  0  0  0  0  0  0  0  0  0  0  0
    5.0596   -1.1018   -1.9245 H   0  0  0  0  0  0  0  0  0  0  0  0
    5.6151   -2.0577    0.2094 H   0  0  0  0  0  0  0  0  0  0  0  0
    5.7635   -0.8582    1.5171 H   0  0  0  0  0  0  0  0  0  0  0  0
    0.9433   -0.3328    0.7649 H   0  0  0  0  0  0  0  0  0  0  0  0
  1  2  1  0
  2  3  1  0
  2  4  1  0
  4  5  1  0
  5  6  1  0
  6  7  2  0
  7  8  1  0
  8  9  1  0
  9 10  2  0
 10 11  1  0
 11 12  2  0
 12 13  1  0
 12 14  1  0
 14 15  2  0
  8 16  2  0
 16 17  1  0
 17 18  1  0
 18 19  2  0
 19 20  1  0
 20 21  2  0
 21 22  1  0
 22 23  2  0
 23 24  1  0
 24 25  1  0
 24 26  2  0
 23 27  1  0
 27 28  1  0
 16  5  1  0
 28 17  2  0
 15  9  1  0
 27 20  1  0
  1 29  1  0
  1 30  1  0
  1 31  1  0
  2 32  1  1
  3 33  1  0
  4 34  1  0
  4 35  1  0
  6 36  1  0
 10 37  1  0
 11 38  1  0
 14 39  1  0
 15 40  1  0
 18 41  1  0
 19 42  1  0
 22 43  1  0
 25 44  1  0
 25 45  1  0
 28 46  1  0
M  END
$$$$
