@<TRIPOS>MOLECULE
*****
 46 49 0 0 0
SMALL
GASTEIGER

@<TRIPOS>ATOM
      1 C          -3.1727   -3.0455    1.0227 C.3     1  UNL1       -0.0373
      2 C          -2.3514   -2.9100   -0.2358 C.3     1  UNL1        0.0703
      3 O          -2.6783   -3.9904   -1.0533 O.3     1  UNL1       -0.3903
      4 C          -2.8216   -1.6510   -0.9297 C.3     1  UNL1        0.0504
      5 N          -2.6384   -0.4800   -0.0970 N.ar    1  UNL1       -0.3271
      6 C          -3.5025    0.0473    0.7905 C.ar    1  UNL1        0.0972
      7 N          -2.9350    1.1486    1.3647 N.ar    1  UNL1       -0.2351
      8 C          -1.7039    1.3236    0.8403 C.ar    1  UNL1        0.0967
      9 C          -0.7297    2.3623    1.1438 C.ar    1  UNL1        0.0026
     10 C          -0.2224    2.4969    2.4181 C.ar    1  UNL1       -0.0498
     11 C           0.6977    3.4540    2.7736 C.ar    1  UNL1       -0.0258
     12 C           1.1628    4.3450    1.8375 C.ar    1  UNL1        0.1234
     13 F           2.0780    5.3121    2.1585 F       1  UNL1       -0.2055
     14 C           0.6740    4.2354    0.5533 C.ar    1  UNL1       -0.0258
     15 C          -0.2533    3.2671    0.2056 C.ar    1  UNL1       -0.0498
     16 C          -1.5580    0.2902   -0.0642 C.ar    1  UNL1        0.0779
     17 C          -0.3631    0.0736   -0.8814 C.ar    1  UNL1        0.0173
     18 C          -0.4210    0.1766   -2.2513 C.ar    1  UNL1       -0.0477
     19 C           0.7161   -0.0346   -2.9923 C.ar    1  UNL1       -0.0182
     20 C           1.9258   -0.3522   -2.3674 C.ar    1  UNL1        0.1381
     21 N           3.1490   -0.5989   -2.8966 N.ar    1  UNL1       -0.2353
     22 C           3.9910   -0.8580   -1.8956 C.ar    1  UNL1        0.0588
     23 C           3.2673   -0.7683   -0.7269 C.ar    1  UNL1        0.1280
     24 C           3.7833   -0.9766    0.6125 C.2     1  UNL1        0.2599
     25 N           5.1515   -1.3104    0.8046 N.am    1  UNL1       -0.3241
     26 O           3.0746   -0.8771    1.6439 O.2     1  UNL1       -0.2687
     27 N           1.9773   -0.4514   -1.0335 N.ar    1  UNL1       -0.2949
     28 C           0.8586   -0.2417   -0.3279 C.ar    1  UNL1        0.0211
     29 H          -3.2124   -4.1090    1.3070 H       1  UNL1        0.0255
     30 H          -2.7943   -2.3804    1.8174 H       1  UNL1        0.0255
     31 H          -4.2026   -2.7106    0.7928 H       1  UNL1        0.0255
     32 H          -1.2613   -2.8926   -0.0535 H       1  UNL1        0.0608
     33 H          -2.6930   -3.7265   -2.0080 H       1  UNL1        0.2098
     34 H          -3.8892   -1.8130   -1.1839 H       1  UNL1        0.0518
     35 H          -2.2829   -1.5899   -1.8825 H       1  UNL1        0.0518
     36 H          -4.4909   -0.3112    1.0375 H       1  UNL1        0.1029
     37 H          -0.5915    1.7849    3.1754 H       1  UNL1        0.0625
     38 H           1.0405    3.4921    3.7862 H       1  UNL1        0.0646
     39 H           1.0616    4.9552   -0.1716 H       1  UNL1        0.0646
     40 H          -0.6088    3.2134   -0.7957 H       1  UNL1        0.0625
     41 H          -1.3461    0.4200   -2.7389 H       1  UNL1        0.0626
     42 H           0.7339    0.0315   -4.0656 H       1  UNL1        0.0654
     43 H           5.0596   -1.1018   -1.9245 H       1  UNL1        0.0853
     44 H           5.6151   -2.0577    0.2094 H       1  UNL1        0.1453
     45 H           5.7635   -0.8582    1.5171 H       1  UNL1        0.1453
     46 H           0.9433   -0.3328    0.7649 H       1  UNL1        0.0820
@<TRIPOS>BOND
     1     1     2    1
     2     2     3    1
     3     2     4    1
     4     4     5    1
     5     5     6   ar
     6     6     7   ar
     7     7     8   ar
     8     8     9    1
     9     9    10   ar
    10    10    11   ar
    11    11    12   ar
    12    12    13    1
    13    12    14   ar
    14    14    15   ar
    15     8    16   ar
    16    16    17    1
    17    17    18   ar
    18    18    19   ar
    19    19    20   ar
    20    20    21   ar
    21    21    22   ar
    22    22    23   ar
    23    23    24    1
    24    24    25   am
    25    24    26    2
    26    23    27   ar
    27    27    28   ar
    28    16     5   ar
    29    28    17   ar
    30    15     9   ar
    31    27    20   ar
    32     1    29    1
    33     1    30    1
    34     1    31    1
    35     2    32    1
    36     3    33    1
    37     4    34    1
    38     4    35    1
    39     6    36    1
    40    10    37    1
    41    11    38    1
    42    14    39    1
    43    15    40    1
    44    18    41    1
    45    19    42    1
    46    22    43    1
    47    25    44    1
    48    25    45    1
    49    28    46    1
