@<TRIPOS>MOLECULE
*****
 35 37 0 0 0
SMALL
GASTEIGER

@<TRIPOS>ATOM
      1 C          -3.5049    2.8220    0.1644 C.3     1  UNL1       -0.0622
      2 C          -2.6553    1.6695   -0.3846 C.3     1  UNL1       -0.0215
      3 C          -1.7109    1.2768    0.7236 C.3     1  UNL1        0.0894
      4 O          -0.8397    0.2391    0.4371 O.3     1  UNL1       -0.4912
      5 C          -1.0765   -1.0553    0.1346 C.ar    1  UNL1        0.1332
      6 C           0.0395   -1.8452   -0.1195 C.ar    1  UNL1        0.0694
      7 C          -0.1320   -3.1901   -0.4362 C.ar    1  UNL1        0.1423
      8 N           1.0466   -3.7966   -0.6493 N.ar    1  UNL1       -0.3451
      9 C           2.0246   -2.8984   -0.4862 C.ar    1  UNL1        0.0134
     10 C           1.4080   -1.6841   -0.1571 C.ar    1  UNL1        0.0306
     11 C           2.1305   -0.4476    0.1024 C.ar    1  UNL1        0.0782
     12 N           1.6843    0.7703    0.4227 N.ar    1  UNL1       -0.2146
     13 C           2.4429    1.8473    0.6414 C.ar    1  UNL1        0.2130
     14 N           1.7630    3.0740    0.9770 N.pl3   1  UNL1       -0.3275
     15 N           3.7701    1.8004    0.5557 N.ar    1  UNL1       -0.2231
     16 C           4.3365    0.6237    0.2387 C.ar    1  UNL1        0.0332
     17 C           3.5121   -0.4493    0.0246 C.ar    1  UNL1       -0.0173
     18 N          -1.3378   -3.8027   -0.5172 N.ar    1  UNL1       -0.2372
     19 C          -2.4266   -3.0564   -0.2749 C.ar    1  UNL1        0.0334
     20 C          -2.2684   -1.7383    0.0363 C.ar    1  UNL1       -0.0011
     21 H          -3.0273    3.2823    1.0607 H       1  UNL1        0.0231
     22 H          -3.5689    3.5770   -0.6382 H       1  UNL1        0.0231
     23 H          -4.4737    2.4103    0.4626 H       1  UNL1        0.0231
     24 H          -3.3249    0.8703   -0.7177 H       1  UNL1        0.0295
     25 H          -2.0272    2.0373   -1.2268 H       1  UNL1        0.0295
     26 H          -2.3461    1.0305    1.6105 H       1  UNL1        0.0696
     27 H          -1.0557    2.1618    0.9956 H       1  UNL1        0.0696
     28 H           1.2383   -4.8018   -0.9038 H       1  UNL1        0.1668
     29 H           3.0811   -3.1059   -0.5957 H       1  UNL1        0.0814
     30 H           2.1898    3.9618    0.6075 H       1  UNL1        0.1452
     31 H           2.2022    3.9643    0.5990 H       1  UNL1        0.1452
     32 H           5.4107    0.5631    0.1638 H       1  UNL1        0.0831
     33 H           4.0630   -1.3677   -0.2290 H       1  UNL1        0.0654
     34 H          -3.3974   -3.5285   -0.3350 H       1  UNL1        0.0831
     35 H          -3.1699   -1.2139    0.2292 H       1  UNL1        0.0669
@<TRIPOS>BOND
     1     1     2    1
     2     2     3    1
     3     3     4    1
     4     4     5    1
     5     5     6   ar
     6     6     7   ar
     7     7     8   ar
     8     8     9   ar
     9     9    10   ar
    10    10    11    1
    11    11    12   ar
    12    12    13   ar
    13    13    14    1
    14    13    15   ar
    15    15    16   ar
    16    16    17   ar
    17     7    18   ar
    18    18    19   ar
    19    19    20   ar
    20    20     5   ar
    21    10     6   ar
    22    17    11   ar
    23     1    21    1
    24     1    22    1
    25     1    23    1
    26     2    24    1
    27     2    25    1
    28     3    26    1
    29     3    27    1
    30     8    28    1
    31     9    29    1
    32    14    30    1
    33    14    31    1
    34    16    32    1
    35    17    33    1
    36    19    34    1
    37    20    35    1
