
     RDKit          3D

 77 82  0  0  0  0  0  0  0  0999 V2000
  -12.8235    0.3596   -0.2136 N   0  0  0  0  0  0  0  0  0  0  0  0
  -11.7812   -0.0422   -0.6591 C   0  0  0  0  0  0  0  0  0  0  0  0
  -10.5286   -0.5467   -1.2146 C   0  0  0  0  0  0  0  0  0  0  0  0
  -10.4951   -1.0568   -2.4456 C   0  0  0  0  0  0  0  0  0  0  0  0
   -9.2765   -1.5258   -2.9739 C   0  0  0  0  0  0  0  0  0  0  0  0
   -8.1701   -1.4324   -2.1931 N   0  0  0  0  0  0  0  0  0  0  0  0
   -8.1646   -0.9301   -0.9650 C   0  0  0  0  0  0  0  0  0  0  0  0
   -6.9566   -0.8395   -0.1968 N   0  0  0  0  0  0  0  0  0  0  0  0
   -5.6899   -0.9247   -0.8843 C   0  0  0  0  0  0  0  0  0  0  0  0
   -5.0298    0.4470   -0.6960 C   0  0  0  0  0  0  0  0  0  0  0  0
   -4.9397    0.8050    0.7425 C   0  0  0  0  0  0  0  0  0  0  0  0
   -3.6905    0.3962    1.4257 C   0  0  0  0  0  0  0  0  0  0  0  0
   -3.7783   -0.6217    2.1980 O   0  0  0  0  0  0  0  0  0  0  0  0
   -2.4330    1.0199    1.2920 N   0  0  0  0  0  0  0  0  0  0  0  0
   -2.1430    2.2100    0.4588 C   0  0  0  0  0  0  0  0  0  0  0  0
   -0.8506    1.7075   -0.1859 C   0  0  0  0  0  0  0  0  0  0  0  0
   -0.0937    1.1850    1.0145 C   0  0  2  0  0  0  0  0  0  0  0  0
    0.7475    0.1149    0.5226 N   0  0  0  0  0  0  0  0  0  0  0  0
    1.5641   -0.5117    1.5017 C   0  0  1  0  0  0  0  0  0  0  0  0
    2.1839   -1.7303    0.8411 C   0  0  0  0  0  0  0  0  0  0  0  0
    3.2138   -1.2349   -0.2242 C   0  0  0  0  0  0  0  0  0  0  0  0
    4.2677   -0.5636    0.5686 C   0  0  1  0  0  0  0  0  0  0  0  0
    4.4741   -1.4448    1.7178 O   0  0  0  0  0  0  0  0  0  0  0  0
    5.5908   -0.3718   -0.0375 C   0  0  0  0  0  0  0  0  0  0  0  0
    6.5460   -1.3912    0.0027 C   0  0  0  0  0  0  0  0  0  0  0  0
    7.8262   -1.1731   -0.4043 C   0  0  0  0  0  0  0  0  0  0  0  0
    8.2239    0.0559   -0.8693 C   0  0  0  0  0  0  0  0  0  0  0  0
    9.6421    0.2538   -1.1097 C   0  0  0  0  0  0  0  0  0  0  0  0
   10.5884   -0.6425   -1.0282 N   0  0  0  0  0  0  0  0  0  0  0  0
   11.8890   -0.6015   -1.1240 C   0  0  0  0  0  0  0  0  0  0  0  0
   12.4234    0.7127   -1.3777 C   0  0  0  0  0  0  0  0  0  0  0  0
   11.5178    1.6985   -1.4819 C   0  0  0  0  0  0  0  0  0  0  0  0
   10.1573    1.5510   -1.3658 N   0  0  0  0  0  0  0  0  0  0  0  0
    7.2819    1.0665   -0.9281 C   0  0  0  0  0  0  0  0  0  0  0  0
    5.9868    0.8129   -0.5044 N   0  0  0  0  0  0  0  0  0  0  0  0
    3.7549    0.7103    1.1780 C   0  0  0  0  0  0  0  0  0  0  0  0
    2.6220    0.3636    2.0827 C   0  0  0  0  0  0  0  0  0  0  0  0
   -1.1916    0.6447    1.9224 C   0  0  0  0  0  0  0  0  0  0  0  0
   -6.1647    0.5354    1.5446 C   0  0  0  0  0  0  0  0  0  0  0  0
   -6.9436   -0.6888    1.2063 C   0  0  0  0  0  0  0  0  0  0  0  0
   -9.3746   -0.4568   -0.4142 C   0  0  0  0  0  0  0  0  0  0  0  0
  -11.3823   -1.1417   -3.1138 H   0  0  0  0  0  0  0  0  0  0  0  0
   -9.2980   -1.9333   -3.9550 H   0  0  0  0  0  0  0  0  0  0  0  0
   -5.1049   -1.7206   -0.3633 H   0  0  0  0  0  0  0  0  0  0  0  0
   -5.8104   -1.1161   -1.9587 H   0  0  0  0  0  0  0  0  0  0  0  0
   -5.6330    1.1773   -1.2598 H   0  0  0  0  0  0  0  0  0  0  0  0
   -4.0307    0.3342   -1.1490 H   0  0  0  0  0  0  0  0  0  0  0  0
   -4.8712    1.9563    0.7462 H   0  0  0  0  0  0  0  0  0  0  0  0
   -1.9143    3.0633    1.0917 H   0  0  0  0  0  0  0  0  0  0  0  0
   -2.9289    2.3662   -0.2656 H   0  0  0  0  0  0  0  0  0  0  0  0
   -1.0776    0.8683   -0.8504 H   0  0  0  0  0  0  0  0  0  0  0  0
   -0.3115    2.5521   -0.6668 H   0  0  0  0  0  0  0  0  0  0  0  0
    0.4494    2.0256    1.4696 H   0  0  0  0  0  0  0  0  0  0  0  0
    0.1466   -0.5808    0.0599 H   0  0  0  0  0  0  0  0  0  0  0  0
    0.9711   -0.9281    2.3681 H   0  0  0  0  0  0  0  0  0  0  0  0
    2.7800   -2.2999    1.5799 H   0  0  0  0  0  0  0  0  0  0  0  0
    1.4523   -2.3082    0.2989 H   0  0  0  0  0  0  0  0  0  0  0  0
    3.5177   -2.1621   -0.7139 H   0  0  0  0  0  0  0  0  0  0  0  0
    2.7246   -0.4870   -0.8712 H   0  0  0  0  0  0  0  0  0  0  0  0
    5.4428   -1.3267    1.9378 H   0  0  0  0  0  0  0  0  0  0  0  0
    6.2177   -2.3562    0.3615 H   0  0  0  0  0  0  0  0  0  0  0  0
    8.5781   -1.9977   -0.3641 H   0  0  0  0  0  0  0  0  0  0  0  0
   12.6107   -1.3832   -1.0397 H   0  0  0  0  0  0  0  0  0  0  0  0
   13.4846    0.8057   -1.4659 H   0  0  0  0  0  0  0  0  0  0  0  0
   11.8767    2.7387   -1.6754 H   0  0  0  0  0  0  0  0  0  0  0  0
    7.5844    2.0129   -1.3028 H   0  0  0  0  0  0  0  0  0  0  0  0
    4.5907    1.0662    1.8801 H   0  0  0  0  0  0  0  0  0  0  0  0
    3.5161    1.4577    0.4231 H   0  0  0  0  0  0  0  0  0  0  0  0
    2.1797    1.2680    2.5452 H   0  0  0  0  0  0  0  0  0  0  0  0
    3.0716   -0.1860    2.9677 H   0  0  0  0  0  0  0  0  0  0  0  0
   -1.0783   -0.4574    1.9410 H   0  0  0  0  0  0  0  0  0  0  0  0
   -1.0757    1.0240    2.9712 H   0  0  0  0  0  0  0  0  0  0  0  0
   -5.8804    0.5426    2.6399 H   0  0  0  0  0  0  0  0  0  0  0  0
   -6.8512    1.4258    1.4543 H   0  0  0  0  0  0  0  0  0  0  0  0
   -7.9660   -0.5459    1.6309 H   0  0  0  0  0  0  0  0  0  0  0  0
   -6.5020   -1.6291    1.6439 H   0  0  0  0  0  0  0  0  0  0  0  0
   -9.4607   -0.0450    0.5373 H   0  0  0  0  0  0  0  0  0  0  0  0
  1  2  3  0
  2  3  1  0
  3  4  2  0
  4  5  1  0
  5  6  2  0
  6  7  1  0
  7  8  1  0
  8  9  1  0
  9 10  1  0
 10 11  1  0
 11 12  1  0
 12 13  2  0
 12 14  1  0
 14 15  1  0
 15 16  1  0
 16 17  1  0
 17 18  1  0
 18 19  1  0
 19 20  1  0
 20 21  1  0
 21 22  1  0
 22 23  1  1
 22 24  1  0
 24 25  2  0
 25 26  1  0
 26 27  2  0
 27 28  1  0
 28 29  2  0
 29 30  1  0
 30 31  2  0
 31 32  1  0
 32 33  2  0
 27 34  1  0
 34 35  2  0
 22 36  1  0
 36 37  1  0
 17 38  1  0
 11 39  1  0
 39 40  1  0
  7 41  2  0
 41  3  1  0
 40  8  1  0
 38 14  1  0
 37 19  1  0
 35 24  1  0
 33 28  1  0
  4 42  1  0
  5 43  1  0
  9 44  1  0
  9 45  1  0
 10 46  1  0
 10 47  1  0
 11 48  1  0
 15 49  1  0
 15 50  1  0
 16 51  1  0
 16 52  1  0
 17 53  1  1
 18 54  1  0
 19 55  1  1
 20 56  1  0
 20 57  1  0
 21 58  1  0
 21 59  1  0
 23 60  1  0
 25 61  1  0
 26 62  1  0
 30 63  1  0
 31 64  1  0
 32 65  1  0
 34 66  1  0
 36 67  1  0
 36 68  1  0
 37 69  1  0
 37 70  1  0
 38 71  1  0
 38 72  1  0
 39 73  1  0
 39 74  1  0
 40 75  1  0
 40 76  1  0
 41 77  1  0
M  END
$$$$
