@<TRIPOS>MOLECULE
*****
 77 82 0 0 0
SMALL
GASTEIGER

@<TRIPOS>ATOM
      1 N         -12.8235    0.3596   -0.2136 N.1     1  UNL1       -0.1909
      2 C         -11.7812   -0.0422   -0.6591 C.1     1  UNL1        0.0993
      3 C         -10.5286   -0.5467   -1.2146 C.ar    1  UNL1        0.0565
      4 C         -10.4951   -1.0568   -2.4456 C.ar    1  UNL1       -0.0261
      5 C          -9.2765   -1.5258   -2.9739 C.ar    1  UNL1        0.0309
      6 N          -8.1701   -1.4324   -2.1931 N.ar    1  UNL1       -0.2402
      7 C          -8.1646   -0.9301   -0.9650 C.ar    1  UNL1        0.1224
      8 N          -6.9566   -0.8395   -0.1968 N.pl3   1  UNL1       -0.3151
      9 C          -5.6899   -0.9247   -0.8843 C.3     1  UNL1        0.0142
     10 C          -5.0298    0.4470   -0.6960 C.3     1  UNL1       -0.0260
     11 C          -4.9397    0.8050    0.7425 C.3     1  UNL1        0.0386
     12 C          -3.6905    0.3962    1.4257 C.2     1  UNL1        0.2188
     13 O          -3.7783   -0.6217    2.1980 O.2     1  UNL1       -0.2753
     14 N          -2.4330    1.0199    1.2920 N.am    1  UNL1       -0.2997
     15 C          -2.1430    2.2100    0.4588 C.3     1  UNL1        0.0162
     16 C          -0.8506    1.7075   -0.1859 C.3     1  UNL1       -0.0202
     17 C          -0.0937    1.1850    1.0145 C.3     1  UNL1        0.0250
     18 N           0.7475    0.1149    0.5226 N.3     1  UNL1       -0.3090
     19 C           1.5641   -0.5117    1.5017 C.3     1  UNL1        0.0081
     20 C           2.1839   -1.7303    0.8411 C.3     1  UNL1       -0.0346
     21 C           3.2138   -1.2349   -0.2242 C.3     1  UNL1       -0.0170
     22 C           4.2677   -0.5636    0.5686 C.3     1  UNL1        0.1077
     23 O           4.4741   -1.4448    1.7178 O.3     1  UNL1       -0.3824
     24 C           5.5908   -0.3718   -0.0375 C.ar    1  UNL1        0.0727
     25 C           6.5460   -1.3912    0.0027 C.ar    1  UNL1       -0.0369
     26 C           7.8262   -1.1731   -0.4043 C.ar    1  UNL1       -0.0478
     27 C           8.2239    0.0559   -0.8693 C.ar    1  UNL1        0.0372
     28 C           9.6421    0.2538   -1.1097 C.ar    1  UNL1        0.1611
     29 N          10.5884   -0.6425   -1.0282 N.ar    1  UNL1       -0.2356
     30 C          11.8890   -0.6015   -1.1240 C.ar    1  UNL1        0.0314
     31 C          12.4234    0.7127   -1.3777 C.ar    1  UNL1       -0.0254
     32 C          11.5178    1.6985   -1.4819 C.ar    1  UNL1        0.0314
     33 N          10.1573    1.5510   -1.3658 N.ar    1  UNL1       -0.2356
     34 C           7.2819    1.0665   -0.9281 C.ar    1  UNL1        0.0387
     35 N           5.9868    0.8129   -0.5044 N.ar    1  UNL1       -0.2563
     36 C           3.7549    0.7103    1.1780 C.3     1  UNL1       -0.0170
     37 C           2.6220    0.3636    2.0827 C.3     1  UNL1       -0.0346
     38 C          -1.1916    0.6447    1.9224 C.3     1  UNL1        0.0301
     39 C          -6.1647    0.5354    1.5446 C.3     1  UNL1       -0.0260
     40 C          -6.9436   -0.6888    1.2063 C.3     1  UNL1        0.0142
     41 C          -9.3746   -0.4568   -0.4142 C.ar    1  UNL1       -0.0043
     42 H         -11.3823   -1.1417   -3.1138 H       1  UNL1        0.0645
     43 H          -9.2980   -1.9333   -3.9550 H       1  UNL1        0.0830
     44 H          -5.1049   -1.7206   -0.3633 H       1  UNL1        0.0464
     45 H          -5.8104   -1.1161   -1.9587 H       1  UNL1        0.0464
     46 H          -5.6330    1.1773   -1.2598 H       1  UNL1        0.0288
     47 H          -4.0307    0.3342   -1.1490 H       1  UNL1        0.0288
     48 H          -4.8712    1.9563    0.7462 H       1  UNL1        0.0395
     49 H          -1.9143    3.0633    1.0917 H       1  UNL1        0.0465
     50 H          -2.9289    2.3662   -0.2656 H       1  UNL1        0.0465
     51 H          -1.0776    0.8683   -0.8504 H       1  UNL1        0.0296
     52 H          -0.3115    2.5521   -0.6668 H       1  UNL1        0.0296
     53 H           0.4494    2.0256    1.4696 H       1  UNL1        0.0476
     54 H           0.1466   -0.5808    0.0599 H       1  UNL1        0.1225
     55 H           0.9711   -0.9281    2.3681 H       1  UNL1        0.0460
     56 H           2.7800   -2.2999    1.5799 H       1  UNL1        0.0281
     57 H           1.4523   -2.3082    0.2989 H       1  UNL1        0.0281
     58 H           3.5177   -2.1621   -0.7139 H       1  UNL1        0.0297
     59 H           2.7246   -0.4870   -0.8712 H       1  UNL1        0.0297
     60 H           5.4428   -1.3267    1.9378 H       1  UNL1        0.2107
     61 H           6.2177   -2.3562    0.3615 H       1  UNL1        0.0637
     62 H           8.5781   -1.9977   -0.3641 H       1  UNL1        0.0626
     63 H          12.6107   -1.3832   -1.0397 H       1  UNL1        0.0831
     64 H          13.4846    0.8057   -1.4659 H       1  UNL1        0.0648
     65 H          11.8767    2.7387   -1.6754 H       1  UNL1        0.0831
     66 H           7.5844    2.0129   -1.3028 H       1  UNL1        0.0837
     67 H           4.5907    1.0662    1.8801 H       1  UNL1        0.0297
     68 H           3.5161    1.4577    0.4231 H       1  UNL1        0.0297
     69 H           2.1797    1.2680    2.5452 H       1  UNL1        0.0281
     70 H           3.0716   -0.1860    2.9677 H       1  UNL1        0.0281
     71 H          -1.0783   -0.4574    1.9410 H       1  UNL1        0.0480
     72 H          -1.0757    1.0240    2.9712 H       1  UNL1        0.0480
     73 H          -5.8804    0.5426    2.6399 H       1  UNL1        0.0288
     74 H          -6.8512    1.4258    1.4543 H       1  UNL1        0.0288
     75 H          -7.9660   -0.5459    1.6309 H       1  UNL1        0.0464
     76 H          -6.5020   -1.6291    1.6439 H       1  UNL1        0.0464
     77 H          -9.4607   -0.0450    0.5373 H       1  UNL1        0.0665
@<TRIPOS>BOND
     1     1     2    3
     2     2     3    1
     3     3     4   ar
     4     4     5   ar
     5     5     6   ar
     6     6     7   ar
     7     7     8    1
     8     8     9    1
     9     9    10    1
    10    10    11    1
    11    11    12    1
    12    12    13    2
    13    12    14   am
    14    14    15    1
    15    15    16    1
    16    16    17    1
    17    17    18    1
    18    18    19    1
    19    19    20    1
    20    20    21    1
    21    21    22    1
    22    22    23    1
    23    22    24    1
    24    24    25   ar
    25    25    26   ar
    26    26    27   ar
    27    27    28    1
    28    28    29   ar
    29    29    30   ar
    30    30    31   ar
    31    31    32   ar
    32    32    33   ar
    33    27    34   ar
    34    34    35   ar
    35    22    36    1
    36    36    37    1
    37    17    38    1
    38    11    39    1
    39    39    40    1
    40     7    41   ar
    41    41     3   ar
    42    40     8    1
    43    38    14    1
    44    37    19    1
    45    35    24   ar
    46    33    28   ar
    47     4    42    1
    48     5    43    1
    49     9    44    1
    50     9    45    1
    51    10    46    1
    52    10    47    1
    53    11    48    1
    54    15    49    1
    55    15    50    1
    56    16    51    1
    57    16    52    1
    58    17    53    1
    59    18    54    1
    60    19    55    1
    61    20    56    1
    62    20    57    1
    63    21    58    1
    64    21    59    1
    65    23    60    1
    66    25    61    1
    67    26    62    1
    68    30    63    1
    69    31    64    1
    70    32    65    1
    71    34    66    1
    72    36    67    1
    73    36    68    1
    74    37    69    1
    75    37    70    1
    76    38    71    1
    77    38    72    1
    78    39    73    1
    79    39    74    1
    80    40    75    1
    81    40    76    1
    82    41    77    1
