
     RDKit          3D

 52 56  0  0  0  0  0  0  0  0999 V2000
    2.2991    1.9424    1.0130 N   0  0  0  0  0  0  0  0  0  0  0  0
    1.0519    1.4104    1.3942 C   0  0  0  0  0  0  0  0  0  0  0  0
    0.4881    1.8566    2.5431 N   0  0  0  0  0  0  0  0  0  0  0  0
   -0.7281    1.4086    2.9557 C   0  0  0  0  0  0  0  0  0  0  0  0
   -1.4004    0.5060    2.2232 N   0  0  0  0  0  0  0  0  0  0  0  0
   -0.8982    0.0230    1.0748 C   0  0  0  0  0  0  0  0  0  0  0  0
    0.3539    0.4896    0.6611 C   0  0  0  0  0  0  0  0  0  0  0  0
    0.6344   -0.1450   -0.4889 C   0  0  0  0  0  0  0  0  0  0  0  0
    1.7237   -0.1771   -1.4697 C   0  0  0  0  0  0  0  0  0  0  0  0
    2.9852    0.4024   -1.3217 C   0  0  0  0  0  0  0  0  0  0  0  0
    3.3379    1.5631   -2.0031 C   0  0  0  0  0  0  0  0  0  0  0  0
    4.6100    2.0698   -1.8996 C   0  0  0  0  0  0  0  0  0  0  0  0
    5.5881    1.4768   -1.1360 C   0  0  0  0  0  0  0  0  0  0  0  0
    5.2392    0.3246   -0.4582 C   0  0  0  0  0  0  0  0  0  0  0  0
    6.1797   -0.3356    0.3454 C   0  0  0  0  0  0  0  0  0  0  0  0
    5.8069   -1.4810    1.0158 C   0  0  0  0  0  0  0  0  0  0  0  0
    4.5519   -2.0160    0.9377 C   0  0  0  0  0  0  0  0  0  0  0  0
    3.6251   -1.3456    0.1319 C   0  0  0  0  0  0  0  0  0  0  0  0
    3.9833   -0.1952   -0.5465 C   0  0  0  0  0  0  0  0  0  0  0  0
   -0.4592   -0.9701   -0.7311 N   0  0  0  0  0  0  0  0  0  0  0  0
   -1.3526   -0.8693    0.1823 N   0  0  0  0  0  0  0  0  0  0  0  0
   -2.6627   -1.5574    0.2052 C   0  0  0  0  0  0  0  0  0  0  0  0
   -3.6699   -0.8909   -0.6539 C   0  0  0  0  0  0  0  0  0  0  0  0
   -3.9345    0.5241   -0.2678 C   0  0  0  0  0  0  0  0  0  0  0  0
   -5.2435    0.5923    0.5104 C   0  0  0  0  0  0  0  0  0  0  0  0
   -6.2903    0.3652   -0.4908 N   0  0  0  0  0  0  0  0  0  0  0  0
   -6.0664   -0.8672   -1.1763 C   0  0  0  0  0  0  0  0  0  0  0  0
   -4.9680   -1.7169   -0.5671 C   0  0  0  0  0  0  0  0  0  0  0  0
    2.3044    2.7032    0.3023 H   0  0  0  0  0  0  0  0  0  0  0  0
    3.2123    1.6463    1.4041 H   0  0  0  0  0  0  0  0  0  0  0  0
   -1.1923    1.7499    3.8679 H   0  0  0  0  0  0  0  0  0  0  0  0
    1.7762   -1.2484   -1.8916 H   0  0  0  0  0  0  0  0  0  0  0  0
    1.2369    0.3093   -2.3957 H   0  0  0  0  0  0  0  0  0  0  0  0
    2.6314    2.0975   -2.6299 H   0  0  0  0  0  0  0  0  0  0  0  0
    4.8993    2.9748   -2.4310 H   0  0  0  0  0  0  0  0  0  0  0  0
    6.5975    1.8607   -1.0421 H   0  0  0  0  0  0  0  0  0  0  0  0
    7.1684    0.0747    0.4169 H   0  0  0  0  0  0  0  0  0  0  0  0
    6.5160   -2.0179    1.6439 H   0  0  0  0  0  0  0  0  0  0  0  0
    4.2385   -2.9109    1.4486 H   0  0  0  0  0  0  0  0  0  0  0  0
    2.6117   -1.7283    0.0355 H   0  0  0  0  0  0  0  0  0  0  0  0
   -2.5164   -2.6203   -0.0719 H   0  0  0  0  0  0  0  0  0  0  0  0
   -3.0107   -1.6087    1.2790 H   0  0  0  0  0  0  0  0  0  0  0  0
   -3.3188   -0.9638   -1.7082 H   0  0  0  0  0  0  0  0  0  0  0  0
   -3.1110    1.0285    0.2462 H   0  0  0  0  0  0  0  0  0  0  0  0
   -4.1623    1.1061   -1.2208 H   0  0  0  0  0  0  0  0  0  0  0  0
   -5.4031    1.5872    0.9430 H   0  0  0  0  0  0  0  0  0  0  0  0
   -5.3175   -0.1976    1.2801 H   0  0  0  0  0  0  0  0  0  0  0  0
   -7.2203    0.5104   -0.0913 H   0  0  0  0  0  0  0  0  0  0  0  0
   -5.7309   -0.6221   -2.2257 H   0  0  0  0  0  0  0  0  0  0  0  0
   -6.9932   -1.4713   -1.1917 H   0  0  0  0  0  0  0  0  0  0  0  0
   -4.8376   -2.5960   -1.2238 H   0  0  0  0  0  0  0  0  0  0  0  0
   -5.1631   -2.0510    0.4490 H   0  0  0  0  0  0  0  0  0  0  0  0
  1  2  1  0
  2  3  2  0
  3  4  1  0
  4  5  2  0
  5  6  1  0
  6  7  2  0
  7  8  1  0
  8  9  1  0
  9 10  1  0
 10 11  2  0
 11 12  1  0
 12 13  2  0
 13 14  1  0
 14 15  2  0
 15 16  1  0
 16 17  2  0
 17 18  1  0
 18 19  2  0
  8 20  2  0
 20 21  1  0
 21 22  1  0
 22 23  1  0
 23 24  1  0
 24 25  1  0
 25 26  1  0
 26 27  1  0
 27 28  1  0
  7  2  1  0
 19 10  1  0
 28 23  1  0
 21  6  1  0
 19 14  1  0
  1 29  1  0
  1 30  1  0
  4 31  1  0
  9 32  1  0
  9 33  1  0
 11 34  1  0
 12 35  1  0
 13 36  1  0
 15 37  1  0
 16 38  1  0
 17 39  1  0
 18 40  1  0
 22 41  1  0
 22 42  1  0
 23 43  1  0
 24 44  1  0
 24 45  1  0
 25 46  1  0
 25 47  1  0
 26 48  1  0
 27 49  1  0
 27 50  1  0
 28 51  1  0
 28 52  1  0
M  END
$$$$
