@<TRIPOS>MOLECULE
*****
 52 56 0 0 0
SMALL
GASTEIGER

@<TRIPOS>ATOM
      1 N           2.2991    1.9424    1.0130 N.pl3   1  UNL1       -0.3425
      2 C           1.0519    1.4104    1.3942 C.ar    1  UNL1        0.1305
      3 N           0.4881    1.8566    2.5431 N.ar    1  UNL1       -0.2204
      4 C          -0.7281    1.4086    2.9557 C.ar    1  UNL1        0.1204
      5 N          -1.4004    0.5060    2.2232 N.ar    1  UNL1       -0.2162
      6 C          -0.8982    0.0230    1.0748 C.ar    1  UNL1        0.1635
      7 C           0.3539    0.4896    0.6611 C.ar    1  UNL1        0.0815
      8 C           0.6344   -0.1450   -0.4889 C.ar    1  UNL1        0.0799
      9 C           1.7237   -0.1771   -1.4697 C.3     1  UNL1        0.0179
     10 C           2.9852    0.4024   -1.3217 C.ar    1  UNL1       -0.0338
     11 C           3.3379    1.5631   -2.0031 C.ar    1  UNL1       -0.0576
     12 C           4.6100    2.0698   -1.8996 C.ar    1  UNL1       -0.0609
     13 C           5.5881    1.4768   -1.1360 C.ar    1  UNL1       -0.0540
     14 C           5.2392    0.3246   -0.4582 C.ar    1  UNL1       -0.0176
     15 C           6.1797   -0.3356    0.3454 C.ar    1  UNL1       -0.0540
     16 C           5.8069   -1.4810    1.0158 C.ar    1  UNL1       -0.0612
     17 C           4.5519   -2.0160    0.9377 C.ar    1  UNL1       -0.0612
     18 C           3.6251   -1.3456    0.1319 C.ar    1  UNL1       -0.0538
     19 C           3.9833   -0.1952   -0.5465 C.ar    1  UNL1       -0.0143
     20 N          -0.4592   -0.9701   -0.7311 N.ar    1  UNL1       -0.1733
     21 N          -1.3526   -0.8693    0.1823 N.ar    1  UNL1       -0.2458
     22 C          -2.6627   -1.5574    0.2052 C.3     1  UNL1        0.0467
     23 C          -3.6699   -0.8909   -0.6539 C.3     1  UNL1       -0.0191
     24 C          -3.9345    0.5241   -0.2678 C.3     1  UNL1       -0.0359
     25 C          -5.2435    0.5923    0.5104 C.3     1  UNL1       -0.0038
     26 N          -6.2903    0.3652   -0.4908 N.3     1  UNL1       -0.3160
     27 C          -6.0664   -0.8672   -1.1763 C.3     1  UNL1       -0.0038
     28 C          -4.9680   -1.7169   -0.5671 C.3     1  UNL1       -0.0359
     29 H           2.3044    2.7032    0.3023 H       1  UNL1        0.1437
     30 H           3.2123    1.6463    1.4041 H       1  UNL1        0.1437
     31 H          -1.1923    1.7499    3.8679 H       1  UNL1        0.1048
     32 H           1.7762   -1.2484   -1.8916 H       1  UNL1        0.0378
     33 H           1.2369    0.3093   -2.3957 H       1  UNL1        0.0378
     34 H           2.6314    2.0975   -2.6299 H       1  UNL1        0.0621
     35 H           4.8993    2.9748   -2.4310 H       1  UNL1        0.0618
     36 H           6.5975    1.8607   -1.0421 H       1  UNL1        0.0624
     37 H           7.1684    0.0747    0.4169 H       1  UNL1        0.0624
     38 H           6.5160   -2.0179    1.6439 H       1  UNL1        0.0618
     39 H           4.2385   -2.9109    1.4486 H       1  UNL1        0.0618
     40 H           2.6117   -1.7283    0.0355 H       1  UNL1        0.0624
     41 H          -2.5164   -2.6203   -0.0719 H       1  UNL1        0.0512
     42 H          -3.0107   -1.6087    1.2790 H       1  UNL1        0.0512
     43 H          -3.3188   -0.9638   -1.7082 H       1  UNL1        0.0319
     44 H          -3.1110    1.0285    0.2462 H       1  UNL1        0.0281
     45 H          -4.1623    1.1061   -1.2208 H       1  UNL1        0.0281
     46 H          -5.4031    1.5872    0.9430 H       1  UNL1        0.0424
     47 H          -5.3175   -0.1976    1.2801 H       1  UNL1        0.0424
     48 H          -7.2203    0.5104   -0.0913 H       1  UNL1        0.1219
     49 H          -5.7309   -0.6221   -2.2257 H       1  UNL1        0.0424
     50 H          -6.9932   -1.4713   -1.1917 H       1  UNL1        0.0424
     51 H          -4.8376   -2.5960   -1.2238 H       1  UNL1        0.0281
     52 H          -5.1631   -2.0510    0.4490 H       1  UNL1        0.0281
@<TRIPOS>BOND
     1     1     2    1
     2     2     3   ar
     3     3     4   ar
     4     4     5   ar
     5     5     6   ar
     6     6     7   ar
     7     7     8   ar
     8     8     9    1
     9     9    10    1
    10    10    11   ar
    11    11    12   ar
    12    12    13   ar
    13    13    14   ar
    14    14    15   ar
    15    15    16   ar
    16    16    17   ar
    17    17    18   ar
    18    18    19   ar
    19     8    20   ar
    20    20    21   ar
    21    21    22    1
    22    22    23    1
    23    23    24    1
    24    24    25    1
    25    25    26    1
    26    26    27    1
    27    27    28    1
    28     7     2   ar
    29    19    10   ar
    30    28    23    1
    31    21     6   ar
    32    19    14   ar
    33     1    29    1
    34     1    30    1
    35     4    31    1
    36     9    32    1
    37     9    33    1
    38    11    34    1
    39    12    35    1
    40    13    36    1
    41    15    37    1
    42    16    38    1
    43    17    39    1
    44    18    40    1
    45    22    41    1
    46    22    42    1
    47    23    43    1
    48    24    44    1
    49    24    45    1
    50    25    46    1
    51    25    47    1
    52    26    48    1
    53    27    49    1
    54    27    50    1
    55    28    51    1
    56    28    52    1
