@<TRIPOS>MOLECULE
*****
 21 22 0 0 0
SMALL
GASTEIGER

@<TRIPOS>ATOM
      1 F          -3.2663    1.9249   -0.2586 F       1  UNL1       -0.1659
      2 C          -2.7126    1.1692    0.7573 C.3     1  UNL1        0.4174
      3 F          -3.6962    0.5795    1.5255 F       1  UNL1       -0.1659
      4 F          -2.0066    2.0232    1.5843 F       1  UNL1       -0.1659
      5 C          -1.8055    0.1599    0.1518 C.ar    1  UNL1        0.0554
      6 C          -2.2577   -0.9596   -0.4719 C.ar    1  UNL1       -0.0501
      7 C          -1.3469   -1.8612   -1.0160 C.ar    1  UNL1       -0.0606
      8 C           0.0235   -1.6164   -0.9213 C.ar    1  UNL1       -0.0524
      9 C           0.4869   -0.4817   -0.2893 C.ar    1  UNL1        0.0042
     10 C           1.9091   -0.1963   -0.1732 C.ar    1  UNL1        0.1123
     11 C           2.4421    0.9141    0.4427 C.ar    1  UNL1        0.0502
     12 N           3.7742    0.8236    0.3474 N.ar    1  UNL1       -0.2643
     13 N           4.0652   -0.2886   -0.2965 N.ar    1  UNL1       -0.0678
     14 N           2.9522   -0.9230   -0.6219 N.ar    1  UNL1       -0.1297
     15 C          -0.4404    0.3836    0.2346 C.ar    1  UNL1       -0.0408
     16 H          -3.3268   -1.1159   -0.5259 H       1  UNL1        0.0623
     17 H          -1.6997   -2.7462   -1.5092 H       1  UNL1        0.0618
     18 H           0.7010   -2.3389   -1.3557 H       1  UNL1        0.0624
     19 H           1.8744    1.7256    0.9241 H       1  UNL1        0.0846
     20 H           4.4301    1.5532    0.7420 H       1  UNL1        0.1900
     21 H          -0.1000    1.2711    0.7297 H       1  UNL1        0.0630
@<TRIPOS>BOND
     1     1     2    1
     2     2     3    1
     3     2     4    1
     4     2     5    1
     5     5     6   ar
     6     6     7   ar
     7     7     8   ar
     8     8     9   ar
     9     9    10    1
    10    10    11   ar
    11    11    12   ar
    12    12    13   ar
    13    13    14   ar
    14     9    15   ar
    15    15     5   ar
    16    14    10   ar
    17     6    16    1
    18     7    17    1
    19     8    18    1
    20    11    19    1
    21    12    20    1
    22    15    21    1
