
     RDKit          3D

 21 22  0  0  0  0  0  0  0  0999 V2000
   -3.2663    1.9249   -0.2586 F   0  0  0  0  0  0  0  0  0  0  0  0
   -2.7126    1.1692    0.7573 C   0  0  0  0  0  0  0  0  0  0  0  0
   -3.6962    0.5795    1.5255 F   0  0  0  0  0  0  0  0  0  0  0  0
   -2.0066    2.0232    1.5843 F   0  0  0  0  0  0  0  0  0  0  0  0
   -1.8055    0.1599    0.1518 C   0  0  0  0  0  0  0  0  0  0  0  0
   -2.2577   -0.9596   -0.4719 C   0  0  0  0  0  0  0  0  0  0  0  0
   -1.3469   -1.8612   -1.0160 C   0  0  0  0  0  0  0  0  0  0  0  0
    0.0235   -1.6164   -0.9213 C   0  0  0  0  0  0  0  0  0  0  0  0
    0.4869   -0.4817   -0.2893 C   0  0  0  0  0  0  0  0  0  0  0  0
    1.9091   -0.1963   -0.1732 C   0  0  0  0  0  0  0  0  0  0  0  0
    2.4421    0.9141    0.4427 C   0  0  0  0  0  0  0  0  0  0  0  0
    3.7742    0.8236    0.3474 N   0  0  0  0  0  0  0  0  0  0  0  0
    4.0652   -0.2886   -0.2965 N   0  0  0  0  0  0  0  0  0  0  0  0
    2.9522   -0.9230   -0.6219 N   0  0  0  0  0  0  0  0  0  0  0  0
   -0.4404    0.3836    0.2346 C   0  0  0  0  0  0  0  0  0  0  0  0
   -3.3268   -1.1159   -0.5259 H   0  0  0  0  0  0  0  0  0  0  0  0
   -1.6997   -2.7462   -1.5092 H   0  0  0  0  0  0  0  0  0  0  0  0
    0.7010   -2.3389   -1.3557 H   0  0  0  0  0  0  0  0  0  0  0  0
    1.8744    1.7256    0.9241 H   0  0  0  0  0  0  0  0  0  0  0  0
    4.4301    1.5532    0.7420 H   0  0  0  0  0  0  0  0  0  0  0  0
   -0.1000    1.2711    0.7297 H   0  0  0  0  0  0  0  0  0  0  0  0
  1  2  1  0
  2  3  1  0
  2  4  1  0
  2  5  1  0
  5  6  2  0
  6  7  1  0
  7  8  2  0
  8  9  1  0
  9 10  1  0
 10 11  2  0
 11 12  1  0
 12 13  1  0
 13 14  2  0
  9 15  2  0
 15  5  1  0
 14 10  1  0
  6 16  1  0
  7 17  1  0
  8 18  1  0
 11 19  1  0
 12 20  1  0
 15 21  1  0
M  END
$$$$
