@<TRIPOS>MOLECULE
*****
 196 196 0 0 0
SMALL
GASTEIGER

@<TRIPOS>ATOM
      1 C          -7.1296   -7.8188   -0.4249 C.3     1  UNL1       -0.0468
      2 C          -6.8463   -6.8863    0.7022 C.2     1  UNL1       -0.0910
      3 C          -7.2552   -5.6428    0.7154 C.2     1  UNL1       -0.0879
      4 C          -6.9456   -4.7353    1.8780 C.3     1  UNL1       -0.0298
      5 C          -6.1446   -3.5726    1.2833 C.3     1  UNL1       -0.0122
      6 C          -5.8513   -2.6516    2.4779 C.3     1  UNL1       -0.0597
      7 C          -4.8567   -4.1419    0.8103 C.3     1  UNL1        0.0850
      8 O          -4.9164   -5.1186   -0.1188 O.3     1  UNL1       -0.3892
      9 C          -3.9174   -2.9376    0.2986 C.3     1  UNL1        0.1279
     10 C          -2.6638   -3.6875    0.1797 C.2     1  UNL1        0.2367
     11 O          -2.4331   -4.3994    1.2552 O.2     1  UNL1       -0.2737
     12 N          -1.6145   -3.9151   -0.6656 N.am    1  UNL1       -0.3024
     13 C          -0.5902   -4.9929   -0.4840 C.3     1  UNL1        0.0994
     14 C          -1.1605   -6.2741   -1.0580 C.3     1  UNL1       -0.0288
     15 C          -1.5024   -6.2053   -2.5052 C.3     1  UNL1       -0.0631
     16 C           0.7441   -4.5925   -0.8840 C.2     1  UNL1        0.2361
     17 O           0.8888   -3.2720   -0.8787 O.2     1  UNL1       -0.2736
     18 N           2.0087   -4.9739   -1.3078 N.am    1  UNL1       -0.2942
     19 C           2.4520   -6.2794   -1.6484 C.3     1  UNL1        0.0037
     20 C           3.1720   -4.0569   -1.4832 C.3     1  UNL1        0.0909
     21 C           4.1712   -4.0058   -0.4551 C.2     1  UNL1        0.2333
     22 O           5.1122   -3.1436   -0.8985 O.2     1  UNL1       -0.2739
     23 N           4.7080   -4.3530    0.7632 N.am    1  UNL1       -0.2917
     24 C           4.1146   -5.0700    1.7996 C.3     1  UNL1        0.0040
     25 C           6.1032   -3.9527    1.1611 C.3     1  UNL1        0.1021
     26 C           7.0785   -4.6465    0.2481 C.3     1  UNL1       -0.0234
     27 C           7.0257   -6.1398    0.2865 C.3     1  UNL1       -0.0446
     28 C           7.3203   -6.6986    1.6595 C.3     1  UNL1       -0.0626
     29 C           8.1766   -6.6239   -0.6060 C.3     1  UNL1       -0.0626
     30 C           6.3127   -2.5265    1.3340 C.2     1  UNL1        0.2342
     31 O           5.1921   -1.8206    1.3301 O.2     1  UNL1       -0.2738
     32 N           7.3398   -1.6240    1.5036 N.am    1  UNL1       -0.3022
     33 C           7.1638   -0.1372    1.6928 C.3     1  UNL1        0.1019
     34 C           8.1081    0.3601    2.7106 C.3     1  UNL1       -0.0197
     35 C           9.5656    0.1536    2.3363 C.3     1  UNL1       -0.0605
     36 C           7.8857    1.8046    3.0109 C.3     1  UNL1       -0.0605
     37 C           7.4653    0.4625    0.3742 C.2     1  UNL1        0.2365
     38 O           7.8490   -0.4856   -0.4513 O.2     1  UNL1       -0.2735
     39 N           7.5383    1.5620   -0.4176 N.am    1  UNL1       -0.2914
     40 C           7.6698    1.2027   -1.9131 C.3     1  UNL1        0.0040
     41 C           7.3830    2.9257   -0.3020 C.3     1  UNL1        0.1021
     42 C           8.5149    3.8630   -0.4521 C.3     1  UNL1       -0.0234
     43 C           9.3450    3.9802   -1.6530 C.3     1  UNL1       -0.0446
     44 C          10.3867    5.1463   -1.4408 C.3     1  UNL1       -0.0626
     45 C          10.3002    2.8046   -1.9182 C.3     1  UNL1       -0.0626
     46 C           6.1180    3.4272   -0.9940 C.2     1  UNL1        0.2341
     47 O           6.1897    4.7121   -1.1861 O.2     1  UNL1       -0.2738
     48 N           4.9566    2.9555   -1.4619 N.am    1  UNL1       -0.3027
     49 C           3.8777    3.8255   -2.0891 C.3     1  UNL1        0.0966
     50 C           3.6343    3.1514   -3.4161 C.3     1  UNL1       -0.0381
     51 C           2.7830    3.7277   -1.1194 C.2     1  UNL1        0.2337
     52 O           3.0876    3.1051    0.0079 O.2     1  UNL1       -0.2738
     53 N           1.4450    4.0950   -1.0016 N.am    1  UNL1       -0.3027
     54 C           0.7086    3.8455    0.2311 C.3     1  UNL1        0.0968
     55 C           0.4429    2.3032    0.3151 C.3     1  UNL1       -0.0381
     56 C          -0.5510    4.4673    0.4761 C.2     1  UNL1        0.2360
     57 O          -0.8852    4.1954    1.7773 O.2     1  UNL1       -0.2736
     58 N          -1.6766    5.2109    0.1351 N.am    1  UNL1       -0.2914
     59 C          -2.0031    5.7122   -1.1266 C.3     1  UNL1        0.0040
     60 C          -2.7380    5.5750    1.1346 C.3     1  UNL1        0.1023
     61 C          -2.8532    7.0509    1.1388 C.3     1  UNL1       -0.0234
     62 C          -3.9085    7.5655    2.1301 C.3     1  UNL1       -0.0446
     63 C          -3.5516    7.1603    3.5302 C.3     1  UNL1       -0.0626
     64 C          -4.0050    9.0578    2.0486 C.3     1  UNL1       -0.0626
     65 C          -3.9823    4.8067    0.9392 C.2     1  UNL1        0.2365
     66 O          -4.4811    4.5237    2.1516 O.2     1  UNL1       -0.2735
     67 N          -4.9296    4.2239    0.1322 N.am    1  UNL1       -0.2914
     68 C          -5.1452    4.4319   -1.2295 C.3     1  UNL1        0.0040
     69 C          -5.9770    3.2907    0.6859 C.3     1  UNL1        0.1023
     70 C          -7.2258    4.1424    0.6203 C.3     1  UNL1       -0.0234
     71 C          -8.4385    3.4676    1.1567 C.3     1  UNL1       -0.0446
     72 C          -9.6706    4.3787    1.0414 C.3     1  UNL1       -0.0626
     73 C          -8.3360    3.1848    2.6533 C.3     1  UNL1       -0.0626
     74 C          -6.0321    1.9841    0.0726 C.2     1  UNL1        0.2365
     75 O          -6.8101    1.2114    0.8537 O.2     1  UNL1       -0.2735
     76 N          -5.7066    1.0582   -0.9213 N.am    1  UNL1       -0.2912
     77 C          -4.8890    1.2705   -2.0334 C.3     1  UNL1        0.0040
     78 C          -6.2364   -0.3270   -0.8890 C.3     1  UNL1        0.1044
     79 C          -7.3282   -0.2851   -2.0054 C.3     1  UNL1       -0.0195
     80 C          -7.9798   -1.6539   -2.0805 C.3     1  UNL1       -0.0605
     81 C          -8.4012    0.6710   -1.5505 C.3     1  UNL1       -0.0605
     82 C          -5.3607   -1.4147   -1.2704 C.2     1  UNL1        0.2368
     83 O          -5.2561   -1.5959   -2.5921 O.2     1  UNL1       -0.2735
     84 N          -4.5132   -2.4335   -0.8691 N.am    1  UNL1       -0.2890
     85 C          -4.1026   -3.3509   -2.0381 C.3     1  UNL1        0.0041
     86 H          -7.7506   -8.6448   -0.0101 H       1  UNL1        0.0272
     87 H          -6.1436   -8.2379   -0.7680 H       1  UNL1        0.0272
     88 H          -7.6758   -7.3491   -1.2576 H       1  UNL1        0.0272
     89 H          -6.2773   -7.2777    1.5263 H       1  UNL1        0.0566
     90 H          -7.8278   -5.2611   -0.1194 H       1  UNL1        0.0569
     91 H          -6.4120   -5.2711    2.6624 H       1  UNL1        0.0311
     92 H          -7.9173   -4.3011    2.1629 H       1  UNL1        0.0311
     93 H          -6.7796   -3.1224    0.5408 H       1  UNL1        0.0327
     94 H          -5.7314   -1.6035    2.1350 H       1  UNL1        0.0233
     95 H          -4.9246   -2.9757    2.9586 H       1  UNL1        0.0233
     96 H          -6.6867   -2.6968    3.2119 H       1  UNL1        0.0233
     97 H          -4.3018   -4.4512    1.6698 H       1  UNL1        0.0619
     98 H          -4.2565   -5.8420   -0.0576 H       1  UNL1        0.2099
     99 H          -4.0531   -2.3023    1.1719 H       1  UNL1        0.0623
    100 H          -1.3850   -3.3810   -1.4876 H       1  UNL1        0.1495
    101 H          -0.5929   -5.1737    0.6057 H       1  UNL1        0.0594
    102 H          -0.3617   -7.0355   -0.9459 H       1  UNL1        0.0285
    103 H          -1.9849   -6.6069   -0.4109 H       1  UNL1        0.0285
    104 H          -0.8893   -6.8712   -3.1512 H       1  UNL1        0.0230
    105 H          -1.4371   -5.1985   -2.9618 H       1  UNL1        0.0230
    106 H          -2.5588   -6.5938   -2.6047 H       1  UNL1        0.0230
    107 H           3.4539   -6.2263   -2.2272 H       1  UNL1        0.0429
    108 H           2.6122   -6.9482   -0.7782 H       1  UNL1        0.0429
    109 H           1.8764   -6.8459   -2.4258 H       1  UNL1        0.0429
    110 H           3.6377   -4.3832   -2.4431 H       1  UNL1        0.0560
    111 H           2.8332   -3.0234   -1.7003 H       1  UNL1        0.0560
    112 H           3.0936   -4.8326    2.1501 H       1  UNL1        0.0429
    113 H           4.6814   -4.9515    2.7963 H       1  UNL1        0.0429
    114 H           4.0794   -6.1954    1.5944 H       1  UNL1        0.0429
    115 H           6.2556   -4.3984    2.1676 H       1  UNL1        0.0597
    116 H           8.1017   -4.3696    0.6626 H       1  UNL1        0.0290
    117 H           7.1024   -4.3021   -0.7827 H       1  UNL1        0.0290
    118 H           6.1151   -6.5786   -0.1619 H       1  UNL1        0.0296
    119 H           7.7616   -7.7070    1.5368 H       1  UNL1        0.0232
    120 H           8.0809   -6.0543    2.1328 H       1  UNL1        0.0232
    121 H           6.4173   -6.8291    2.2716 H       1  UNL1        0.0232
    122 H           7.8138   -6.5194   -1.6501 H       1  UNL1        0.0232
    123 H           9.0569   -5.9730   -0.4982 H       1  UNL1        0.0232
    124 H           8.4704   -7.6535   -0.3857 H       1  UNL1        0.0232
    125 H           8.3274   -1.7819    1.5277 H       1  UNL1        0.1495
    126 H           6.1328    0.0056    2.0002 H       1  UNL1        0.0597
    127 H           7.9679   -0.1808    3.6968 H       1  UNL1        0.0318
    128 H           9.7043    0.4206    1.2804 H       1  UNL1        0.0233
    129 H          10.2325    0.7634    2.9827 H       1  UNL1        0.0233
    130 H           9.8847   -0.9064    2.4907 H       1  UNL1        0.0233
    131 H           8.1906    2.0263    4.0763 H       1  UNL1        0.0233
    132 H           8.5673    2.4724    2.4122 H       1  UNL1        0.0233
    133 H           6.8325    2.1288    2.8725 H       1  UNL1        0.0233
    134 H           6.7134    0.6386   -2.1597 H       1  UNL1        0.0429
    135 H           7.6129    2.0919   -2.5307 H       1  UNL1        0.0429
    136 H           8.5555    0.6375   -2.0930 H       1  UNL1        0.0429
    137 H           7.0167    3.2559    0.7827 H       1  UNL1        0.0597
    138 H           9.1145    3.8753    0.5001 H       1  UNL1        0.0290
    139 H           7.9996    4.8749   -0.3572 H       1  UNL1        0.0290
    140 H           8.8682    4.2074   -2.5966 H       1  UNL1        0.0296
    141 H          10.5990    5.6352   -2.3912 H       1  UNL1        0.0232
    142 H          10.0091    5.8108   -0.6296 H       1  UNL1        0.0232
    143 H          11.3376    4.7321   -1.0463 H       1  UNL1        0.0232
    144 H          10.2271    2.0698   -1.1102 H       1  UNL1        0.0232
    145 H          11.3664    3.1419   -1.9792 H       1  UNL1        0.0232
    146 H          10.0468    2.3149   -2.8863 H       1  UNL1        0.0232
    147 H           4.5736    2.0326   -1.4858 H       1  UNL1        0.1495
    148 H           4.2756    4.8170   -2.2712 H       1  UNL1        0.0592
    149 H           4.6218    2.8783   -3.8307 H       1  UNL1        0.0252
    150 H           3.0299    2.2253   -3.1846 H       1  UNL1        0.0252
    151 H           3.1001    3.7905   -4.1344 H       1  UNL1        0.0252
    152 H           0.8747    4.5314   -1.6891 H       1  UNL1        0.1495
    153 H           1.4639    3.9425    1.0740 H       1  UNL1        0.0592
    154 H           0.7884    1.8352   -0.6463 H       1  UNL1        0.0252
    155 H           0.9538    1.8744    1.1794 H       1  UNL1        0.0252
    156 H          -0.6430    2.1884    0.3285 H       1  UNL1        0.0252
    157 H          -2.0827    4.9548   -1.9702 H       1  UNL1        0.0429
    158 H          -3.0075    6.2059   -1.2082 H       1  UNL1        0.0429
    159 H          -1.3440    6.5829   -1.4632 H       1  UNL1        0.0429
    160 H          -2.4083    5.2771    2.1568 H       1  UNL1        0.0597
    161 H          -3.1567    7.4476    0.1722 H       1  UNL1        0.0290
    162 H          -1.8729    7.5496    1.3974 H       1  UNL1        0.0290
    163 H          -4.9055    7.1467    1.8776 H       1  UNL1        0.0296
    164 H          -3.5384    8.0670    4.1762 H       1  UNL1        0.0232
    165 H          -2.5562    6.7006    3.6223 H       1  UNL1        0.0232
    166 H          -4.3682    6.5159    3.9629 H       1  UNL1        0.0232
    167 H          -4.7969    9.4091    2.7498 H       1  UNL1        0.0232
    168 H          -3.0518    9.4711    2.4366 H       1  UNL1        0.0232
    169 H          -4.1817    9.4449    1.0306 H       1  UNL1        0.0232
    170 H          -4.3377    4.0854   -1.9158 H       1  UNL1        0.0429
    171 H          -6.0484    3.8767   -1.6501 H       1  UNL1        0.0429
    172 H          -5.4628    5.4886   -1.5330 H       1  UNL1        0.0429
    173 H          -5.8428    3.1351    1.7750 H       1  UNL1        0.0597
    174 H          -7.0698    5.0722    1.2432 H       1  UNL1        0.0290
    175 H          -7.3851    4.5206   -0.4015 H       1  UNL1        0.0290
    176 H          -8.6441    2.5342    0.6337 H       1  UNL1        0.0296
    177 H          -9.9885    4.5274    0.0052 H       1  UNL1        0.0232
    178 H          -9.4308    5.3128    1.5781 H       1  UNL1        0.0232
    179 H         -10.4623    3.8825    1.6697 H       1  UNL1        0.0232
    180 H          -7.3895    2.7661    2.9725 H       1  UNL1        0.0232
    181 H          -8.5269    4.1218    3.2398 H       1  UNL1        0.0232
    182 H          -9.1715    2.5024    2.9138 H       1  UNL1        0.0232
    183 H          -5.3043    1.9961   -2.8171 H       1  UNL1        0.0429
    184 H          -3.8149    1.5552   -1.7992 H       1  UNL1        0.0429
    185 H          -4.7317    0.3853   -2.7008 H       1  UNL1        0.0429
    186 H          -6.8897   -0.5442   -0.0221 H       1  UNL1        0.0599
    187 H          -6.9259    0.0727   -2.9485 H       1  UNL1        0.0318
    188 H          -8.8308   -1.7202   -1.3495 H       1  UNL1        0.0233
    189 H          -8.4313   -1.8482   -3.0562 H       1  UNL1        0.0233
    190 H          -7.2381   -2.4361   -1.8633 H       1  UNL1        0.0233
    191 H          -8.0042    1.6882   -1.5200 H       1  UNL1        0.0233
    192 H          -8.9027    0.3446   -0.6216 H       1  UNL1        0.0233
    193 H          -9.2061    0.6705   -2.3336 H       1  UNL1        0.0233
    194 H          -3.4174   -2.7970   -2.6995 H       1  UNL1        0.0429
    195 H          -5.0421   -3.7009   -2.5388 H       1  UNL1        0.0429
    196 H          -3.6080   -4.2367   -1.7152 H       1  UNL1        0.0429
@<TRIPOS>BOND
     1     1     2    1
     2     2     3    2
     3     3     4    1
     4     4     5    1
     5     5     6    1
     6     5     7    1
     7     7     8    1
     8     7     9    1
     9     9    10    1
    10    10    11    2
    11    10    12   am
    12    12    13    1
    13    13    14    1
    14    14    15    1
    15    13    16    1
    16    16    17    2
    17    16    18   am
    18    18    19    1
    19    18    20    1
    20    20    21    1
    21    21    22    2
    22    21    23   am
    23    23    24    1
    24    23    25    1
    25    25    26    1
    26    26    27    1
    27    27    28    1
    28    27    29    1
    29    25    30    1
    30    30    31    2
    31    30    32   am
    32    32    33    1
    33    33    34    1
    34    34    35    1
    35    34    36    1
    36    33    37    1
    37    37    38    2
    38    37    39   am
    39    39    40    1
    40    39    41    1
    41    41    42    1
    42    42    43    1
    43    43    44    1
    44    43    45    1
    45    41    46    1
    46    46    47    2
    47    46    48   am
    48    48    49    1
    49    49    50    1
    50    49    51    1
    51    51    52    2
    52    51    53   am
    53    53    54    1
    54    54    55    1
    55    54    56    1
    56    56    57    2
    57    56    58   am
    58    58    59    1
    59    58    60    1
    60    60    61    1
    61    61    62    1
    62    62    63    1
    63    62    64    1
    64    60    65    1
    65    65    66    2
    66    65    67   am
    67    67    68    1
    68    67    69    1
    69    69    70    1
    70    70    71    1
    71    71    72    1
    72    71    73    1
    73    69    74    1
    74    74    75    2
    75    74    76   am
    76    76    77    1
    77    76    78    1
    78    78    79    1
    79    79    80    1
    80    79    81    1
    81    78    82    1
    82    82    83    2
    83    82    84   am
    84    84    85    1
    85    84     9    1
    86     1    86    1
    87     1    87    1
    88     1    88    1
    89     2    89    1
    90     3    90    1
    91     4    91    1
    92     4    92    1
    93     5    93    1
    94     6    94    1
    95     6    95    1
    96     6    96    1
    97     7    97    1
    98     8    98    1
    99     9    99    1
   100    12   100    1
   101    13   101    1
   102    14   102    1
   103    14   103    1
   104    15   104    1
   105    15   105    1
   106    15   106    1
   107    19   107    1
   108    19   108    1
   109    19   109    1
   110    20   110    1
   111    20   111    1
   112    24   112    1
   113    24   113    1
   114    24   114    1
   115    25   115    1
   116    26   116    1
   117    26   117    1
   118    27   118    1
   119    28   119    1
   120    28   120    1
   121    28   121    1
   122    29   122    1
   123    29   123    1
   124    29   124    1
   125    32   125    1
   126    33   126    1
   127    34   127    1
   128    35   128    1
   129    35   129    1
   130    35   130    1
   131    36   131    1
   132    36   132    1
   133    36   133    1
   134    40   134    1
   135    40   135    1
   136    40   136    1
   137    41   137    1
   138    42   138    1
   139    42   139    1
   140    43   140    1
   141    44   141    1
   142    44   142    1
   143    44   143    1
   144    45   144    1
   145    45   145    1
   146    45   146    1
   147    48   147    1
   148    49   148    1
   149    50   149    1
   150    50   150    1
   151    50   151    1
   152    53   152    1
   153    54   153    1
   154    55   154    1
   155    55   155    1
   156    55   156    1
   157    59   157    1
   158    59   158    1
   159    59   159    1
   160    60   160    1
   161    61   161    1
   162    61   162    1
   163    62   163    1
   164    63   164    1
   165    63   165    1
   166    63   166    1
   167    64   167    1
   168    64   168    1
   169    64   169    1
   170    68   170    1
   171    68   171    1
   172    68   172    1
   173    69   173    1
   174    70   174    1
   175    70   175    1
   176    71   176    1
   177    72   177    1
   178    72   178    1
   179    72   179    1
   180    73   180    1
   181    73   181    1
   182    73   182    1
   183    77   183    1
   184    77   184    1
   185    77   185    1
   186    78   186    1
   187    79   187    1
   188    80   188    1
   189    80   189    1
   190    80   190    1
   191    81   191    1
   192    81   192    1
   193    81   193    1
   194    85   194    1
   195    85   195    1
   196    85   196    1
