
     RDKit          3D

196196  0  0  0  0  0  0  0  0999 V2000
   -7.1296   -7.8188   -0.4249 C   0  0  0  0  0  0  0  0  0  0  0  0
   -6.8463   -6.8863    0.7022 C   0  0  0  0  0  0  0  0  0  0  0  0
   -7.2552   -5.6428    0.7154 C   0  0  0  0  0  0  0  0  0  0  0  0
   -6.9456   -4.7353    1.8780 C   0  0  0  0  0  0  0  0  0  0  0  0
   -6.1446   -3.5726    1.2833 C   0  0  1  0  0  0  0  0  0  0  0  0
   -5.8513   -2.6516    2.4779 C   0  0  0  0  0  0  0  0  0  0  0  0
   -4.8567   -4.1419    0.8103 C   0  0  1  0  0  0  0  0  0  0  0  0
   -4.9164   -5.1186   -0.1188 O   0  0  0  0  0  0  0  0  0  0  0  0
   -3.9174   -2.9376    0.2986 C   0  0  1  0  0  0  0  0  0  0  0  0
   -2.6638   -3.6875    0.1797 C   0  0  0  0  0  0  0  0  0  0  0  0
   -2.4331   -4.3994    1.2552 O   0  0  0  0  0  0  0  0  0  0  0  0
   -1.6145   -3.9151   -0.6656 N   0  0  0  0  0  0  0  0  0  0  0  0
   -0.5902   -4.9929   -0.4840 C   0  0  1  0  0  0  0  0  0  0  0  0
   -1.1605   -6.2741   -1.0580 C   0  0  0  0  0  0  0  0  0  0  0  0
   -1.5024   -6.2053   -2.5052 C   0  0  0  0  0  0  0  0  0  0  0  0
    0.7441   -4.5925   -0.8840 C   0  0  0  0  0  0  0  0  0  0  0  0
    0.8888   -3.2720   -0.8787 O   0  0  0  0  0  0  0  0  0  0  0  0
    2.0087   -4.9739   -1.3078 N   0  0  0  0  0  0  0  0  0  0  0  0
    2.4520   -6.2794   -1.6484 C   0  0  0  0  0  0  0  0  0  0  0  0
    3.1720   -4.0569   -1.4832 C   0  0  0  0  0  0  0  0  0  0  0  0
    4.1712   -4.0058   -0.4551 C   0  0  0  0  0  0  0  0  0  0  0  0
    5.1122   -3.1436   -0.8985 O   0  0  0  0  0  0  0  0  0  0  0  0
    4.7080   -4.3530    0.7632 N   0  0  0  0  0  0  0  0  0  0  0  0
    4.1146   -5.0700    1.7996 C   0  0  0  0  0  0  0  0  0  0  0  0
    6.1032   -3.9527    1.1611 C   0  0  1  0  0  0  0  0  0  0  0  0
    7.0785   -4.6465    0.2481 C   0  0  0  0  0  0  0  0  0  0  0  0
    7.0257   -6.1398    0.2865 C   0  0  0  0  0  0  0  0  0  0  0  0
    7.3203   -6.6986    1.6595 C   0  0  0  0  0  0  0  0  0  0  0  0
    8.1766   -6.6239   -0.6060 C   0  0  0  0  0  0  0  0  0  0  0  0
    6.3127   -2.5265    1.3340 C   0  0  0  0  0  0  0  0  0  0  0  0
    5.1921   -1.8206    1.3301 O   0  0  0  0  0  0  0  0  0  0  0  0
    7.3398   -1.6240    1.5036 N   0  0  0  0  0  0  0  0  0  0  0  0
    7.1638   -0.1372    1.6928 C   0  0  1  0  0  0  0  0  0  0  0  0
    8.1081    0.3601    2.7106 C   0  0  0  0  0  0  0  0  0  0  0  0
    9.5656    0.1536    2.3363 C   0  0  0  0  0  0  0  0  0  0  0  0
    7.8857    1.8046    3.0109 C   0  0  0  0  0  0  0  0  0  0  0  0
    7.4653    0.4625    0.3742 C   0  0  0  0  0  0  0  0  0  0  0  0
    7.8490   -0.4856   -0.4513 O   0  0  0  0  0  0  0  0  0  0  0  0
    7.5383    1.5620   -0.4176 N   0  0  0  0  0  0  0  0  0  0  0  0
    7.6698    1.2027   -1.9131 C   0  0  0  0  0  0  0  0  0  0  0  0
    7.3830    2.9257   -0.3020 C   0  0  1  0  0  0  0  0  0  0  0  0
    8.5149    3.8630   -0.4521 C   0  0  0  0  0  0  0  0  0  0  0  0
    9.3450    3.9802   -1.6530 C   0  0  0  0  0  0  0  0  0  0  0  0
   10.3867    5.1463   -1.4408 C   0  0  0  0  0  0  0  0  0  0  0  0
   10.3002    2.8046   -1.9182 C   0  0  0  0  0  0  0  0  0  0  0  0
    6.1180    3.4272   -0.9940 C   0  0  0  0  0  0  0  0  0  0  0  0
    6.1897    4.7121   -1.1861 O   0  0  0  0  0  0  0  0  0  0  0  0
    4.9566    2.9555   -1.4619 N   0  0  0  0  0  0  0  0  0  0  0  0
    3.8777    3.8255   -2.0891 C   0  0  1  0  0  0  0  0  0  0  0  0
    3.6343    3.1514   -3.4161 C   0  0  0  0  0  0  0  0  0  0  0  0
    2.7830    3.7277   -1.1194 C   0  0  0  0  0  0  0  0  0  0  0  0
    3.0876    3.1051    0.0079 O   0  0  0  0  0  0  0  0  0  0  0  0
    1.4450    4.0950   -1.0016 N   0  0  0  0  0  0  0  0  0  0  0  0
    0.7086    3.8455    0.2311 C   0  0  2  0  0  0  0  0  0  0  0  0
    0.4429    2.3032    0.3151 C   0  0  0  0  0  0  0  0  0  0  0  0
   -0.5510    4.4673    0.4761 C   0  0  0  0  0  0  0  0  0  0  0  0
   -0.8852    4.1954    1.7773 O   0  0  0  0  0  0  0  0  0  0  0  0
   -1.6766    5.2109    0.1351 N   0  0  0  0  0  0  0  0  0  0  0  0
   -2.0031    5.7122   -1.1266 C   0  0  0  0  0  0  0  0  0  0  0  0
   -2.7380    5.5750    1.1346 C   0  0  1  0  0  0  0  0  0  0  0  0
   -2.8532    7.0509    1.1388 C   0  0  0  0  0  0  0  0  0  0  0  0
   -3.9085    7.5655    2.1301 C   0  0  0  0  0  0  0  0  0  0  0  0
   -3.5516    7.1603    3.5302 C   0  0  0  0  0  0  0  0  0  0  0  0
   -4.0050    9.0578    2.0486 C   0  0  0  0  0  0  0  0  0  0  0  0
   -3.9823    4.8067    0.9392 C   0  0  0  0  0  0  0  0  0  0  0  0
   -4.4811    4.5237    2.1516 O   0  0  0  0  0  0  0  0  0  0  0  0
   -4.9296    4.2239    0.1322 N   0  0  0  0  0  0  0  0  0  0  0  0
   -5.1452    4.4319   -1.2295 C   0  0  0  0  0  0  0  0  0  0  0  0
   -5.9770    3.2907    0.6859 C   0  0  1  0  0  0  0  0  0  0  0  0
   -7.2258    4.1424    0.6203 C   0  0  0  0  0  0  0  0  0  0  0  0
   -8.4385    3.4676    1.1567 C   0  0  0  0  0  0  0  0  0  0  0  0
   -9.6706    4.3787    1.0414 C   0  0  0  0  0  0  0  0  0  0  0  0
   -8.3360    3.1848    2.6533 C   0  0  0  0  0  0  0  0  0  0  0  0
   -6.0321    1.9841    0.0726 C   0  0  0  0  0  0  0  0  0  0  0  0
   -6.8101    1.2114    0.8537 O   0  0  0  0  0  0  0  0  0  0  0  0
   -5.7066    1.0582   -0.9213 N   0  0  0  0  0  0  0  0  0  0  0  0
   -4.8890    1.2705   -2.0334 C   0  0  0  0  0  0  0  0  0  0  0  0
   -6.2364   -0.3270   -0.8890 C   0  0  1  0  0  0  0  0  0  0  0  0
   -7.3282   -0.2851   -2.0054 C   0  0  0  0  0  0  0  0  0  0  0  0
   -7.9798   -1.6539   -2.0805 C   0  0  0  0  0  0  0  0  0  0  0  0
   -8.4012    0.6710   -1.5505 C   0  0  0  0  0  0  0  0  0  0  0  0
   -5.3607   -1.4147   -1.2704 C   0  0  0  0  0  0  0  0  0  0  0  0
   -5.2561   -1.5959   -2.5921 O   0  0  0  0  0  0  0  0  0  0  0  0
   -4.5132   -2.4335   -0.8691 N   0  0  0  0  0  0  0  0  0  0  0  0
   -4.1026   -3.3509   -2.0381 C   0  0  0  0  0  0  0  0  0  0  0  0
   -7.7506   -8.6448   -0.0101 H   0  0  0  0  0  0  0  0  0  0  0  0
   -6.1436   -8.2379   -0.7680 H   0  0  0  0  0  0  0  0  0  0  0  0
   -7.6758   -7.3491   -1.2576 H   0  0  0  0  0  0  0  0  0  0  0  0
   -6.2773   -7.2777    1.5263 H   0  0  0  0  0  0  0  0  0  0  0  0
   -7.8278   -5.2611   -0.1194 H   0  0  0  0  0  0  0  0  0  0  0  0
   -6.4120   -5.2711    2.6624 H   0  0  0  0  0  0  0  0  0  0  0  0
   -7.9173   -4.3011    2.1629 H   0  0  0  0  0  0  0  0  0  0  0  0
   -6.7796   -3.1224    0.5408 H   0  0  0  0  0  0  0  0  0  0  0  0
   -5.7314   -1.6035    2.1350 H   0  0  0  0  0  0  0  0  0  0  0  0
   -4.9246   -2.9757    2.9586 H   0  0  0  0  0  0  0  0  0  0  0  0
   -6.6867   -2.6968    3.2119 H   0  0  0  0  0  0  0  0  0  0  0  0
   -4.3018   -4.4512    1.6698 H   0  0  0  0  0  0  0  0  0  0  0  0
   -4.2565   -5.8420   -0.0576 H   0  0  0  0  0  0  0  0  0  0  0  0
   -4.0531   -2.3023    1.1719 H   0  0  0  0  0  0  0  0  0  0  0  0
   -1.3850   -3.3810   -1.4876 H   0  0  0  0  0  0  0  0  0  0  0  0
   -0.5929   -5.1737    0.6057 H   0  0  0  0  0  0  0  0  0  0  0  0
   -0.3617   -7.0355   -0.9459 H   0  0  0  0  0  0  0  0  0  0  0  0
   -1.9849   -6.6069   -0.4109 H   0  0  0  0  0  0  0  0  0  0  0  0
   -0.8893   -6.8712   -3.1512 H   0  0  0  0  0  0  0  0  0  0  0  0
   -1.4371   -5.1985   -2.9618 H   0  0  0  0  0  0  0  0  0  0  0  0
   -2.5588   -6.5938   -2.6047 H   0  0  0  0  0  0  0  0  0  0  0  0
    3.4539   -6.2263   -2.2272 H   0  0  0  0  0  0  0  0  0  0  0  0
    2.6122   -6.9482   -0.7782 H   0  0  0  0  0  0  0  0  0  0  0  0
    1.8764   -6.8459   -2.4258 H   0  0  0  0  0  0  0  0  0  0  0  0
    3.6377   -4.3832   -2.4431 H   0  0  0  0  0  0  0  0  0  0  0  0
    2.8332   -3.0234   -1.7003 H   0  0  0  0  0  0  0  0  0  0  0  0
    3.0936   -4.8326    2.1501 H   0  0  0  0  0  0  0  0  0  0  0  0
    4.6814   -4.9515    2.7963 H   0  0  0  0  0  0  0  0  0  0  0  0
    4.0794   -6.1954    1.5944 H   0  0  0  0  0  0  0  0  0  0  0  0
    6.2556   -4.3984    2.1676 H   0  0  0  0  0  0  0  0  0  0  0  0
    8.1017   -4.3696    0.6626 H   0  0  0  0  0  0  0  0  0  0  0  0
    7.1024   -4.3021   -0.7827 H   0  0  0  0  0  0  0  0  0  0  0  0
    6.1151   -6.5786   -0.1619 H   0  0  0  0  0  0  0  0  0  0  0  0
    7.7616   -7.7070    1.5368 H   0  0  0  0  0  0  0  0  0  0  0  0
    8.0809   -6.0543    2.1328 H   0  0  0  0  0  0  0  0  0  0  0  0
    6.4173   -6.8291    2.2716 H   0  0  0  0  0  0  0  0  0  0  0  0
    7.8138   -6.5194   -1.6501 H   0  0  0  0  0  0  0  0  0  0  0  0
    9.0569   -5.9730   -0.4982 H   0  0  0  0  0  0  0  0  0  0  0  0
    8.4704   -7.6535   -0.3857 H   0  0  0  0  0  0  0  0  0  0  0  0
    8.3274   -1.7819    1.5277 H   0  0  0  0  0  0  0  0  0  0  0  0
    6.1328    0.0056    2.0002 H   0  0  0  0  0  0  0  0  0  0  0  0
    7.9679   -0.1808    3.6968 H   0  0  0  0  0  0  0  0  0  0  0  0
    9.7043    0.4206    1.2804 H   0  0  0  0  0  0  0  0  0  0  0  0
   10.2325    0.7634    2.9827 H   0  0  0  0  0  0  0  0  0  0  0  0
    9.8847   -0.9064    2.4907 H   0  0  0  0  0  0  0  0  0  0  0  0
    8.1906    2.0263    4.0763 H   0  0  0  0  0  0  0  0  0  0  0  0
    8.5673    2.4724    2.4122 H   0  0  0  0  0  0  0  0  0  0  0  0
    6.8325    2.1288    2.8725 H   0  0  0  0  0  0  0  0  0  0  0  0
    6.7134    0.6386   -2.1597 H   0  0  0  0  0  0  0  0  0  0  0  0
    7.6129    2.0919   -2.5307 H   0  0  0  0  0  0  0  0  0  0  0  0
    8.5555    0.6375   -2.0930 H   0  0  0  0  0  0  0  0  0  0  0  0
    7.0167    3.2559    0.7827 H   0  0  0  0  0  0  0  0  0  0  0  0
    9.1145    3.8753    0.5001 H   0  0  0  0  0  0  0  0  0  0  0  0
    7.9996    4.8749   -0.3572 H   0  0  0  0  0  0  0  0  0  0  0  0
    8.8682    4.2074   -2.5966 H   0  0  0  0  0  0  0  0  0  0  0  0
   10.5990    5.6352   -2.3912 H   0  0  0  0  0  0  0  0  0  0  0  0
   10.0091    5.8108   -0.6296 H   0  0  0  0  0  0  0  0  0  0  0  0
   11.3376    4.7321   -1.0463 H   0  0  0  0  0  0  0  0  0  0  0  0
   10.2271    2.0698   -1.1102 H   0  0  0  0  0  0  0  0  0  0  0  0
   11.3664    3.1419   -1.9792 H   0  0  0  0  0  0  0  0  0  0  0  0
   10.0468    2.3149   -2.8863 H   0  0  0  0  0  0  0  0  0  0  0  0
    4.5736    2.0326   -1.4858 H   0  0  0  0  0  0  0  0  0  0  0  0
    4.2756    4.8170   -2.2712 H   0  0  0  0  0  0  0  0  0  0  0  0
    4.6218    2.8783   -3.8307 H   0  0  0  0  0  0  0  0  0  0  0  0
    3.0299    2.2253   -3.1846 H   0  0  0  0  0  0  0  0  0  0  0  0
    3.1001    3.7905   -4.1344 H   0  0  0  0  0  0  0  0  0  0  0  0
    0.8747    4.5314   -1.6891 H   0  0  0  0  0  0  0  0  0  0  0  0
    1.4639    3.9425    1.0740 H   0  0  0  0  0  0  0  0  0  0  0  0
    0.7884    1.8352   -0.6463 H   0  0  0  0  0  0  0  0  0  0  0  0
    0.9538    1.8744    1.1794 H   0  0  0  0  0  0  0  0  0  0  0  0
   -0.6430    2.1884    0.3285 H   0  0  0  0  0  0  0  0  0  0  0  0
   -2.0827    4.9548   -1.9702 H   0  0  0  0  0  0  0  0  0  0  0  0
   -3.0075    6.2059   -1.2082 H   0  0  0  0  0  0  0  0  0  0  0  0
   -1.3440    6.5829   -1.4632 H   0  0  0  0  0  0  0  0  0  0  0  0
   -2.4083    5.2771    2.1568 H   0  0  0  0  0  0  0  0  0  0  0  0
   -3.1567    7.4476    0.1722 H   0  0  0  0  0  0  0  0  0  0  0  0
   -1.8729    7.5496    1.3974 H   0  0  0  0  0  0  0  0  0  0  0  0
   -4.9055    7.1467    1.8776 H   0  0  0  0  0  0  0  0  0  0  0  0
   -3.5384    8.0670    4.1762 H   0  0  0  0  0  0  0  0  0  0  0  0
   -2.5562    6.7006    3.6223 H   0  0  0  0  0  0  0  0  0  0  0  0
   -4.3682    6.5159    3.9629 H   0  0  0  0  0  0  0  0  0  0  0  0
   -4.7969    9.4091    2.7498 H   0  0  0  0  0  0  0  0  0  0  0  0
   -3.0518    9.4711    2.4366 H   0  0  0  0  0  0  0  0  0  0  0  0
   -4.1817    9.4449    1.0306 H   0  0  0  0  0  0  0  0  0  0  0  0
   -4.3377    4.0854   -1.9158 H   0  0  0  0  0  0  0  0  0  0  0  0
   -6.0484    3.8767   -1.6501 H   0  0  0  0  0  0  0  0  0  0  0  0
   -5.4628    5.4886   -1.5330 H   0  0  0  0  0  0  0  0  0  0  0  0
   -5.8428    3.1351    1.7750 H   0  0  0  0  0  0  0  0  0  0  0  0
   -7.0698    5.0722    1.2432 H   0  0  0  0  0  0  0  0  0  0  0  0
   -7.3851    4.5206   -0.4015 H   0  0  0  0  0  0  0  0  0  0  0  0
   -8.6441    2.5342    0.6337 H   0  0  0  0  0  0  0  0  0  0  0  0
   -9.9885    4.5274    0.0052 H   0  0  0  0  0  0  0  0  0  0  0  0
   -9.4308    5.3128    1.5781 H   0  0  0  0  0  0  0  0  0  0  0  0
  -10.4623    3.8825    1.6697 H   0  0  0  0  0  0  0  0  0  0  0  0
   -7.3895    2.7661    2.9725 H   0  0  0  0  0  0  0  0  0  0  0  0
   -8.5269    4.1218    3.2398 H   0  0  0  0  0  0  0  0  0  0  0  0
   -9.1715    2.5024    2.9138 H   0  0  0  0  0  0  0  0  0  0  0  0
   -5.3043    1.9961   -2.8171 H   0  0  0  0  0  0  0  0  0  0  0  0
   -3.8149    1.5552   -1.7992 H   0  0  0  0  0  0  0  0  0  0  0  0
   -4.7317    0.3853   -2.7008 H   0  0  0  0  0  0  0  0  0  0  0  0
   -6.8897   -0.5442   -0.0221 H   0  0  0  0  0  0  0  0  0  0  0  0
   -6.9259    0.0727   -2.9485 H   0  0  0  0  0  0  0  0  0  0  0  0
   -8.8308   -1.7202   -1.3495 H   0  0  0  0  0  0  0  0  0  0  0  0
   -8.4313   -1.8482   -3.0562 H   0  0  0  0  0  0  0  0  0  0  0  0
   -7.2381   -2.4361   -1.8633 H   0  0  0  0  0  0  0  0  0  0  0  0
   -8.0042    1.6882   -1.5200 H   0  0  0  0  0  0  0  0  0  0  0  0
   -8.9027    0.3446   -0.6216 H   0  0  0  0  0  0  0  0  0  0  0  0
   -9.2061    0.6705   -2.3336 H   0  0  0  0  0  0  0  0  0  0  0  0
   -3.4174   -2.7970   -2.6995 H   0  0  0  0  0  0  0  0  0  0  0  0
   -5.0421   -3.7009   -2.5388 H   0  0  0  0  0  0  0  0  0  0  0  0
   -3.6080   -4.2367   -1.7152 H   0  0  0  0  0  0  0  0  0  0  0  0
  1  2  1  0
  2  3  2  0
  3  4  1  0
  4  5  1  0
  5  6  1  0
  5  7  1  0
  7  8  1  0
  7  9  1  0
  9 10  1  0
 10 11  2  0
 10 12  1  0
 12 13  1  0
 13 14  1  0
 14 15  1  0
 13 16  1  0
 16 17  2  0
 16 18  1  0
 18 19  1  0
 18 20  1  0
 20 21  1  0
 21 22  2  0
 21 23  1  0
 23 24  1  0
 23 25  1  0
 25 26  1  0
 26 27  1  0
 27 28  1  0
 27 29  1  0
 25 30  1  0
 30 31  2  0
 30 32  1  0
 32 33  1  0
 33 34  1  0
 34 35  1  0
 34 36  1  0
 33 37  1  0
 37 38  2  0
 37 39  1  0
 39 40  1  0
 39 41  1  0
 41 42  1  0
 42 43  1  0
 43 44  1  0
 43 45  1  0
 41 46  1  0
 46 47  2  0
 46 48  1  0
 48 49  1  0
 49 50  1  0
 49 51  1  0
 51 52  2  0
 51 53  1  0
 53 54  1  0
 54 55  1  0
 54 56  1  0
 56 57  2  0
 56 58  1  0
 58 59  1  0
 58 60  1  0
 60 61  1  0
 61 62  1  0
 62 63  1  0
 62 64  1  0
 60 65  1  0
 65 66  2  0
 65 67  1  0
 67 68  1  0
 67 69  1  0
 69 70  1  0
 70 71  1  0
 71 72  1  0
 71 73  1  0
 69 74  1  0
 74 75  2  0
 74 76  1  0
 76 77  1  0
 76 78  1  0
 78 79  1  0
 79 80  1  0
 79 81  1  0
 78 82  1  0
 82 83  2  0
 82 84  1  0
 84 85  1  0
 84  9  1  0
  1 86  1  0
  1 87  1  0
  1 88  1  0
  2 89  1  0
  3 90  1  0
  4 91  1  0
  4 92  1  0
  5 93  1  6
  6 94  1  0
  6 95  1  0
  6 96  1  0
  7 97  1  1
  8 98  1  0
  9 99  1  1
 12100  1  0
 13101  1  1
 14102  1  0
 14103  1  0
 15104  1  0
 15105  1  0
 15106  1  0
 19107  1  0
 19108  1  0
 19109  1  0
 20110  1  0
 20111  1  0
 24112  1  0
 24113  1  0
 24114  1  0
 25115  1  1
 26116  1  0
 26117  1  0
 27118  1  0
 28119  1  0
 28120  1  0
 28121  1  0
 29122  1  0
 29123  1  0
 29124  1  0
 32125  1  0
 33126  1  1
 34127  1  0
 35128  1  0
 35129  1  0
 35130  1  0
 36131  1  0
 36132  1  0
 36133  1  0
 40134  1  0
 40135  1  0
 40136  1  0
 41137  1  1
 42138  1  0
 42139  1  0
 43140  1  0
 44141  1  0
 44142  1  0
 44143  1  0
 45144  1  0
 45145  1  0
 45146  1  0
 48147  1  0
 49148  1  6
 50149  1  0
 50150  1  0
 50151  1  0
 53152  1  0
 54153  1  1
 55154  1  0
 55155  1  0
 55156  1  0
 59157  1  0
 59158  1  0
 59159  1  0
 60160  1  1
 61161  1  0
 61162  1  0
 62163  1  0
 63164  1  0
 63165  1  0
 63166  1  0
 64167  1  0
 64168  1  0
 64169  1  0
 68170  1  0
 68171  1  0
 68172  1  0
 69173  1  1
 70174  1  0
 70175  1  0
 71176  1  0
 72177  1  0
 72178  1  0
 72179  1  0
 73180  1  0
 73181  1  0
 73182  1  0
 77183  1  0
 77184  1  0
 77185  1  0
 78186  1  1
 79187  1  0
 80188  1  0
 80189  1  0
 80190  1  0
 81191  1  0
 81192  1  0
 81193  1  0
 85194  1  0
 85195  1  0
 85196  1  0
M  END
$$$$
