@<TRIPOS>MOLECULE
*****
 18 17 0 0 0
SMALL
GASTEIGER

@<TRIPOS>ATOM
      1 C          -0.3072    0.5626   -0.0745 C.2     1  UNL1        0.0292
      2 C           0.3286   -0.5715    0.1121 C.2     1  UNL1        0.0292
      3 C           1.7612   -0.6153    0.0463 C.2     1  UNL1        0.3319
      4 O           2.4786   -1.6351    0.2065 O.2     1  UNL1       -0.2456
      5 O           2.5920    0.4411   -0.2014 O.3     1  UNL1       -0.4649
      6 C           3.9965    0.2599   -0.2392 C.3     1  UNL1        0.0820
      7 C          -1.7609    0.6606   -0.0181 C.2     1  UNL1        0.3319
      8 O          -2.3821    1.7504   -0.1969 O.2     1  UNL1       -0.2456
      9 O          -2.6102   -0.3891    0.2293 O.3     1  UNL1       -0.4649
     10 C          -4.0202   -0.2752    0.2804 C.3     1  UNL1        0.0820
     11 H           0.2343    1.4754   -0.2794 H       1  UNL1        0.0691
     12 H          -0.2052   -1.4876    0.3172 H       1  UNL1        0.0691
     13 H           4.3362   -0.4075    0.5838 H       1  UNL1        0.0661
     14 H           4.2447   -0.1732   -1.2283 H       1  UNL1        0.0661
     15 H           4.4612    1.2376   -0.0885 H       1  UNL1        0.0661
     16 H          -4.4390   -0.5663   -0.7030 H       1  UNL1        0.0661
     17 H          -4.3115    0.7427    0.5912 H       1  UNL1        0.0661
     18 H          -4.3970   -1.0095    1.0224 H       1  UNL1        0.0661
@<TRIPOS>BOND
     1     1     2    2
     2     2     3    1
     3     3     4    2
     4     3     5    1
     5     5     6    1
     6     1     7    1
     7     7     8    2
     8     7     9    1
     9     9    10    1
    10     1    11    1
    11     2    12    1
    12     6    13    1
    13     6    14    1
    14     6    15    1
    15    10    16    1
    16    10    17    1
    17    10    18    1
