@<TRIPOS>MOLECULE
*****
 50 54 0 0 0
SMALL
GASTEIGER

@<TRIPOS>ATOM
      1 C          -1.2967   -2.0950    2.6032 C.3     1  UNL1       -0.0260
      2 C          -0.2499   -2.3185    1.5443 C.2     1  UNL1        0.0161
      3 C          -0.2749   -1.7132    0.4012 C.2     1  UNL1        0.0392
      4 C          -1.2682   -0.7568   -0.0544 C.2     1  UNL1        0.2463
      5 O          -0.9944   -0.3295   -1.2573 O.2     1  UNL1       -0.2701
      6 N          -2.4089   -0.2099    0.4804 N.am    1  UNL1       -0.2817
      7 C          -3.3124    0.7352   -0.0709 C.ar    1  UNL1        0.0344
      8 C          -4.4096    1.1196    0.7128 C.ar    1  UNL1       -0.0384
      9 C          -5.3476    2.0356    0.2648 C.ar    1  UNL1       -0.0345
     10 C          -5.2169    2.5927   -0.9763 C.ar    1  UNL1        0.0658
     11 N          -5.9206    3.4757   -1.6852 N.ar    1  UNL1       -0.2770
     12 N          -5.3396    3.6734   -2.8640 N.ar    1  UNL1       -0.1812
     13 C          -4.2153    2.9118   -2.9673 C.ar    1  UNL1        0.0569
     14 C          -4.1503    2.2288   -1.7569 C.ar    1  UNL1        0.0212
     15 C          -3.2083    1.3007   -1.2914 C.ar    1  UNL1       -0.0298
     16 C           0.8379   -1.9831   -0.5838 C.3     1  UNL1        0.0238
     17 C           1.8873   -0.9667   -0.5760 C.ar    1  UNL1       -0.0387
     18 C           2.0515   -0.1848   -1.6966 C.ar    1  UNL1       -0.0574
     19 C           3.0024    0.8035   -1.8115 C.ar    1  UNL1       -0.0538
     20 C           3.8287    1.0000   -0.7186 C.ar    1  UNL1       -0.0179
     21 C           4.7935    1.9800   -0.7942 C.ar    1  UNL1       -0.0540
     22 C           5.6127    2.1735    0.2921 C.ar    1  UNL1       -0.0612
     23 C           5.4771    1.4142    1.4222 C.ar    1  UNL1       -0.0612
     24 C           4.5131    0.4283    1.5098 C.ar    1  UNL1       -0.0540
     25 C           3.6875    0.2315    0.4185 C.ar    1  UNL1       -0.0176
     26 C           2.7188   -0.7571    0.5028 C.ar    1  UNL1       -0.0503
     27 C           1.4351   -3.3333   -0.4250 C.3     1  UNL1        0.0353
     28 C           1.7597   -3.6020    0.9948 C.2     1  UNL1        0.2179
     29 O           2.8489   -4.0769    1.3218 O.2     1  UNL1       -0.2754
     30 N           0.7354   -3.2736    1.9142 N.am    1  UNL1       -0.2889
     31 H          -1.0118   -2.7350    3.5031 H       1  UNL1        0.0290
     32 H          -2.2872   -2.4257    2.3321 H       1  UNL1        0.0290
     33 H          -1.2719   -1.0524    2.9562 H       1  UNL1        0.0290
     34 H          -2.6584   -0.5478    1.4494 H       1  UNL1        0.1551
     35 H          -4.5641    0.7156    1.6954 H       1  UNL1        0.0637
     36 H          -6.1942    2.3337    0.8668 H       1  UNL1        0.0639
     37 H          -6.7962    3.9266   -1.3341 H       1  UNL1        0.1889
     38 H          -3.5386    2.8621   -3.8076 H       1  UNL1        0.0854
     39 H          -2.4037    1.0628   -1.9497 H       1  UNL1        0.0643
     40 H           0.3216   -1.9403   -1.5976 H       1  UNL1        0.0404
     41 H           1.4133   -0.3107   -2.5875 H       1  UNL1        0.0621
     42 H           3.0976    1.3949   -2.7103 H       1  UNL1        0.0624
     43 H           4.9415    2.6093   -1.6686 H       1  UNL1        0.0624
     44 H           6.3845    2.9351    0.2717 H       1  UNL1        0.0618
     45 H           6.1290    1.5635    2.2949 H       1  UNL1        0.0618
     46 H           4.4013   -0.1817    2.4127 H       1  UNL1        0.0624
     47 H           2.6456   -1.3369    1.4182 H       1  UNL1        0.0627
     48 H           0.7355   -4.1474   -0.7595 H       1  UNL1        0.0368
     49 H           2.3529   -3.4750   -1.0176 H       1  UNL1        0.0368
     50 H           0.7270   -3.7546    2.8728 H       1  UNL1        0.1545
@<TRIPOS>BOND
     1     1     2    1
     2     2     3    2
     3     3     4    1
     4     4     5    2
     5     4     6   am
     6     6     7    1
     7     7     8   ar
     8     8     9   ar
     9     9    10   ar
    10    10    11   ar
    11    11    12   ar
    12    12    13   ar
    13    13    14   ar
    14    14    15   ar
    15     3    16    1
    16    16    17    1
    17    17    18   ar
    18    18    19   ar
    19    19    20   ar
    20    20    21   ar
    21    21    22   ar
    22    22    23   ar
    23    23    24   ar
    24    24    25   ar
    25    25    26   ar
    26    16    27    1
    27    27    28    1
    28    28    29    2
    29    28    30   am
    30    30     2    1
    31    15     7   ar
    32    26    17   ar
    33    14    10   ar
    34    25    20   ar
    35     1    31    1
    36     1    32    1
    37     1    33    1
    38     6    34    1
    39     8    35    1
    40     9    36    1
    41    11    37    1
    42    13    38    1
    43    15    39    1
    44    16    40    1
    45    18    41    1
    46    19    42    1
    47    21    43    1
    48    22    44    1
    49    23    45    1
    50    24    46    1
    51    26    47    1
    52    27    48    1
    53    27    49    1
    54    30    50    1
