
     RDKit          3D

 32 35  0  0  0  0  0  0  0  0999 V2000
   -4.2235   -0.2360   -3.1492 F   0  0  0  0  0  0  0  0  0  0  0  0
   -3.5166   -0.1646   -1.9884 C   0  0  0  0  0  0  0  0  0  0  0  0
   -3.7396    0.8801   -1.1203 C   0  0  0  0  0  0  0  0  0  0  0  0
   -3.0336    0.9595    0.0486 C   0  0  0  0  0  0  0  0  0  0  0  0
   -2.0717    0.0162    0.4258 C   0  0  0  0  0  0  0  0  0  0  0  0
   -1.3933    0.2155    1.6864 C   0  0  0  0  0  0  0  0  0  0  0  0
   -1.9751    0.2917    2.9233 N   0  0  0  0  0  0  0  0  0  0  0  0
   -1.0121    0.4933    3.8321 C   0  0  0  0  0  0  0  0  0  0  0  0
    0.1632    0.5464    3.1978 N   0  0  0  0  0  0  0  0  0  0  0  0
   -0.0472    0.3756    1.8604 C   0  0  0  0  0  0  0  0  0  0  0  0
    1.0141    0.3637    0.8727 C   0  0  0  0  0  0  0  0  0  0  0  0
    1.6153    1.5501    0.4578 C   0  0  0  0  0  0  0  0  0  0  0  0
    2.6331    1.5432   -0.4801 C   0  0  0  0  0  0  0  0  0  0  0  0
    3.0741    0.3608   -1.0241 C   0  0  0  0  0  0  0  0  0  0  0  0
    4.0296    0.0951   -1.9379 N   0  0  0  0  0  0  0  0  0  0  0  0
    4.0741   -1.2354   -2.1361 C   0  0  0  0  0  0  0  0  0  0  0  0
    3.1127   -1.7766   -1.3118 C   0  0  0  0  0  0  0  0  0  0  0  0
    2.5021   -0.7922   -0.6319 N   0  0  0  0  0  0  0  0  0  0  0  0
    1.5108   -0.7769    0.2823 C   0  0  0  0  0  0  0  0  0  0  0  0
   -1.8574   -1.0159   -0.4402 C   0  0  0  0  0  0  0  0  0  0  0  0
   -2.5673   -1.1045   -1.6267 C   0  0  0  0  0  0  0  0  0  0  0  0
   -2.3524   -2.1257   -2.4863 F   0  0  0  0  0  0  0  0  0  0  0  0
   -4.4708    1.6420   -1.3495 H   0  0  0  0  0  0  0  0  0  0  0  0
   -3.2496    1.8066    0.7025 H   0  0  0  0  0  0  0  0  0  0  0  0
   -1.1577    0.5943    4.8830 H   0  0  0  0  0  0  0  0  0  0  0  0
    1.1148    0.6955    3.6335 H   0  0  0  0  0  0  0  0  0  0  0  0
    1.2524    2.4642    0.9002 H   0  0  0  0  0  0  0  0  0  0  0  0
    3.0762    2.4772   -0.7824 H   0  0  0  0  0  0  0  0  0  0  0  0
    4.6999   -1.8212   -2.7831 H   0  0  0  0  0  0  0  0  0  0  0  0
    2.8511   -2.8119   -1.1929 H   0  0  0  0  0  0  0  0  0  0  0  0
    1.0901   -1.7290    0.5646 H   0  0  0  0  0  0  0  0  0  0  0  0
   -1.1457   -1.7809   -0.2301 H   0  0  0  0  0  0  0  0  0  0  0  0
  1  2  1  0
  2  3  2  0
  3  4  1  0
  4  5  2  0
  5  6  1  0
  6  7  1  0
  7  8  2  0
  8  9  1  0
  9 10  1  0
 10 11  1  0
 11 12  1  0
 12 13  2  0
 13 14  1  0
 14 15  2  0
 15 16  1  0
 16 17  2  0
 17 18  1  0
 18 19  1  0
  5 20  1  0
 20 21  2  0
 21 22  1  0
 21  2  1  0
 10  6  2  0
 19 11  2  0
 18 14  1  0
  3 23  1  0
  4 24  1  0
  8 25  1  0
  9 26  1  0
 12 27  1  0
 13 28  1  0
 16 29  1  0
 17 30  1  0
 19 31  1  0
 20 32  1  0
M  END
$$$$
