@<TRIPOS>MOLECULE
*****
 32 35 0 0 0
SMALL
GASTEIGER

@<TRIPOS>ATOM
      1 F          -4.2235   -0.2360   -3.1492 F       1  UNL1       -0.2025
      2 C          -3.5166   -0.1646   -1.9884 C.ar    1  UNL1        0.1584
      3 C          -3.7396    0.8801   -1.1203 C.ar    1  UNL1       -0.0230
      4 C          -3.0336    0.9595    0.0486 C.ar    1  UNL1       -0.0496
      5 C          -2.0717    0.0162    0.4258 C.ar    1  UNL1        0.0053
      6 C          -1.3933    0.2155    1.6864 C.ar    1  UNL1        0.0966
      7 N          -1.9751    0.2917    2.9233 N.ar    1  UNL1       -0.2353
      8 C          -1.0121    0.4933    3.8321 C.ar    1  UNL1        0.0945
      9 N           0.1632    0.5464    3.1978 N.ar    1  UNL1       -0.3439
     10 C          -0.0472    0.3756    1.8604 C.ar    1  UNL1        0.0752
     11 C           1.0141    0.3637    0.8727 C.ar    1  UNL1        0.0170
     12 C           1.6153    1.5501    0.4578 C.ar    1  UNL1       -0.0477
     13 C           2.6331    1.5432   -0.4801 C.ar    1  UNL1       -0.0182
     14 C           3.0741    0.3608   -1.0241 C.ar    1  UNL1        0.1375
     15 N           4.0296    0.0951   -1.9379 N.ar    1  UNL1       -0.2361
     16 C           4.0741   -1.2354   -2.1361 C.ar    1  UNL1        0.0464
     17 C           3.1127   -1.7766   -1.3118 C.ar    1  UNL1        0.0293
     18 N           2.5021   -0.7922   -0.6319 N.ar    1  UNL1       -0.3060
     19 C           1.5108   -0.7769    0.2823 C.ar    1  UNL1        0.0203
     20 C          -1.8574   -1.0159   -0.4402 C.ar    1  UNL1       -0.0143
     21 C          -2.5673   -1.1045   -1.6267 C.ar    1  UNL1        0.1590
     22 F          -2.3524   -2.1257   -2.4863 F       1  UNL1       -0.2025
     23 H          -4.4708    1.6420   -1.3495 H       1  UNL1        0.0647
     24 H          -3.2496    1.8066    0.7025 H       1  UNL1        0.0625
     25 H          -1.1577    0.5943    4.8830 H       1  UNL1        0.1027
     26 H           1.1148    0.6955    3.6335 H       1  UNL1        0.1668
     27 H           1.2524    2.4642    0.9002 H       1  UNL1        0.0626
     28 H           3.0762    2.4772   -0.7824 H       1  UNL1        0.0654
     29 H           4.6999   -1.8212   -2.7831 H       1  UNL1        0.0845
     30 H           2.8511   -2.8119   -1.1929 H       1  UNL1        0.0829
     31 H           1.0901   -1.7290    0.5646 H       1  UNL1        0.0820
     32 H          -1.1457   -1.7809   -0.2301 H       1  UNL1        0.0654
@<TRIPOS>BOND
     1     1     2    1
     2     2     3   ar
     3     3     4   ar
     4     4     5   ar
     5     5     6    1
     6     6     7   ar
     7     7     8   ar
     8     8     9   ar
     9     9    10   ar
    10    10    11    1
    11    11    12   ar
    12    12    13   ar
    13    13    14   ar
    14    14    15   ar
    15    15    16   ar
    16    16    17   ar
    17    17    18   ar
    18    18    19   ar
    19     5    20   ar
    20    20    21   ar
    21    21    22    1
    22    21     2   ar
    23    10     6   ar
    24    19    11   ar
    25    18    14   ar
    26     3    23    1
    27     4    24    1
    28     8    25    1
    29     9    26    1
    30    12    27    1
    31    13    28    1
    32    16    29    1
    33    17    30    1
    34    19    31    1
    35    20    32    1
