
     RDKit          3D

 12 11  0  0  0  0  0  0  0  0999 V2000
   -1.1001   -1.2907    0.0078 N   0  0  0  0  0  0  0  0  0  0  0  0
   -0.0939   -0.3305    0.3460 C   0  0  1  0  0  0  0  0  0  0  0  0
    1.1866   -0.6455   -0.2670 C   0  0  0  0  0  0  0  0  0  0  0  0
    2.2387   -0.9078   -0.7757 C   0  0  0  0  0  0  0  0  0  0  0  0
   -0.5507    1.0428   -0.0491 C   0  0  0  0  0  0  0  0  0  0  0  0
    0.1913    2.1755    0.1436 O   0  0  0  0  0  0  0  0  0  0  0  0
   -1.6831    1.2512   -0.6019 O   0  0  0  0  0  0  0  0  0  0  0  0
   -2.0113   -0.8366   -0.1700 H   0  0  0  0  0  0  0  0  0  0  0  0
   -1.2081   -2.0484    0.7197 H   0  0  0  0  0  0  0  0  0  0  0  0
    0.0381   -0.3695    1.4658 H   0  0  0  0  0  0  0  0  0  0  0  0
    3.1691   -1.1354   -1.2331 H   0  0  0  0  0  0  0  0  0  0  0  0
   -0.1765    3.0950    0.4139 H   0  0  0  0  0  0  0  0  0  0  0  0
  1  2  1  0
  2  3  1  0
  3  4  3  0
  2  5  1  0
  5  6  1  0
  5  7  2  0
  1  8  1  0
  1  9  1  0
  2 10  1  1
  4 11  1  0
  6 12  1  0
M  END
$$$$
