@<TRIPOS>MOLECULE
*****
 12 11 0 0 0
SMALL
GASTEIGER

@<TRIPOS>ATOM
      1 N          -1.1001   -1.2907    0.0078 N.3     1  UNL1       -0.3085
      2 CA         -0.0939   -0.3305    0.3460 C.3     1  UNL1        0.1649
      3 C           1.1866   -0.6455   -0.2670 C.1     1  UNL1       -0.0754
      4 C           2.2387   -0.9078   -0.7757 C.1     1  UNL1       -0.1171
      5 C          -0.5507    1.0428   -0.0491 C.2     1  UNL1        0.3341
      6 O           0.1913    2.1755    0.1436 O.3     1  UNL1       -0.4789
      7 OXT        -1.6831    1.2512   -0.6019 O.2     1  UNL1       -0.2481
      8 H1         -2.0113   -0.8366   -0.1700 H       1  UNL1        0.1198
      9 H2         -1.2081   -2.0484    0.7197 H       1  UNL1        0.1198
     10 HA          0.0381   -0.3695    1.4658 H       1  UNL1        0.0713
     11 H           3.1691   -1.1354   -1.2331 H       1  UNL1        0.1229
     12 H          -0.1765    3.0950    0.4139 H       1  UNL1        0.2951
@<TRIPOS>BOND
     1     1     2    1
     2     2     3    1
     3     3     4    3
     4     2     5    1
     5     5     6    1
     6     5     7    2
     7     1     8    1
     8     1     9    1
     9     2    10    1
    10     4    11    1
    11     6    12    1
