
     RDKit          3D

 48 49  0  0  0  0  0  0  0  0999 V2000
    4.5465    2.8053    1.3796 C   0  0  0  0  0  0  0  0  0  0  0  0
    3.8416    1.6518    1.9002 N   0  0  0  0  0  0  0  0  0  0  0  0
    4.5463    1.2722    3.1322 C   0  0  0  0  0  0  0  0  0  0  0  0
    3.9078    0.5183    1.0276 C   0  0  0  0  0  0  0  0  0  0  0  0
    3.1631    0.6738   -0.2582 C   0  0  0  0  0  0  0  0  0  0  0  0
    1.6845    0.9186   -0.0580 C   0  0  0  0  0  0  0  0  0  0  0  0
    0.9556    1.0812   -1.7087 S   0  0  0  0  0  0  0  0  0  0  0  0
    1.0482   -0.4535   -2.5974 C   0  0  0  0  0  0  0  0  0  0  0  0
    2.1759   -0.7405   -3.3543 C   0  0  0  0  0  0  0  0  0  0  0  0
    2.2864   -1.9114   -4.0707 C   0  0  0  0  0  0  0  0  0  0  0  0
    1.2162   -2.7995   -4.0047 C   0  0  0  0  0  0  0  0  0  0  0  0
    0.0932   -2.5229   -3.2562 C   0  0  0  0  0  0  0  0  0  0  0  0
    0.0073   -1.3427   -2.5475 C   0  0  0  0  0  0  0  0  0  0  0  0
   -1.1598   -1.0333   -1.7715 N   0  0  0  0  0  0  0  0  0  0  0  0
   -1.2935   -1.4533   -0.4387 C   0  0  0  0  0  0  0  0  0  0  0  0
   -0.3624   -2.1238    0.0872 O   0  0  0  0  0  0  0  0  0  0  0  0
   -2.4645   -1.1523    0.3810 C   0  0  0  0  0  0  0  0  0  0  0  0
   -3.5077   -0.4645   -0.0277 C   0  0  0  0  0  0  0  0  0  0  0  0
   -4.6782   -0.1611    0.7849 C   0  0  0  0  0  0  0  0  0  0  0  0
   -4.8416   -0.5622    2.0831 C   0  0  0  0  0  0  0  0  0  0  0  0
   -5.9829   -0.2462    2.8334 C   0  0  0  0  0  0  0  0  0  0  0  0
   -6.9617    0.4981    2.2146 C   0  0  0  0  0  0  0  0  0  0  0  0
   -6.8088    0.9071    0.9099 C   0  0  0  0  0  0  0  0  0  0  0  0
   -5.6868    0.5862    0.1990 C   0  0  0  0  0  0  0  0  0  0  0  0
    4.8695    3.4084    2.2679 H   0  0  0  0  0  0  0  0  0  0  0  0
    3.8912    3.4740    0.7920 H   0  0  0  0  0  0  0  0  0  0  0  0
    5.4722    2.5095    0.8458 H   0  0  0  0  0  0  0  0  0  0  0  0
    5.6496    1.1836    2.9288 H   0  0  0  0  0  0  0  0  0  0  0  0
    4.2253    0.2629    3.4728 H   0  0  0  0  0  0  0  0  0  0  0  0
    4.4212    2.0070    3.9267 H   0  0  0  0  0  0  0  0  0  0  0  0
    3.4316   -0.3387    1.5764 H   0  0  0  0  0  0  0  0  0  0  0  0
    4.9448    0.2369    0.8586 H   0  0  0  0  0  0  0  0  0  0  0  0
    3.2462   -0.2937   -0.8038 H   0  0  0  0  0  0  0  0  0  0  0  0
    3.6116    1.4335   -0.9335 H   0  0  0  0  0  0  0  0  0  0  0  0
    1.2511    0.0475    0.4373 H   0  0  0  0  0  0  0  0  0  0  0  0
    1.4911    1.8629    0.4933 H   0  0  0  0  0  0  0  0  0  0  0  0
    2.9978   -0.0223   -3.3849 H   0  0  0  0  0  0  0  0  0  0  0  0
    3.1706   -2.1039   -4.6457 H   0  0  0  0  0  0  0  0  0  0  0  0
    1.3264   -3.7085   -4.5738 H   0  0  0  0  0  0  0  0  0  0  0  0
   -0.6967   -3.2523   -3.2489 H   0  0  0  0  0  0  0  0  0  0  0  0
   -1.9137   -0.4746   -2.2520 H   0  0  0  0  0  0  0  0  0  0  0  0
   -2.4869   -1.5205    1.4108 H   0  0  0  0  0  0  0  0  0  0  0  0
   -3.4667   -0.1094   -1.0492 H   0  0  0  0  0  0  0  0  0  0  0  0
   -4.0499   -1.1480    2.5392 H   0  0  0  0  0  0  0  0  0  0  0  0
   -6.0520   -0.5914    3.8519 H   0  0  0  0  0  0  0  0  0  0  0  0
   -7.8643    0.7618    2.7715 H   0  0  0  0  0  0  0  0  0  0  0  0
   -7.6024    1.5018    0.4328 H   0  0  0  0  0  0  0  0  0  0  0  0
   -5.5925    0.9280   -0.8441 H   0  0  0  0  0  0  0  0  0  0  0  0
  1  2  1  0
  2  3  1  0
  2  4  1  0
  4  5  1  0
  5  6  1  0
  6  7  1  0
  7  8  1  0
  8  9  2  0
  9 10  1  0
 10 11  2  0
 11 12  1  0
 12 13  2  0
 13 14  1  0
 14 15  1  0
 15 16  2  0
 15 17  1  0
 17 18  2  0
 18 19  1  0
 19 20  2  0
 20 21  1  0
 21 22  2  0
 22 23  1  0
 23 24  2  0
 13  8  1  0
 24 19  1  0
  1 25  1  0
  1 26  1  0
  1 27  1  0
  3 28  1  0
  3 29  1  0
  3 30  1  0
  4 31  1  0
  4 32  1  0
  5 33  1  0
  5 34  1  0
  6 35  1  0
  6 36  1  0
  9 37  1  0
 10 38  1  0
 11 39  1  0
 12 40  1  0
 14 41  1  0
 17 42  1  0
 18 43  1  0
 20 44  1  0
 21 45  1  0
 22 46  1  0
 23 47  1  0
 24 48  1  0
M  END
$$$$
