@<TRIPOS>MOLECULE
*****
 48 49 0 0 0
SMALL
GASTEIGER

@<TRIPOS>ATOM
      1 C           4.5465    2.8053    1.3796 C.3     1  UNL1       -0.0131
      2 N           3.8416    1.6518    1.9002 N.3     1  UNL1       -0.3083
      3 C           4.5463    1.2722    3.1322 C.3     1  UNL1       -0.0131
      4 C           3.9078    0.5183    1.0276 C.3     1  UNL1       -0.0009
      5 C           3.1631    0.6738   -0.2582 C.3     1  UNL1       -0.0309
      6 C           1.6845    0.9186   -0.0580 C.3     1  UNL1       -0.0005
      7 S           0.9556    1.0812   -1.7087 S.3     1  UNL1       -0.1233
      8 C           1.0482   -0.4535   -2.5974 C.ar    1  UNL1        0.0291
      9 C           2.1759   -0.7405   -3.3543 C.ar    1  UNL1       -0.0465
     10 C           2.2864   -1.9114   -4.0707 C.ar    1  UNL1       -0.0606
     11 C           1.2162   -2.7995   -4.0047 C.ar    1  UNL1       -0.0599
     12 C           0.0932   -2.5229   -3.2562 C.ar    1  UNL1       -0.0394
     13 C           0.0073   -1.3427   -2.5475 C.ar    1  UNL1        0.0471
     14 N          -1.1598   -1.0333   -1.7715 N.am    1  UNL1       -0.2810
     15 C          -1.2935   -1.4533   -0.4387 C.2     1  UNL1        0.2411
     16 O          -0.3624   -2.1238    0.0872 O.2     1  UNL1       -0.2705
     17 C          -2.4645   -1.1523    0.3810 C.2     1  UNL1        0.0010
     18 C          -3.5077   -0.4645   -0.0277 C.2     1  UNL1       -0.0497
     19 C          -4.6782   -0.1611    0.7849 C.ar    1  UNL1       -0.0249
     20 C          -4.8416   -0.5622    2.0831 C.ar    1  UNL1       -0.0546
     21 C          -5.9829   -0.2462    2.8334 C.ar    1  UNL1       -0.0612
     22 C          -6.9617    0.4981    2.2146 C.ar    1  UNL1       -0.0617
     23 C          -6.8088    0.9071    0.9099 C.ar    1  UNL1       -0.0612
     24 C          -5.6868    0.5862    0.1990 C.ar    1  UNL1       -0.0546
     25 H           4.8695    3.4084    2.2679 H       1  UNL1        0.0391
     26 H           3.8912    3.4740    0.7920 H       1  UNL1        0.0391
     27 H           5.4722    2.5095    0.8458 H       1  UNL1        0.0391
     28 H           5.6496    1.1836    2.9288 H       1  UNL1        0.0391
     29 H           4.2253    0.2629    3.4728 H       1  UNL1        0.0391
     30 H           4.4212    2.0070    3.9267 H       1  UNL1        0.0391
     31 H           3.4316   -0.3387    1.5764 H       1  UNL1        0.0427
     32 H           4.9448    0.2369    0.8586 H       1  UNL1        0.0427
     33 H           3.2462   -0.2937   -0.8038 H       1  UNL1        0.0286
     34 H           3.6116    1.4335   -0.9335 H       1  UNL1        0.0286
     35 H           1.2511    0.0475    0.4373 H       1  UNL1        0.0380
     36 H           1.4911    1.8629    0.4933 H       1  UNL1        0.0380
     37 H           2.9978   -0.0223   -3.3849 H       1  UNL1        0.0629
     38 H           3.1706   -2.1039   -4.6457 H       1  UNL1        0.0618
     39 H           1.3264   -3.7085   -4.5738 H       1  UNL1        0.0618
     40 H          -0.6967   -3.2523   -3.2489 H       1  UNL1        0.0636
     41 H          -1.9137   -0.4746   -2.2520 H       1  UNL1        0.1551
     42 H          -2.4869   -1.5205    1.4108 H       1  UNL1        0.0670
     43 H          -3.4667   -0.1094   -1.0492 H       1  UNL1        0.0625
     44 H          -4.0499   -1.1480    2.5392 H       1  UNL1        0.0623
     45 H          -6.0520   -0.5914    3.8519 H       1  UNL1        0.0618
     46 H          -7.8643    0.7618    2.7715 H       1  UNL1        0.0618
     47 H          -7.6024    1.5018    0.4328 H       1  UNL1        0.0618
     48 H          -5.5925    0.9280   -0.8441 H       1  UNL1        0.0623
@<TRIPOS>BOND
     1     1     2    1
     2     2     3    1
     3     2     4    1
     4     4     5    1
     5     5     6    1
     6     6     7    1
     7     7     8    1
     8     8     9   ar
     9     9    10   ar
    10    10    11   ar
    11    11    12   ar
    12    12    13   ar
    13    13    14    1
    14    14    15   am
    15    15    16    2
    16    15    17    1
    17    17    18    2
    18    18    19    1
    19    19    20   ar
    20    20    21   ar
    21    21    22   ar
    22    22    23   ar
    23    23    24   ar
    24    13     8   ar
    25    24    19   ar
    26     1    25    1
    27     1    26    1
    28     1    27    1
    29     3    28    1
    30     3    29    1
    31     3    30    1
    32     4    31    1
    33     4    32    1
    34     5    33    1
    35     5    34    1
    36     6    35    1
    37     6    36    1
    38     9    37    1
    39    10    38    1
    40    11    39    1
    41    12    40    1
    42    14    41    1
    43    17    42    1
    44    18    43    1
    45    20    44    1
    46    21    45    1
    47    22    46    1
    48    23    47    1
    49    24    48    1
