
     RDKit          3D

 62 68  0  0  0  0  0  0  0  0999 V2000
    8.7005   -0.9731   -0.6432 C   0  0  0  0  0  0  0  0  0  0  0  0
    7.3023   -0.6590   -0.6732 N   0  0  0  0  0  0  0  0  0  0  0  0
    6.8993    0.3723    0.2645 C   0  0  0  0  0  0  0  0  0  0  0  0
    5.7565   -0.2694    1.0530 C   0  0  2  0  0  0  0  0  0  0  0  0
    6.3141   -1.7077    1.0991 C   0  0  0  0  0  0  0  0  0  0  0  0
    6.4562   -1.8034   -0.4309 C   0  0  1  0  0  0  0  0  0  0  0  0
    5.0557   -1.4102   -0.8377 C   0  0  0  0  0  0  0  0  0  0  0  0
    4.6396   -0.4885    0.1983 N   0  0  0  0  0  0  0  0  0  0  0  0
    3.3450    0.0678    0.2966 C   0  0  0  0  0  0  0  0  0  0  0  0
    3.0196    0.8590    1.3841 C   0  0  0  0  0  0  0  0  0  0  0  0
    1.7550    1.4246    1.5106 C   0  0  0  0  0  0  0  0  0  0  0  0
    0.7742    1.2253    0.5659 C   0  0  0  0  0  0  0  0  0  0  0  0
   -0.5529    1.8121    0.6900 C   0  0  0  0  0  0  0  0  0  0  0  0
   -0.6941    3.1356    1.0746 C   0  0  0  0  0  0  0  0  0  0  0  0
   -1.9179    3.7549    1.2076 C   0  0  0  0  0  0  0  0  0  0  0  0
   -3.0128    2.9838    0.9358 N   0  0  0  0  0  0  0  0  0  0  0  0
   -2.8969    1.6975    0.5612 C   0  0  0  0  0  0  0  0  0  0  0  0
   -3.8847    0.7564    0.2425 C   0  0  0  0  0  0  0  0  0  0  0  0
   -5.3170    1.0205    0.2581 C   0  0  0  0  0  0  0  0  0  0  0  0
   -6.1056    0.4081    1.2020 C   0  0  0  0  0  0  0  0  0  0  0  0
   -7.4816    0.6370    1.2428 C   0  0  0  0  0  0  0  0  0  0  0  0
   -8.1019    1.4782    0.3473 C   0  0  0  0  0  0  0  0  0  0  0  0
   -7.3090    2.0931   -0.6006 C   0  0  0  0  0  0  0  0  0  0  0  0
   -7.9209    2.9447   -1.5102 O   0  0  0  0  0  0  0  0  0  0  0  0
   -5.9438    1.8595   -0.6328 C   0  0  0  0  0  0  0  0  0  0  0  0
   -3.2002   -0.3895   -0.0679 C   0  0  0  0  0  0  0  0  0  0  0  0
   -3.7383   -1.6777   -0.4675 C   0  0  0  0  0  0  0  0  0  0  0  0
   -4.3997   -2.5126    0.3987 C   0  0  0  0  0  0  0  0  0  0  0  0
   -4.8706   -3.7153   -0.0824 C   0  0  0  0  0  0  0  0  0  0  0  0
   -4.7243   -4.1248   -1.3462 N   0  0  0  0  0  0  0  0  0  0  0  0
   -4.0744   -3.3142   -2.2151 C   0  0  0  0  0  0  0  0  0  0  0  0
   -3.5876   -2.1032   -1.7768 C   0  0  0  0  0  0  0  0  0  0  0  0
   -1.8679   -0.1093    0.0694 N   0  0  0  0  0  0  0  0  0  0  0  0
   -1.6851    1.1307    0.4434 N   0  0  0  0  0  0  0  0  0  0  0  0
    1.1140    0.4341   -0.5129 C   0  0  0  0  0  0  0  0  0  0  0  0
    2.3632   -0.1328   -0.6510 C   0  0  0  0  0  0  0  0  0  0  0  0
    9.3225   -0.3324   -0.0213 H   0  0  0  0  0  0  0  0  0  0  0  0
    8.7856   -2.0308   -0.2583 H   0  0  0  0  0  0  0  0  0  0  0  0
    9.0497   -1.0464   -1.7086 H   0  0  0  0  0  0  0  0  0  0  0  0
    6.4693    1.2536   -0.2488 H   0  0  0  0  0  0  0  0  0  0  0  0
    7.7124    0.6561    0.9649 H   0  0  0  0  0  0  0  0  0  0  0  0
    5.5957    0.1588    2.0177 H   0  0  0  0  0  0  0  0  0  0  0  0
    7.2825   -1.7331    1.6049 H   0  0  0  0  0  0  0  0  0  0  0  0
    5.5553   -2.3923    1.4863 H   0  0  0  0  0  0  0  0  0  0  0  0
    6.8166   -2.7472   -0.7638 H   0  0  0  0  0  0  0  0  0  0  0  0
    4.3772   -2.2809   -0.9240 H   0  0  0  0  0  0  0  0  0  0  0  0
    5.1458   -0.8397   -1.7860 H   0  0  0  0  0  0  0  0  0  0  0  0
    3.7713    1.0450    2.1590 H   0  0  0  0  0  0  0  0  0  0  0  0
    1.5289    2.0439    2.3793 H   0  0  0  0  0  0  0  0  0  0  0  0
    0.1983    3.7112    1.2806 H   0  0  0  0  0  0  0  0  0  0  0  0
   -2.0489    4.7838    1.5058 H   0  0  0  0  0  0  0  0  0  0  0  0
   -5.6786   -0.2568    1.9343 H   0  0  0  0  0  0  0  0  0  0  0  0
   -8.1151    0.1555    1.9876 H   0  0  0  0  0  0  0  0  0  0  0  0
   -9.1769    1.6758    0.3560 H   0  0  0  0  0  0  0  0  0  0  0  0
   -7.4624    3.3699   -2.2947 H   0  0  0  0  0  0  0  0  0  0  0  0
   -5.3276    2.3407   -1.3719 H   0  0  0  0  0  0  0  0  0  0  0  0
   -4.5606   -2.2756    1.4266 H   0  0  0  0  0  0  0  0  0  0  0  0
   -5.3929   -4.3847    0.5865 H   0  0  0  0  0  0  0  0  0  0  0  0
   -3.9344   -3.6174   -3.2634 H   0  0  0  0  0  0  0  0  0  0  0  0
   -3.0730   -1.4863   -2.5115 H   0  0  0  0  0  0  0  0  0  0  0  0
    0.3427    0.2756   -1.2584 H   0  0  0  0  0  0  0  0  0  0  0  0
    2.6085   -0.7504   -1.5063 H   0  0  0  0  0  0  0  0  0  0  0  0
  1  2  1  0
  2  3  1  0
  3  4  1  0
  4  5  1  0
  5  6  1  0
  6  7  1  0
  7  8  1  0
  8  9  1  0
  9 10  2  0
 10 11  1  0
 11 12  2  0
 12 13  1  0
 13 14  2  0
 14 15  1  0
 15 16  2  0
 16 17  1  0
 17 18  2  0
 18 19  1  0
 19 20  2  0
 20 21  1  0
 21 22  2  0
 22 23  1  0
 23 24  1  0
 23 25  2  0
 18 26  1  0
 26 27  1  0
 27 28  2  0
 28 29  1  0
 29 30  2  0
 30 31  1  0
 31 32  2  0
 26 33  2  0
 33 34  1  0
 12 35  1  0
 35 36  2  0
  6  2  1  0
 36  9  1  0
  8  4  1  0
 34 13  1  0
 34 17  1  0
 25 19  1  0
 32 27  1  0
  1 37  1  0
  1 38  1  0
  1 39  1  0
  3 40  1  0
  3 41  1  0
  4 42  1  1
  5 43  1  0
  5 44  1  0
  6 45  1  1
  7 46  1  0
  7 47  1  0
 10 48  1  0
 11 49  1  0
 14 50  1  0
 15 51  1  0
 20 52  1  0
 21 53  1  0
 22 54  1  0
 24 55  1  0
 25 56  1  0
 28 57  1  0
 29 58  1  0
 31 59  1  0
 32 60  1  0
 35 61  1  0
 36 62  1  0
M  END
$$$$
