@<TRIPOS>MOLECULE
*****
 62 68 0 0 0
SMALL
GASTEIGER

@<TRIPOS>ATOM
      1 C           8.7005   -0.9731   -0.6432 C.3     1  UNL1       -0.0124
      2 N           7.3023   -0.6590   -0.6732 N.3     1  UNL1       -0.2991
      3 C           6.8993    0.3723    0.2645 C.3     1  UNL1        0.0176
      4 C           5.7565   -0.2694    1.0530 C.3     1  UNL1        0.0377
      5 C           6.3141   -1.7077    1.0991 C.3     1  UNL1       -0.0161
      6 C           6.4562   -1.8034   -0.4309 C.3     1  UNL1        0.0276
      7 C           5.0557   -1.4102   -0.8377 C.3     1  UNL1        0.0282
      8 N           4.6396   -0.4885    0.1983 N.pl3   1  UNL1       -0.3241
      9 C           3.3450    0.0678    0.2966 C.ar    1  UNL1        0.0300
     10 C           3.0196    0.8590    1.3841 C.ar    1  UNL1       -0.0400
     11 C           1.7550    1.4246    1.5106 C.ar    1  UNL1       -0.0508
     12 C           0.7742    1.2253    0.5659 C.ar    1  UNL1        0.0006
     13 C          -0.5529    1.8121    0.6900 C.ar    1  UNL1        0.0763
     14 C          -0.6941    3.1356    1.0746 C.ar    1  UNL1       -0.0174
     15 C          -1.9179    3.7549    1.2076 C.ar    1  UNL1        0.0320
     16 N          -3.0128    2.9838    0.9358 N.ar    1  UNL1       -0.2355
     17 C          -2.8969    1.6975    0.5612 C.ar    1  UNL1        0.1644
     18 C          -3.8847    0.7564    0.2425 C.ar    1  UNL1        0.0540
     19 C          -5.3170    1.0205    0.2581 C.ar    1  UNL1       -0.0088
     20 C          -6.1056    0.4081    1.2020 C.ar    1  UNL1       -0.0536
     21 C          -7.4816    0.6370    1.2428 C.ar    1  UNL1       -0.0577
     22 C          -8.1019    1.4782    0.3473 C.ar    1  UNL1       -0.0201
     23 C          -7.3090    2.0931   -0.6006 C.ar    1  UNL1        0.1174
     24 O          -7.9209    2.9447   -1.5102 O.3     1  UNL1       -0.5067
     25 C          -5.9438    1.8595   -0.6328 C.ar    1  UNL1       -0.0123
     26 C          -3.2002   -0.3895   -0.0679 C.ar    1  UNL1        0.1031
     27 C          -3.7383   -1.6777   -0.4675 C.ar    1  UNL1        0.0056
     28 C          -4.3997   -2.5126    0.3987 C.ar    1  UNL1       -0.0343
     29 C          -4.8706   -3.7153   -0.0824 C.ar    1  UNL1        0.0282
     30 N          -4.7243   -4.1248   -1.3462 N.ar    1  UNL1       -0.2632
     31 C          -4.0744   -3.3142   -2.2151 C.ar    1  UNL1        0.0282
     32 C          -3.5876   -2.1032   -1.7768 C.ar    1  UNL1       -0.0343
     33 N          -1.8679   -0.1093    0.0694 N.ar    1  UNL1       -0.1638
     34 N          -1.6851    1.1307    0.4434 N.ar    1  UNL1       -0.2128
     35 C           1.1140    0.4341   -0.5129 C.ar    1  UNL1       -0.0508
     36 C           2.3632   -0.1328   -0.6510 C.ar    1  UNL1       -0.0400
     37 H           9.3225   -0.3324   -0.0213 H       1  UNL1        0.0391
     38 H           8.7856   -2.0308   -0.2583 H       1  UNL1        0.0391
     39 H           9.0497   -1.0464   -1.7086 H       1  UNL1        0.0391
     40 H           6.4693    1.2536   -0.2488 H       1  UNL1        0.0445
     41 H           7.7124    0.6561    0.9649 H       1  UNL1        0.0445
     42 H           5.5957    0.1588    2.0177 H       1  UNL1        0.0513
     43 H           7.2825   -1.7331    1.6049 H       1  UNL1        0.0299
     44 H           5.5553   -2.3923    1.4863 H       1  UNL1        0.0299
     45 H           6.8166   -2.7472   -0.7638 H       1  UNL1        0.0478
     46 H           4.3772   -2.2809   -0.9240 H       1  UNL1        0.0479
     47 H           5.1458   -0.8397   -1.7860 H       1  UNL1        0.0479
     48 H           3.7713    1.0450    2.1590 H       1  UNL1        0.0636
     49 H           1.5289    2.0439    2.3793 H       1  UNL1        0.0625
     50 H           0.1983    3.7112    1.2806 H       1  UNL1        0.0654
     51 H          -2.0489    4.7838    1.5058 H       1  UNL1        0.0831
     52 H          -5.6786   -0.2568    1.9343 H       1  UNL1        0.0624
     53 H          -8.1151    0.1555    1.9876 H       1  UNL1        0.0619
     54 H          -9.1769    1.6758    0.3560 H       1  UNL1        0.0654
     55 H          -7.4624    3.3699   -2.2947 H       1  UNL1        0.2921
     56 H          -5.3276    2.3407   -1.3719 H       1  UNL1        0.0660
     57 H          -4.5606   -2.2756    1.4266 H       1  UNL1        0.0639
     58 H          -5.3929   -4.3847    0.5865 H       1  UNL1        0.0830
     59 H          -3.9344   -3.6174   -3.2634 H       1  UNL1        0.0830
     60 H          -3.0730   -1.4863   -2.5115 H       1  UNL1        0.0639
     61 H           0.3427    0.2756   -1.2584 H       1  UNL1        0.0625
     62 H           2.6085   -0.7504   -1.5063 H       1  UNL1        0.0636
@<TRIPOS>BOND
     1     1     2    1
     2     2     3    1
     3     3     4    1
     4     4     5    1
     5     5     6    1
     6     6     7    1
     7     7     8    1
     8     8     9    1
     9     9    10   ar
    10    10    11   ar
    11    11    12   ar
    12    12    13    1
    13    13    14   ar
    14    14    15   ar
    15    15    16   ar
    16    16    17   ar
    17    17    18   ar
    18    18    19    1
    19    19    20   ar
    20    20    21   ar
    21    21    22   ar
    22    22    23   ar
    23    23    24    1
    24    23    25   ar
    25    18    26   ar
    26    26    27    1
    27    27    28   ar
    28    28    29   ar
    29    29    30   ar
    30    30    31   ar
    31    31    32   ar
    32    26    33   ar
    33    33    34   ar
    34    12    35   ar
    35    35    36   ar
    36     6     2    1
    37    36     9   ar
    38     8     4    1
    39    34    13   ar
    40    34    17   ar
    41    25    19   ar
    42    32    27   ar
    43     1    37    1
    44     1    38    1
    45     1    39    1
    46     3    40    1
    47     3    41    1
    48     4    42    1
    49     5    43    1
    50     5    44    1
    51     6    45    1
    52     7    46    1
    53     7    47    1
    54    10    48    1
    55    11    49    1
    56    14    50    1
    57    15    51    1
    58    20    52    1
    59    21    53    1
    60    22    54    1
    61    24    55    1
    62    25    56    1
    63    28    57    1
    64    29    58    1
    65    31    59    1
    66    32    60    1
    67    35    61    1
    68    36    62    1
