@<TRIPOS>MOLECULE
*****
 71 72 0 0 0
SMALL
GASTEIGER

@<TRIPOS>ATOM
      1 C          -9.2740   -1.6883   -0.3595 C.3     1  UNL1        0.0790
      2 O          -8.7624   -0.6511    0.4450 O.3     1  UNL1       -0.4915
      3 C          -7.4686   -0.7039    0.9064 C.ar    1  UNL1        0.1615
      4 C          -6.6703   -1.7676    0.5946 C.ar    1  UNL1       -0.0160
      5 C          -5.3615   -1.8086    1.0741 C.ar    1  UNL1       -0.0548
      6 C          -4.8507   -0.8064    1.8529 C.ar    1  UNL1       -0.0425
      7 C          -3.4889   -0.8524    2.3919 C.3     1  UNL1       -0.0148
      8 C          -2.5388   -0.2598    1.3708 C.3     1  UNL1        0.0026
      9 N          -1.1687   -0.2842    1.8742 N.3     1  UNL1       -0.3050
     10 C          -0.9721    0.6053    2.9557 C.3     1  UNL1       -0.0128
     11 C          -0.1950   -0.3479    0.8360 C.3     1  UNL1       -0.0013
     12 C           1.2004   -0.5022    1.2931 C.3     1  UNL1       -0.0385
     13 C           2.2698   -0.6578    0.3029 C.3     1  UNL1       -0.0290
     14 C           2.5660    0.4105   -0.6804 C.3     1  UNL1        0.0846
     15 C           1.4645    0.7069   -1.5397 C.1     1  UNL1        0.0742
     16 N           0.5089    0.9630   -2.2583 N.1     1  UNL1       -0.1956
     17 C           3.7122   -0.0464   -1.5309 C.ar    1  UNL1       -0.0236
     18 C           3.6017   -1.2395   -2.2004 C.ar    1  UNL1       -0.0534
     19 C           4.5964   -1.7642   -2.9878 C.ar    1  UNL1       -0.0160
     20 C           5.8162   -1.0539   -3.1368 C.ar    1  UNL1        0.1615
     21 O           6.7894   -1.5787   -3.9091 O.3     1  UNL1       -0.4915
     22 C           7.2663   -2.4842   -4.6741 C.3     1  UNL1        0.0790
     23 C           5.9203    0.1334   -2.4731 C.ar    1  UNL1        0.1618
     24 O           7.0996    0.8985   -2.5775 O.3     1  UNL1       -0.4914
     25 C           7.1693    2.1140   -1.8858 C.3     1  UNL1        0.0790
     26 C           4.8836    0.6451   -1.6730 C.ar    1  UNL1       -0.0116
     27 C           2.8784    1.7207    0.0417 C.3     1  UNL1       -0.0242
     28 C           4.0209    1.7012    0.9589 C.3     1  UNL1       -0.0609
     29 C           2.9596    2.8234   -0.9645 C.3     1  UNL1       -0.0609
     30 C          -5.6710    0.2608    2.1568 C.ar    1  UNL1       -0.0131
     31 C          -6.9734    0.3413    1.7028 C.ar    1  UNL1        0.1617
     32 O          -7.8488    1.3693    1.9580 O.3     1  UNL1       -0.4914
     33 C          -7.5364    2.4970    2.7157 C.3     1  UNL1        0.0790
     34 H         -10.3845   -1.5073   -0.4382 H       1  UNL1        0.0660
     35 H          -8.7574   -1.7187   -1.3205 H       1  UNL1        0.0660
     36 H          -9.1115   -2.6898    0.1345 H       1  UNL1        0.0660
     37 H          -7.0717   -2.5582   -0.0183 H       1  UNL1        0.0655
     38 H          -4.7827   -2.6552    0.8048 H       1  UNL1        0.0621
     39 H          -3.2020   -1.8618    2.7376 H       1  UNL1        0.0326
     40 H          -3.4242   -0.1599    3.2902 H       1  UNL1        0.0326
     41 H          -2.6293   -0.8548    0.4586 H       1  UNL1        0.0430
     42 H          -2.8187    0.7719    1.1804 H       1  UNL1        0.0430
     43 H           0.0119    1.0063    3.1366 H       1  UNL1        0.0391
     44 H          -1.3310    0.0739    3.8940 H       1  UNL1        0.0391
     45 H          -1.7458    1.4247    2.8470 H       1  UNL1        0.0391
     46 H          -0.4632   -1.2150    0.1919 H       1  UNL1        0.0426
     47 H          -0.3508    0.6143    0.2515 H       1  UNL1        0.0426
     48 H           1.2229   -1.4280    1.9455 H       1  UNL1        0.0278
     49 H           1.3986    0.3228    2.0257 H       1  UNL1        0.0278
     50 H           3.2272   -0.8654    0.8538 H       1  UNL1        0.0284
     51 H           2.0772   -1.6156   -0.2450 H       1  UNL1        0.0284
     52 H           2.6482   -1.8025   -2.1027 H       1  UNL1        0.0622
     53 H           4.5199   -2.6991   -3.5212 H       1  UNL1        0.0655
     54 H           6.8208   -2.5727   -5.7244 H       1  UNL1        0.0660
     55 H           8.3996   -2.4047   -4.8979 H       1  UNL1        0.0660
     56 H           7.2345   -3.5747   -4.2860 H       1  UNL1        0.0660
     57 H           8.1215    2.6614   -2.0951 H       1  UNL1        0.0660
     58 H           6.3087    2.7917   -2.1360 H       1  UNL1        0.0660
     59 H           7.1285    1.9199   -0.7903 H       1  UNL1        0.0660
     60 H           5.0195    1.5875   -1.1842 H       1  UNL1        0.0658
     61 H           1.9403    1.9447    0.6453 H       1  UNL1        0.0314
     62 H           3.6251    1.6723    2.0294 H       1  UNL1        0.0233
     63 H           4.6880    0.8134    0.9372 H       1  UNL1        0.0233
     64 H           4.6275    2.6321    0.9237 H       1  UNL1        0.0233
     65 H           3.7671    3.5561   -0.7396 H       1  UNL1        0.0233
     66 H           1.9900    3.4180   -0.9795 H       1  UNL1        0.0233
     67 H           3.0491    2.4534   -2.0143 H       1  UNL1        0.0233
     68 H          -5.3063    1.0738    2.7715 H       1  UNL1        0.0658
     69 H          -6.4497    2.6917    2.7513 H       1  UNL1        0.0660
     70 H          -7.8713    2.3583    3.7773 H       1  UNL1        0.0660
     71 H          -8.0688    3.4116    2.3245 H       1  UNL1        0.0660
@<TRIPOS>BOND
     1     1     2    1
     2     2     3    1
     3     3     4   ar
     4     4     5   ar
     5     5     6   ar
     6     6     7    1
     7     7     8    1
     8     8     9    1
     9     9    10    1
    10     9    11    1
    11    11    12    1
    12    12    13    1
    13    13    14    1
    14    14    15    1
    15    15    16    3
    16    14    17    1
    17    17    18   ar
    18    18    19   ar
    19    19    20   ar
    20    20    21    1
    21    21    22    1
    22    20    23   ar
    23    23    24    1
    24    24    25    1
    25    23    26   ar
    26    14    27    1
    27    27    28    1
    28    27    29    1
    29     6    30   ar
    30    30    31   ar
    31    31    32    1
    32    32    33    1
    33    31     3   ar
    34    26    17   ar
    35     1    34    1
    36     1    35    1
    37     1    36    1
    38     4    37    1
    39     5    38    1
    40     7    39    1
    41     7    40    1
    42     8    41    1
    43     8    42    1
    44    10    43    1
    45    10    44    1
    46    10    45    1
    47    11    46    1
    48    11    47    1
    49    12    48    1
    50    12    49    1
    51    13    50    1
    52    13    51    1
    53    18    52    1
    54    19    53    1
    55    22    54    1
    56    22    55    1
    57    22    56    1
    58    25    57    1
    59    25    58    1
    60    25    59    1
    61    26    60    1
    62    27    61    1
    63    28    62    1
    64    28    63    1
    65    28    64    1
    66    29    65    1
    67    29    66    1
    68    29    67    1
    69    30    68    1
    70    33    69    1
    71    33    70    1
    72    33    71    1
