
     RDKit          3D

 35 36  0  0  0  0  0  0  0  0999 V2000
    6.8078    1.4612   -0.3266 O   0  0  0  0  0  0  0  0  0  0  0  0
    5.6068    0.7706   -0.1230 C   0  0  0  0  0  0  0  0  0  0  0  0
    4.6832    1.3808    0.6975 C   0  0  0  0  0  0  0  0  0  0  0  0
    3.4829    0.6996    0.9062 C   0  0  0  0  0  0  0  0  0  0  0  0
    3.2335   -0.5245    0.3197 C   0  0  0  0  0  0  0  0  0  0  0  0
    1.9697   -1.2129    0.5562 C   0  0  0  0  0  0  0  0  0  0  0  0
    1.0535   -0.7067    1.3124 N   0  0  0  0  0  0  0  0  0  0  0  0
   -0.1397   -1.4029    1.5088 O   0  0  0  0  0  0  0  0  0  0  0  0
   -1.3662   -0.8107    1.2413 C   0  0  0  0  0  0  0  0  0  0  0  0
   -0.4607    0.0391    0.9769 O   0  0  0  0  0  0  0  0  0  0  0  0
   -2.7417   -0.3697    1.0214 C   0  0  0  0  0  0  0  0  0  0  0  0
   -2.7330    1.0571    0.5105 C   0  0  0  0  0  0  0  0  0  0  0  0
   -2.9370    0.9745   -1.0008 C   0  0  0  0  0  0  0  0  0  0  0  0
   -4.4187    0.6813   -1.1727 C   0  0  0  0  0  0  0  0  0  0  0  0
   -4.6940   -0.6473   -0.5204 C   0  0  0  0  0  0  0  0  0  0  0  0
   -3.4826   -1.2850    0.0742 C   0  0  0  0  0  0  0  0  0  0  0  0
    4.1785   -1.0860   -0.4833 C   0  0  0  0  0  0  0  0  0  0  0  0
    5.3681   -0.4568   -0.7169 C   0  0  0  0  0  0  0  0  0  0  0  0
    6.3228   -1.0007   -1.5144 F   0  0  0  0  0  0  0  0  0  0  0  0
    7.3702    1.7545    0.4814 H   0  0  0  0  0  0  0  0  0  0  0  0
    4.8925    2.3442    1.1525 H   0  0  0  0  0  0  0  0  0  0  0  0
    2.7400    1.1803    1.5603 H   0  0  0  0  0  0  0  0  0  0  0  0
    1.7717   -2.1629    0.1032 H   0  0  0  0  0  0  0  0  0  0  0  0
   -3.3479   -0.3459    1.9718 H   0  0  0  0  0  0  0  0  0  0  0  0
   -3.5406    1.6575    0.9423 H   0  0  0  0  0  0  0  0  0  0  0  0
   -1.7358    1.5340    0.7306 H   0  0  0  0  0  0  0  0  0  0  0  0
   -2.3331    0.1371   -1.3846 H   0  0  0  0  0  0  0  0  0  0  0  0
   -2.6672    1.9309   -1.4986 H   0  0  0  0  0  0  0  0  0  0  0  0
   -4.9565    1.4743   -0.5833 H   0  0  0  0  0  0  0  0  0  0  0  0
   -4.7473    0.7549   -2.2081 H   0  0  0  0  0  0  0  0  0  0  0  0
   -5.0942   -1.3394   -1.2881 H   0  0  0  0  0  0  0  0  0  0  0  0
   -5.4848   -0.5631    0.2634 H   0  0  0  0  0  0  0  0  0  0  0  0
   -3.8298   -2.1544    0.6751 H   0  0  0  0  0  0  0  0  0  0  0  0
   -2.8203   -1.7373   -0.7039 H   0  0  0  0  0  0  0  0  0  0  0  0
    4.0499   -2.0254   -0.9650 H   0  0  0  0  0  0  0  0  0  0  0  0
  1  2  1  0
  2  3  2  0
  3  4  1  0
  4  5  2  0
  5  6  1  0
  6  7  2  0
  7  8  1  0
  8  9  1  0
  9 10  2  0
  9 11  1  0
 11 12  1  0
 12 13  1  0
 13 14  1  0
 14 15  1  0
 15 16  1  0
  5 17  1  0
 17 18  2  0
 18 19  1  0
 18  2  1  0
 16 11  1  0
  1 20  1  0
  3 21  1  0
  4 22  1  0
  6 23  1  0
 11 24  1  0
 12 25  1  0
 12 26  1  0
 13 27  1  0
 13 28  1  0
 14 29  1  0
 14 30  1  0
 15 31  1  0
 15 32  1  0
 16 33  1  0
 16 34  1  0
 17 35  1  0
M  END
$$$$
