@<TRIPOS>MOLECULE
*****
 30 33 0 0 0
SMALL
GASTEIGER

@<TRIPOS>ATOM
      1 BR         -4.1088   -3.8353    0.4864 Br      1  UNL1       -0.0503
      2 C          -3.4641   -2.0454    0.3617 C.ar    1  UNL1        0.0188
      3 C          -4.3135   -0.9629    0.3657 C.ar    1  UNL1       -0.0443
      4 C          -3.8264    0.3329    0.2741 C.ar    1  UNL1       -0.0182
      5 C          -2.4845    0.5716    0.1770 C.ar    1  UNL1        0.1313
      6 C          -1.6167   -0.4909    0.1710 C.ar    1  UNL1        0.0601
      7 C          -2.1109   -1.7835    0.2629 C.ar    1  UNL1       -0.0336
      8 C          -0.1580   -0.4272    0.0749 C.ar    1  UNL1        0.1455
      9 N           0.5898   -1.5178   -0.0299 N.ar    1  UNL1       -0.2274
     10 C           1.8616   -1.1037   -0.0952 C.ar    1  UNL1        0.0907
     11 C           3.0279   -1.8279   -0.2101 C.ar    1  UNL1       -0.0202
     12 C           4.2386   -1.1962   -0.2604 C.ar    1  UNL1        0.0200
     13 BR          5.8357   -2.2466   -0.4206 Br      1  UNL1       -0.0502
     14 C           4.3005    0.1830   -0.1960 C.ar    1  UNL1       -0.0457
     15 C           3.1161    0.8859   -0.0810 C.ar    1  UNL1       -0.0350
     16 C           1.8792    0.2767   -0.0277 C.ar    1  UNL1        0.0692
     17 N           0.6076    0.7039    0.0794 N.ar    1  UNL1       -0.3202
     18 C           0.2831    2.0925    0.1712 C.3     1  UNL1        0.0594
     19 C          -0.9999    2.4770   -0.5255 C.3     1  UNL1        0.1075
     20 O          -2.1488    1.9355    0.0919 O.3     1  UNL1       -0.4895
     21 H          -5.3721   -1.1749    0.4433 H       1  UNL1        0.0630
     22 H          -4.5033    1.1731    0.2783 H       1  UNL1        0.0655
     23 H          -1.4191   -2.6260    0.2578 H       1  UNL1        0.0637
     24 H           2.9920   -2.9055   -0.2613 H       1  UNL1        0.0650
     25 H           5.2662    0.6327   -0.2389 H       1  UNL1        0.0629
     26 H           3.1947    1.9645   -0.0326 H       1  UNL1        0.0639
     27 H           1.0886    2.6731   -0.3236 H       1  UNL1        0.0526
     28 H           0.2520    2.4510    1.2326 H       1  UNL1        0.0526
     29 H          -1.0905    3.5824   -0.4332 H       1  UNL1        0.0714
     30 H          -0.9170    2.2084   -1.5921 H       1  UNL1        0.0714
@<TRIPOS>BOND
     1     1     2    1
     2     2     3   ar
     3     3     4   ar
     4     4     5   ar
     5     5     6   ar
     6     6     7   ar
     7     6     8    1
     8     8     9   ar
     9     9    10   ar
    10    10    11   ar
    11    11    12   ar
    12    12    13    1
    13    12    14   ar
    14    14    15   ar
    15    15    16   ar
    16    16    17   ar
    17    17    18    1
    18    18    19    1
    19    19    20    1
    20     7     2   ar
    21    17     8   ar
    22    20     5    1
    23    16    10   ar
    24     3    21    1
    25     4    22    1
    26     7    23    1
    27    11    24    1
    28    14    25    1
    29    15    26    1
    30    18    27    1
    31    18    28    1
    32    19    29    1
    33    19    30    1
