@<TRIPOS>MOLECULE
*****
 48 51 0 0 0
SMALL
GASTEIGER

@<TRIPOS>ATOM
      1 C           8.5521   -1.5835    0.3221 C.3     1  UNL1        0.0302
      2 N           7.1304   -1.8234    0.4694 N.ar    1  UNL1       -0.2739
      3 C           6.2021   -0.8850    0.2123 C.ar    1  UNL1        0.0329
      4 C           4.9529   -1.3988    0.4393 C.ar    1  UNL1        0.0211
      5 C           3.6927   -0.6868    0.2709 C.ar    1  UNL1        0.0052
      6 C           2.5835   -0.9516    1.0418 C.ar    1  UNL1        0.0362
      7 N           1.4737   -0.2518    0.8166 N.ar    1  UNL1       -0.2510
      8 C           1.3851    0.7053   -0.1323 C.ar    1  UNL1        0.1103
      9 C           0.2217    1.4197   -0.3493 C.ar    1  UNL1        0.0637
     10 N          -0.9070    1.1449    0.4422 N.am    1  UNL1       -0.2675
     11 C          -2.1749    1.7422    0.3808 C.2     1  UNL1        0.3039
     12 O          -2.4197    2.6370   -0.4506 O.2     1  UNL1       -0.2525
     13 N          -3.2489    1.3719    1.2497 N.am    1  UNL1       -0.2988
     14 C          -4.5626    1.9502    1.2227 C.3     1  UNL1        0.0170
     15 C          -5.2123    1.6925   -0.1117 C.3     1  UNL1       -0.0120
     16 C          -5.3412    0.2364   -0.3182 C.ar    1  UNL1       -0.0459
     17 C          -4.3986   -0.4956   -0.9887 C.ar    1  UNL1       -0.0585
     18 C          -4.5436   -1.8838   -1.1580 C.ar    1  UNL1       -0.0615
     19 C          -5.6438   -2.5382   -0.6498 C.ar    1  UNL1       -0.0617
     20 C          -6.5834   -1.7894    0.0218 C.ar    1  UNL1       -0.0615
     21 C          -6.4516   -0.4296    0.1937 C.ar    1  UNL1       -0.0585
     22 C           0.2325    2.3646   -1.3308 C.ar    1  UNL1       -0.0202
     23 C           1.3704    2.6168   -2.1016 C.ar    1  UNL1        0.0301
     24 N           2.4768    1.9165   -1.8736 N.ar    1  UNL1       -0.2533
     25 C           2.4746    0.9884   -0.9132 C.ar    1  UNL1        0.0915
     26 C           3.6596    0.2927   -0.7260 C.ar    1  UNL1       -0.0249
     27 C           5.1513   -2.7066    0.8514 C.ar    1  UNL1        0.0571
     28 N           6.4813   -2.9028    0.8494 N.ar    1  UNL1       -0.1793
     29 H           9.1145   -2.5122    0.1028 H       1  UNL1        0.0473
     30 H           8.7188   -0.8099   -0.4791 H       1  UNL1        0.0473
     31 H           8.9606   -1.1283    1.2468 H       1  UNL1        0.0473
     32 H           6.3876    0.1417   -0.1280 H       1  UNL1        0.0832
     33 H           2.6656   -1.7155    1.7940 H       1  UNL1        0.0836
     34 H          -0.8121    0.3820    1.2005 H       1  UNL1        0.1564
     35 H          -3.0501    0.6267    1.9490 H       1  UNL1        0.1502
     36 H          -4.4318    3.0531    1.3341 H       1  UNL1        0.0466
     37 H          -5.1887    1.5952    2.0667 H       1  UNL1        0.0466
     38 H          -6.1995    2.2086   -0.1603 H       1  UNL1        0.0328
     39 H          -4.6151    2.0860   -0.9550 H       1  UNL1        0.0328
     40 H          -3.5379    0.0073   -1.3987 H       1  UNL1        0.0620
     41 H          -3.7752   -2.4207   -1.6939 H       1  UNL1        0.0618
     42 H          -5.7673   -3.6133   -0.7741 H       1  UNL1        0.0618
     43 H          -7.4436   -2.2886    0.4213 H       1  UNL1        0.0618
     44 H          -7.1895    0.1592    0.7209 H       1  UNL1        0.0620
     45 H          -0.6078    2.9717   -1.5812 H       1  UNL1        0.0652
     46 H           1.3386    3.3875   -2.8837 H       1  UNL1        0.0830
     47 H           4.5383    0.4889   -1.3226 H       1  UNL1        0.0646
     48 H           4.3416   -3.3718    1.1056 H       1  UNL1        0.0854
@<TRIPOS>BOND
     1     1     2    1
     2     2     3   ar
     3     3     4   ar
     4     4     5    1
     5     5     6   ar
     6     6     7   ar
     7     7     8   ar
     8     8     9   ar
     9     9    10    1
    10    10    11   am
    11    11    12    2
    12    11    13   am
    13    13    14    1
    14    14    15    1
    15    15    16    1
    16    16    17   ar
    17    17    18   ar
    18    18    19   ar
    19    19    20   ar
    20    20    21   ar
    21     9    22   ar
    22    22    23   ar
    23    23    24   ar
    24    24    25   ar
    25    25    26   ar
    26     4    27   ar
    27    27    28   ar
    28    28     2   ar
    29    26     5   ar
    30    25     8   ar
    31    21    16   ar
    32     1    29    1
    33     1    30    1
    34     1    31    1
    35     3    32    1
    36     6    33    1
    37    10    34    1
    38    13    35    1
    39    14    36    1
    40    14    37    1
    41    15    38    1
    42    15    39    1
    43    17    40    1
    44    18    41    1
    45    19    42    1
    46    20    43    1
    47    21    44    1
    48    22    45    1
    49    23    46    1
    50    26    47    1
    51    27    48    1
