
     RDKit          3D

 44 47  0  0  0  0  0  0  0  0999 V2000
   -6.8236    2.6770    1.2643 C   0  0  0  0  0  0  0  0  0  0  0  0
   -5.7819    1.5760    1.2592 C   0  0  0  0  0  0  0  0  0  0  0  0
   -6.2533    0.2852    1.1144 N   0  0  0  0  0  0  0  0  0  0  0  0
   -4.7025   -0.7112    1.1582 S   0  0  0  0  0  0  0  0  0  0  0  0
   -3.6757    0.8047    1.3666 C   0  0  0  0  0  0  0  0  0  0  0  0
   -2.1822    0.6582    1.4718 C   0  0  0  0  0  0  0  0  0  0  0  0
   -1.3555    1.2195    2.3381 N   0  0  0  0  0  0  0  0  0  0  0  0
   -0.1094    0.8418    2.0905 N   0  0  0  0  0  0  0  0  0  0  0  0
   -0.1509    0.0199    1.0402 C   0  0  0  0  0  0  0  0  0  0  0  0
   -1.4233   -0.1116    0.6375 N   0  0  0  0  0  0  0  0  0  0  0  0
   -1.8281   -0.9455   -0.4842 C   0  0  0  0  0  0  0  0  0  0  0  0
   -0.7542   -1.1134   -1.5084 C   0  0  0  0  0  0  0  0  0  0  0  0
    0.5343   -0.5955   -1.1003 N   0  0  0  0  0  0  0  0  0  0  0  0
    1.4120    0.0101   -2.0145 C   0  0  0  0  0  0  0  0  0  0  0  0
    1.0418    0.0879   -3.2240 O   0  0  0  0  0  0  0  0  0  0  0  0
    2.7062    0.5398   -1.6197 C   0  0  0  0  0  0  0  0  0  0  0  0
    3.8309   -0.0132   -2.2062 C   0  0  0  0  0  0  0  0  0  0  0  0
    5.1007    0.4283   -1.9026 C   0  0  0  0  0  0  0  0  0  0  0  0
    5.2921    1.4480   -0.9928 C   0  0  0  0  0  0  0  0  0  0  0  0
    6.5575    1.8667   -0.7104 F   0  0  0  0  0  0  0  0  0  0  0  0
    4.1753    2.0024   -0.4053 C   0  0  0  0  0  0  0  0  0  0  0  0
    2.9014    1.5557   -0.7137 C   0  0  0  0  0  0  0  0  0  0  0  0
    0.9076   -0.7087    0.2926 C   0  0  2  0  0  0  0  0  0  0  0  0
    0.9642   -2.1597    0.7365 C   0  0  0  0  0  0  0  0  0  0  0  0
    2.0643   -2.8298   -0.0666 C   0  0  0  0  0  0  0  0  0  0  0  0
    3.3018   -2.2089    0.1670 O   0  0  0  0  0  0  0  0  0  0  0  0
   -4.4930    1.6577    1.3706 N   0  0  0  0  0  0  0  0  0  0  0  0
   -7.6770    2.3664    1.8763 H   0  0  0  0  0  0  0  0  0  0  0  0
   -7.0507    2.8706    0.2082 H   0  0  0  0  0  0  0  0  0  0  0  0
   -6.3599    3.5881    1.6931 H   0  0  0  0  0  0  0  0  0  0  0  0
   -2.2145   -1.9389   -0.1076 H   0  0  0  0  0  0  0  0  0  0  0  0
   -2.7126   -0.4876   -0.9737 H   0  0  0  0  0  0  0  0  0  0  0  0
   -1.0651   -0.6622   -2.4965 H   0  0  0  0  0  0  0  0  0  0  0  0
   -0.5997   -2.1972   -1.7605 H   0  0  0  0  0  0  0  0  0  0  0  0
    3.7170   -0.8181   -2.9277 H   0  0  0  0  0  0  0  0  0  0  0  0
    5.9525   -0.0344   -2.3874 H   0  0  0  0  0  0  0  0  0  0  0  0
    4.3000    2.8041    0.3144 H   0  0  0  0  0  0  0  0  0  0  0  0
    1.9976    1.9794   -0.2607 H   0  0  0  0  0  0  0  0  0  0  0  0
    1.9247   -0.3141    0.4708 H   0  0  0  0  0  0  0  0  0  0  0  0
    1.2041   -2.1646    1.8052 H   0  0  0  0  0  0  0  0  0  0  0  0
    0.0294   -2.7066    0.5327 H   0  0  0  0  0  0  0  0  0  0  0  0
    1.8025   -2.8277   -1.1455 H   0  0  0  0  0  0  0  0  0  0  0  0
    2.1893   -3.8945    0.2423 H   0  0  0  0  0  0  0  0  0  0  0  0
    3.3059   -1.8443    1.0959 H   0  0  0  0  0  0  0  0  0  0  0  0
  1  2  1  0
  2  3  2  0
  3  4  1  0
  4  5  1  0
  5  6  1  0
  6  7  2  0
  7  8  1  0
  8  9  2  0
  9 10  1  0
 10 11  1  0
 11 12  1  0
 12 13  1  0
 13 14  1  0
 14 15  2  0
 14 16  1  0
 16 17  2  0
 17 18  1  0
 18 19  2  0
 19 20  1  0
 19 21  1  0
 21 22  2  0
 13 23  1  0
 23 24  1  0
 24 25  1  0
 25 26  1  0
  5 27  2  0
 27  2  1  0
 10  6  1  0
 22 16  1  0
 23  9  1  0
  1 28  1  0
  1 29  1  0
  1 30  1  0
 11 31  1  0
 11 32  1  0
 12 33  1  0
 12 34  1  0
 17 35  1  0
 18 36  1  0
 21 37  1  0
 22 38  1  0
 23 39  1  6
 24 40  1  0
 24 41  1  0
 25 42  1  0
 25 43  1  0
 26 44  1  0
M  END
$$$$
