@<TRIPOS>MOLECULE
*****
 44 47 0 0 0
SMALL
GASTEIGER

@<TRIPOS>ATOM
      1 C          -6.8236    2.6770    1.2643 C.3     1  UNL1       -0.0039
      2 C          -5.7819    1.5760    1.2592 C.ar    1  UNL1        0.1359
      3 N          -6.2533    0.2852    1.1144 N.ar    1  UNL1       -0.1939
      4 S          -4.7025   -0.7112    1.1582 S.2     1  UNL1        0.0369
      5 C          -3.6757    0.8047    1.3666 C.ar    1  UNL1        0.1652
      6 C          -2.1822    0.6582    1.4718 C.ar    1  UNL1        0.1910
      7 N          -1.3555    1.2195    2.3381 N.ar    1  UNL1       -0.1269
      8 N          -0.1094    0.8418    2.0905 N.ar    1  UNL1       -0.1320
      9 C          -0.1509    0.0199    1.0402 C.ar    1  UNL1        0.1545
     10 N          -1.4233   -0.1116    0.6375 N.ar    1  UNL1       -0.3062
     11 C          -1.8281   -0.9455   -0.4842 C.3     1  UNL1        0.0423
     12 C          -0.7542   -1.1134   -1.5084 C.3     1  UNL1        0.0338
     13 N           0.5343   -0.5955   -1.1003 N.am    1  UNL1       -0.2856
     14 C           1.4120    0.0101   -2.0145 C.2     1  UNL1        0.2472
     15 O           1.0418    0.0879   -3.2240 O.2     1  UNL1       -0.2700
     16 C           2.7062    0.5398   -1.6197 C.ar    1  UNL1        0.0371
     17 C           3.8309   -0.0132   -2.2062 C.ar    1  UNL1       -0.0469
     18 C           5.1007    0.4283   -1.9026 C.ar    1  UNL1       -0.0257
     19 C           5.2921    1.4480   -0.9928 C.ar    1  UNL1        0.1234
     20 F           6.5575    1.8667   -0.7104 F       1  UNL1       -0.2055
     21 C           4.1753    2.0024   -0.4053 C.ar    1  UNL1       -0.0257
     22 C           2.9014    1.5557   -0.7137 C.ar    1  UNL1       -0.0469
     23 C           0.9076   -0.7087    0.2926 C.3     1  UNL1        0.0883
     24 C           0.9642   -2.1597    0.7365 C.3     1  UNL1       -0.0039
     25 C           2.0643   -2.8298   -0.0666 C.3     1  UNL1        0.0463
     26 O           3.3018   -2.2089    0.1670 O.3     1  UNL1       -0.3949
     27 N          -4.4930    1.6577    1.3706 N.ar    1  UNL1       -0.2199
     28 H          -7.6770    2.3664    1.8763 H       1  UNL1        0.0308
     29 H          -7.0507    2.8706    0.2082 H       1  UNL1        0.0308
     30 H          -6.3599    3.5881    1.6931 H       1  UNL1        0.0308
     31 H          -2.2145   -1.9389   -0.1076 H       1  UNL1        0.0508
     32 H          -2.7126   -0.4876   -0.9737 H       1  UNL1        0.0508
     33 H          -1.0651   -0.6622   -2.4965 H       1  UNL1        0.0482
     34 H          -0.5997   -2.1972   -1.7605 H       1  UNL1        0.0482
     35 H           3.7170   -0.8181   -2.9277 H       1  UNL1        0.0626
     36 H           5.9525   -0.0344   -2.3874 H       1  UNL1        0.0646
     37 H           4.3000    2.8041    0.3144 H       1  UNL1        0.0646
     38 H           1.9976    1.9794   -0.2607 H       1  UNL1        0.0626
     39 H           1.9247   -0.3141    0.4708 H       1  UNL1        0.0582
     40 H           1.2041   -2.1646    1.8052 H       1  UNL1        0.0309
     41 H           0.0294   -2.7066    0.5327 H       1  UNL1        0.0309
     42 H           1.8025   -2.8277   -1.1455 H       1  UNL1        0.0558
     43 H           2.1893   -3.8945    0.2423 H       1  UNL1        0.0558
     44 H           3.3059   -1.8443    1.0959 H       1  UNL1        0.2094
@<TRIPOS>BOND
     1     1     2    1
     2     2     3   ar
     3     3     4   ar
     4     4     5   ar
     5     5     6    1
     6     6     7   ar
     7     7     8   ar
     8     8     9   ar
     9     9    10   ar
    10    10    11    1
    11    11    12    1
    12    12    13    1
    13    13    14   am
    14    14    15    2
    15    14    16    1
    16    16    17   ar
    17    17    18   ar
    18    18    19   ar
    19    19    20    1
    20    19    21   ar
    21    21    22   ar
    22    13    23    1
    23    23    24    1
    24    24    25    1
    25    25    26    1
    26     5    27   ar
    27    27     2   ar
    28    10     6   ar
    29    22    16   ar
    30    23     9    1
    31     1    28    1
    32     1    29    1
    33     1    30    1
    34    11    31    1
    35    11    32    1
    36    12    33    1
    37    12    34    1
    38    17    35    1
    39    18    36    1
    40    21    37    1
    41    22    38    1
    42    23    39    1
    43    24    40    1
    44    24    41    1
    45    25    42    1
    46    25    43    1
    47    26    44    1
