@<TRIPOS>MOLECULE
*****
 61 65 0 0 0
SMALL
GASTEIGER

@<TRIPOS>ATOM
      1 O           7.6459   -2.0524   -1.9667 O.2     1  UNL1       -0.2451
      2 C           7.1455   -0.9916   -1.5224 C.2     1  UNL1        0.3368
      3 O           8.0181    0.0440   -1.2204 O.3     1  UNL1       -0.4771
      4 C           5.7013   -0.8726   -1.3381 C.ar    1  UNL1        0.0589
      5 C           5.1603    0.2905   -0.8516 C.ar    1  UNL1       -0.0460
      6 C           3.7818    0.3929   -0.6799 C.ar    1  UNL1       -0.0397
      7 C           2.9141   -0.6214   -0.9744 C.ar    1  UNL1        0.0335
      8 N           1.5128   -0.6048   -0.8326 N.am    1  UNL1       -0.2838
      9 C           0.7164    0.4610   -0.3577 C.2     1  UNL1        0.2404
     10 O           1.2914    1.5130   -0.0206 O.2     1  UNL1       -0.2732
     11 C          -0.7664    0.2959   -0.2758 C.3     1  UNL1        0.1154
     12 C          -1.4401    1.5260    0.2617 C.3     1  UNL1       -0.0116
     13 C          -1.1618    2.7117   -0.6242 C.3     1  UNL1       -0.0479
     14 C          -0.8654    3.9202    0.2383 C.3     1  UNL1       -0.0527
     15 C          -1.9587    4.0940    1.2789 C.3     1  UNL1       -0.0530
     16 C          -2.0942    2.8997    2.1653 C.3     1  UNL1       -0.0527
     17 C          -1.1336    1.7968    1.7066 C.3     1  UNL1       -0.0479
     18 N          -1.1926   -0.9190    0.3345 N.ar    1  UNL1       -0.3112
     19 C          -2.2722   -1.6612   -0.0450 C.ar    1  UNL1        0.1425
     20 C          -3.1593   -1.3119   -1.1475 C.ar    1  UNL1        0.0176
     21 C          -2.7736   -1.3767   -2.4708 C.ar    1  UNL1       -0.0497
     22 C          -3.6715   -1.0286   -3.4707 C.ar    1  UNL1       -0.0427
     23 C          -4.9613   -0.6114   -3.1958 C.ar    1  UNL1        0.0410
     24 CL         -6.0736   -0.1775   -4.4908 Cl      1  UNL1       -0.0835
     25 C          -5.3384   -0.5495   -1.8713 C.ar    1  UNL1       -0.0427
     26 C          -4.4489   -0.8938   -0.8900 C.ar    1  UNL1       -0.0497
     27 N          -2.3943   -2.7470    0.7382 N.ar    1  UNL1       -0.2274
     28 C          -1.3776   -2.6962    1.6299 C.ar    1  UNL1        0.0926
     29 C          -0.9907   -3.5166    2.6617 C.ar    1  UNL1        0.0039
     30 C           0.1002   -3.2447    3.4394 C.ar    1  UNL1        0.1605
     31 F           0.5006   -4.0515    4.4724 F       1  UNL1       -0.2024
     32 C           0.8378   -2.1230    3.1919 C.ar    1  UNL1        0.1605
     33 F           1.9336   -1.8325    3.9587 F       1  UNL1       -0.2024
     34 C           0.4857   -1.2747    2.1690 C.ar    1  UNL1        0.0021
     35 C          -0.6149   -1.5472    1.3829 C.ar    1  UNL1        0.0727
     36 C           3.5098   -1.7924   -1.4691 C.ar    1  UNL1       -0.0397
     37 C           4.8685   -1.9149   -1.6464 C.ar    1  UNL1       -0.0460
     38 H           8.9696   -0.1489   -0.9083 H       1  UNL1        0.2954
     39 H           5.8131    1.1032   -0.6115 H       1  UNL1        0.0626
     40 H           3.4470    1.3337   -0.2963 H       1  UNL1        0.0636
     41 H           0.9785   -1.5006   -1.1153 H       1  UNL1        0.1549
     42 H          -1.0904    0.2441   -1.3617 H       1  UNL1        0.0627
     43 H          -2.5398    1.3373    0.2007 H       1  UNL1        0.0325
     44 H          -0.3377    2.5542   -1.3341 H       1  UNL1        0.0269
     45 H          -2.0527    2.9921   -1.2515 H       1  UNL1        0.0269
     46 H           0.1174    3.8876    0.7173 H       1  UNL1        0.0265
     47 H          -0.9127    4.8542   -0.3948 H       1  UNL1        0.0265
     48 H          -2.9053    4.3327    0.7230 H       1  UNL1        0.0265
     49 H          -1.7058    4.9809    1.8977 H       1  UNL1        0.0265
     50 H          -2.0071    3.1053    3.2375 H       1  UNL1        0.0265
     51 H          -3.1216    2.4674    1.9869 H       1  UNL1        0.0265
     52 H          -0.1193    2.1398    1.9032 H       1  UNL1        0.0269
     53 H          -1.4359    0.8937    2.2803 H       1  UNL1        0.0269
     54 H          -1.7632   -1.7026   -2.7060 H       1  UNL1        0.0625
     55 H          -3.3792   -1.0760   -4.5109 H       1  UNL1        0.0632
     56 H          -6.3526   -0.2204   -1.6761 H       1  UNL1        0.0632
     57 H          -4.7497   -0.8439    0.1552 H       1  UNL1        0.0625
     58 H          -1.5729   -4.4107    2.8643 H       1  UNL1        0.0669
     59 H           1.0460   -0.3807    1.9468 H       1  UNL1        0.0668
     60 H           2.9145   -2.6558   -1.7337 H       1  UNL1        0.0636
     61 H           5.3253   -2.8193   -2.0282 H       1  UNL1        0.0626
@<TRIPOS>BOND
     1     1     2    2
     2     2     3    1
     3     2     4    1
     4     4     5   ar
     5     5     6   ar
     6     6     7   ar
     7     7     8    1
     8     8     9   am
     9     9    10    2
    10     9    11    1
    11    11    12    1
    12    12    13    1
    13    13    14    1
    14    14    15    1
    15    15    16    1
    16    16    17    1
    17    11    18    1
    18    18    19   ar
    19    19    20    1
    20    20    21   ar
    21    21    22   ar
    22    22    23   ar
    23    23    24    1
    24    23    25   ar
    25    25    26   ar
    26    19    27   ar
    27    27    28   ar
    28    28    29   ar
    29    29    30   ar
    30    30    31    1
    31    30    32   ar
    32    32    33    1
    33    32    34   ar
    34    34    35   ar
    35     7    36   ar
    36    36    37   ar
    37    37     4   ar
    38    17    12    1
    39    35    18   ar
    40    26    20   ar
    41    35    28   ar
    42     3    38    1
    43     5    39    1
    44     6    40    1
    45     8    41    1
    46    11    42    1
    47    12    43    1
    48    13    44    1
    49    13    45    1
    50    14    46    1
    51    14    47    1
    52    15    48    1
    53    15    49    1
    54    16    50    1
    55    16    51    1
    56    17    52    1
    57    17    53    1
    58    21    54    1
    59    22    55    1
    60    25    56    1
    61    26    57    1
    62    29    58    1
    63    34    59    1
    64    36    60    1
    65    37    61    1
