@<TRIPOS>MOLECULE
*****
 38 41 0 0 0
SMALL
GASTEIGER

@<TRIPOS>ATOM
      1 N          -6.0191   -2.0098   -0.8656 N.pl3   1  UNL1       -0.2466
      2 C          -6.1195   -0.7182   -0.2671 C.2     1  UNL1        0.3082
      3 N          -7.2838   -0.4391    0.1748 N.2     1  UNL1       -0.0994
      4 C          -4.9450    0.1489   -0.2050 C.ar    1  UNL1        0.0668
      5 C          -4.9788    1.5293   -0.2232 C.ar    1  UNL1       -0.0448
      6 C          -3.8491    2.3029   -0.1627 C.ar    1  UNL1       -0.0354
      7 C          -2.5943    1.6978   -0.0784 C.ar    1  UNL1        0.0665
      8 N          -1.3115    2.1551   -0.0048 N.ar    1  UNL1       -0.3365
      9 C          -0.5392    1.0660    0.0555 C.ar    1  UNL1        0.1631
     10 N          -1.2986   -0.0353    0.0216 N.ar    1  UNL1       -0.2260
     11 C          -2.5900    0.3171   -0.0620 C.ar    1  UNL1        0.0903
     12 C          -3.7154   -0.4760   -0.1220 C.ar    1  UNL1       -0.0194
     13 C           0.9106    1.0764    0.1446 C.ar    1  UNL1        0.1693
     14 N           1.7156    2.1497    0.1815 N.ar    1  UNL1       -0.1664
     15 N           2.9839    1.7882    0.2638 N.ar    1  UNL1       -0.2726
     16 C           3.0573    0.4504    0.2840 C.ar    1  UNL1        0.1078
     17 C           1.7595   -0.0093    0.2095 C.ar    1  UNL1        0.1730
     18 O           1.3013   -1.3090    0.1965 O.3     1  UNL1       -0.5028
     19 C           4.2715   -0.3519    0.3681 C.ar    1  UNL1        0.0034
     20 C           4.3381   -1.7285    0.3883 C.ar    1  UNL1       -0.0525
     21 C           5.5429   -2.3963    0.4703 C.ar    1  UNL1       -0.0611
     22 C           6.7402   -1.7044    0.5359 C.ar    1  UNL1       -0.0617
     23 C           6.7348   -0.3214    0.5194 C.ar    1  UNL1       -0.0611
     24 C           5.5023    0.2932    0.4364 C.ar    1  UNL1       -0.0525
     25 H          -6.4002   -2.9024   -0.4676 H       1  UNL1        0.2884
     26 H          -5.6070   -2.4082   -1.7370 H       1  UNL1        0.2884
     27 H          -7.5588    0.4336    0.6359 H       1  UNL1        0.3633
     28 H          -5.9608    1.9870   -0.2890 H       1  UNL1        0.0627
     29 H          -3.8984    3.3750   -0.1783 H       1  UNL1        0.0639
     30 H          -1.0348    3.1489    0.0006 H       1  UNL1        0.1674
     31 H          -3.6359   -1.5635   -0.1044 H       1  UNL1        0.0648
     32 H           3.7712    2.4988    0.3040 H       1  UNL1        0.1891
     33 H           0.9606   -1.7394   -0.6667 H       1  UNL1        0.2923
     34 H           3.4161   -2.2668    0.3379 H       1  UNL1        0.0624
     35 H           5.5249   -3.4847    0.4819 H       1  UNL1        0.0618
     36 H           7.6847   -2.2204    0.6001 H       1  UNL1        0.0618
     37 H           7.6289    0.2865    0.5673 H       1  UNL1        0.0618
     38 H           5.4956    1.3798    0.4232 H       1  UNL1        0.0624
@<TRIPOS>BOND
     1     1     2    1
     2     2     3    2
     3     2     4    1
     4     4     5   ar
     5     5     6   ar
     6     6     7   ar
     7     7     8   ar
     8     8     9   ar
     9     9    10   ar
    10    10    11   ar
    11    11    12   ar
    12     9    13    1
    13    13    14   ar
    14    14    15   ar
    15    15    16   ar
    16    16    17   ar
    17    17    18    1
    18    16    19    1
    19    19    20   ar
    20    20    21   ar
    21    21    22   ar
    22    22    23   ar
    23    23    24   ar
    24    12     4   ar
    25    17    13   ar
    26    24    19   ar
    27    11     7   ar
    28     1    25    1
    29     1    26    1
    30     3    27    1
    31     5    28    1
    32     6    29    1
    33     8    30    1
    34    12    31    1
    35    15    32    1
    36    18    33    1
    37    20    34    1
    38    21    35    1
    39    22    36    1
    40    23    37    1
    41    24    38    1
