
     RDKit          3D

 50 49  0  0  0  0  0  0  0  0999 V2000
    6.6374    0.7093    0.0765 C   0  0  0  0  0  0  0  0  0  0  0  0
    6.3388   -0.7369   -0.1579 C   0  0  0  0  0  0  0  0  0  0  0  0
    5.3115   -1.3766    0.6910 C   0  0  0  0  0  0  0  0  0  0  0  0
    3.9290   -0.8517    0.5325 C   0  0  0  0  0  0  0  0  0  0  0  0
    3.7645    0.5895    0.8477 C   0  0  0  0  0  0  0  0  0  0  0  0
    2.2696    0.9404    0.7279 C   0  0  0  0  0  0  0  0  0  0  0  0
    1.7435    0.7152   -0.6344 C   0  0  0  0  0  0  0  0  0  0  0  0
    0.2533    1.0948   -0.7405 C   0  0  0  0  0  0  0  0  0  0  0  0
   -0.5372    0.2583    0.2098 C   0  0  0  0  0  0  0  0  0  0  0  0
   -2.0276    0.5835    0.1499 C   0  0  0  0  0  0  0  0  0  0  0  0
   -2.7106   -0.3258    1.1526 C   0  0  0  0  0  0  0  0  0  0  0  0
   -4.1786   -0.1512    1.2355 C   0  0  0  0  0  0  0  0  0  0  0  0
   -4.9623   -0.3709    0.0856 N   0  0  0  0  0  4  0  0  0  0  0  0
   -4.4296   -1.1204   -0.9881 C   0  0  0  0  0  0  0  0  0  0  0  0
   -6.2552   -0.9743    0.4517 C   0  0  0  0  0  0  0  0  0  0  0  0
   -5.3522    0.9489   -0.4419 C   0  0  0  0  0  0  0  0  0  0  0  0
    6.3139    1.1029    1.0575 H   0  0  0  0  0  0  0  0  0  0  0  0
    6.3499    1.3720   -0.7842 H   0  0  0  0  0  0  0  0  0  0  0  0
    7.7854    0.7897    0.1567 H   0  0  0  0  0  0  0  0  0  0  0  0
    7.2974   -1.3538   -0.0701 H   0  0  0  0  0  0  0  0  0  0  0  0
    5.9737   -0.8471   -1.2303 H   0  0  0  0  0  0  0  0  0  0  0  0
    5.3105   -2.4799    0.3810 H   0  0  0  0  0  0  0  0  0  0  0  0
    5.6125   -1.3967    1.7839 H   0  0  0  0  0  0  0  0  0  0  0  0
    3.5055   -1.1253   -0.4726 H   0  0  0  0  0  0  0  0  0  0  0  0
    3.2521   -1.4453    1.2358 H   0  0  0  0  0  0  0  0  0  0  0  0
    4.0900    0.7991    1.8785 H   0  0  0  0  0  0  0  0  0  0  0  0
    4.2468    1.2600    0.0922 H   0  0  0  0  0  0  0  0  0  0  0  0
    2.2400    2.0389    0.9200 H   0  0  0  0  0  0  0  0  0  0  0  0
    1.7866    0.3739    1.5393 H   0  0  0  0  0  0  0  0  0  0  0  0
    1.8665   -0.2762   -1.0711 H   0  0  0  0  0  0  0  0  0  0  0  0
    2.2724    1.4233   -1.3262 H   0  0  0  0  0  0  0  0  0  0  0  0
   -0.0053    0.8864   -1.7976 H   0  0  0  0  0  0  0  0  0  0  0  0
    0.1216    2.1767   -0.5778 H   0  0  0  0  0  0  0  0  0  0  0  0
   -0.4546   -0.8036   -0.1235 H   0  0  0  0  0  0  0  0  0  0  0  0
   -0.2065    0.3093    1.2458 H   0  0  0  0  0  0  0  0  0  0  0  0
   -2.3991    0.5076   -0.8684 H   0  0  0  0  0  0  0  0  0  0  0  0
   -2.1026    1.6475    0.4553 H   0  0  0  0  0  0  0  0  0  0  0  0
   -2.3555   -1.3581    1.0992 H   0  0  0  0  0  0  0  0  0  0  0  0
   -2.3124    0.0385    2.1484 H   0  0  0  0  0  0  0  0  0  0  0  0
   -4.5423   -0.8209    2.0429 H   0  0  0  0  0  0  0  0  0  0  0  0
   -4.3443    0.8830    1.6610 H   0  0  0  0  0  0  0  0  0  0  0  0
   -5.1254   -1.9395   -1.3376 H   0  0  0  0  0  0  0  0  0  0  0  0
   -3.4746   -1.6365   -0.8281 H   0  0  0  0  0  0  0  0  0  0  0  0
   -4.2983   -0.5063   -1.9270 H   0  0  0  0  0  0  0  0  0  0  0  0
   -6.7995   -0.3841    1.1976 H   0  0  0  0  0  0  0  0  0  0  0  0
   -6.0439   -2.0177    0.7550 H   0  0  0  0  0  0  0  0  0  0  0  0
   -6.8749   -1.0564   -0.4683 H   0  0  0  0  0  0  0  0  0  0  0  0
   -4.6240    1.3604   -1.1440 H   0  0  0  0  0  0  0  0  0  0  0  0
   -5.4924    1.6431    0.4227 H   0  0  0  0  0  0  0  0  0  0  0  0
   -6.3632    0.9028   -0.9189 H   0  0  0  0  0  0  0  0  0  0  0  0
  1  2  1  0
  2  3  1  0
  3  4  1  0
  4  5  1  0
  5  6  1  0
  6  7  1  0
  7  8  1  0
  8  9  1  0
  9 10  1  0
 10 11  1  0
 11 12  1  0
 12 13  1  0
 13 14  1  0
 13 15  1  0
 13 16  1  0
  1 17  1  0
  1 18  1  0
  1 19  1  0
  2 20  1  0
  2 21  1  0
  3 22  1  0
  3 23  1  0
  4 24  1  0
  4 25  1  0
  5 26  1  0
  5 27  1  0
  6 28  1  0
  6 29  1  0
  7 30  1  0
  7 31  1  0
  8 32  1  0
  8 33  1  0
  9 34  1  0
  9 35  1  0
 10 36  1  0
 10 37  1  0
 11 38  1  0
 11 39  1  0
 12 40  1  0
 12 41  1  0
 14 42  1  0
 14 43  1  0
 14 44  1  0
 15 45  1  0
 15 46  1  0
 15 47  1  0
 16 48  1  0
 16 49  1  0
 16 50  1  0
M  CHG  1  13   1
M  END
$$$$
