@<TRIPOS>MOLECULE
*****
 50 49 0 0 0
SMALL
GASTEIGER

@<TRIPOS>ATOM
      1 C           6.6374    0.7093    0.0765 C.3     1  UNL1       -0.0653
      2 C           6.3388   -0.7369   -0.1579 C.3     1  UNL1       -0.0559
      3 C           5.3115   -1.3766    0.6910 C.3     1  UNL1       -0.0533
      4 C           3.9290   -0.8517    0.5325 C.3     1  UNL1       -0.0531
      5 C           3.7645    0.5895    0.8477 C.3     1  UNL1       -0.0531
      6 C           2.2696    0.9404    0.7279 C.3     1  UNL1       -0.0531
      7 C           1.7435    0.7152   -0.6344 C.3     1  UNL1       -0.0531
      8 C           0.2533    1.0948   -0.7405 C.3     1  UNL1       -0.0531
      9 C          -0.5372    0.2583    0.2098 C.3     1  UNL1       -0.0529
     10 C          -2.0276    0.5835    0.1499 C.3     1  UNL1       -0.0483
     11 C          -2.7106   -0.3258    1.1526 C.3     1  UNL1       -0.0125
     12 C          -4.1786   -0.1512    1.2355 C.3     1  UNL1       -0.0309
     13 N          -4.9623   -0.3709    0.0856 N.4     1  UNL1        0.2369
     14 C          -4.4296   -1.1204   -0.9881 C.3     1  UNL1       -0.0418
     15 C          -6.2552   -0.9743    0.4517 C.3     1  UNL1       -0.0418
     16 C          -5.3522    0.9489   -0.4419 C.3     1  UNL1       -0.0418
     17 H           6.3139    1.1029    1.0575 H       1  UNL1        0.0230
     18 H           6.3499    1.3720   -0.7842 H       1  UNL1        0.0230
     19 H           7.7854    0.7897    0.1567 H       1  UNL1        0.0230
     20 H           7.2974   -1.3538   -0.0701 H       1  UNL1        0.0263
     21 H           5.9737   -0.8471   -1.2303 H       1  UNL1        0.0263
     22 H           5.3105   -2.4799    0.3810 H       1  UNL1        0.0265
     23 H           5.6125   -1.3967    1.7839 H       1  UNL1        0.0265
     24 H           3.5055   -1.1253   -0.4726 H       1  UNL1        0.0265
     25 H           3.2521   -1.4453    1.2358 H       1  UNL1        0.0265
     26 H           4.0900    0.7991    1.8785 H       1  UNL1        0.0265
     27 H           4.2468    1.2600    0.0922 H       1  UNL1        0.0265
     28 H           2.2400    2.0389    0.9200 H       1  UNL1        0.0265
     29 H           1.7866    0.3739    1.5393 H       1  UNL1        0.0265
     30 H           1.8665   -0.2762   -1.0711 H       1  UNL1        0.0265
     31 H           2.2724    1.4233   -1.3262 H       1  UNL1        0.0265
     32 H          -0.0053    0.8864   -1.7976 H       1  UNL1        0.0265
     33 H           0.1216    2.1767   -0.5778 H       1  UNL1        0.0265
     34 H          -0.4546   -0.8036   -0.1235 H       1  UNL1        0.0265
     35 H          -0.2065    0.3093    1.2458 H       1  UNL1        0.0265
     36 H          -2.3991    0.5076   -0.8684 H       1  UNL1        0.0267
     37 H          -2.1026    1.6475    0.4553 H       1  UNL1        0.0267
     38 H          -2.3555   -1.3581    1.0992 H       1  UNL1        0.0317
     39 H          -2.3124    0.0385    2.1484 H       1  UNL1        0.0317
     40 H          -4.5423   -0.8209    2.0429 H       1  UNL1        0.0815
     41 H          -4.3443    0.8830    1.6610 H       1  UNL1        0.0815
     42 H          -5.1254   -1.9395   -1.3376 H       1  UNL1        0.0778
     43 H          -3.4746   -1.6365   -0.8281 H       1  UNL1        0.0778
     44 H          -4.2983   -0.5063   -1.9270 H       1  UNL1        0.0778
     45 H          -6.7995   -0.3841    1.1976 H       1  UNL1        0.0778
     46 H          -6.0439   -2.0177    0.7550 H       1  UNL1        0.0778
     47 H          -6.8749   -1.0564   -0.4683 H       1  UNL1        0.0778
     48 H          -4.6240    1.3604   -1.1440 H       1  UNL1        0.0778
     49 H          -5.4924    1.6431    0.4227 H       1  UNL1        0.0778
     50 H          -6.3632    0.9028   -0.9189 H       1  UNL1        0.0778
@<TRIPOS>UNITY_ATOM_ATTR
13 1
charge 1
@<TRIPOS>BOND
     1     1     2    1
     2     2     3    1
     3     3     4    1
     4     4     5    1
     5     5     6    1
     6     6     7    1
     7     7     8    1
     8     8     9    1
     9     9    10    1
    10    10    11    1
    11    11    12    1
    12    12    13    1
    13    13    14    1
    14    13    15    1
    15    13    16    1
    16     1    17    1
    17     1    18    1
    18     1    19    1
    19     2    20    1
    20     2    21    1
    21     3    22    1
    22     3    23    1
    23     4    24    1
    24     4    25    1
    25     5    26    1
    26     5    27    1
    27     6    28    1
    28     6    29    1
    29     7    30    1
    30     7    31    1
    31     8    32    1
    32     8    33    1
    33     9    34    1
    34     9    35    1
    35    10    36    1
    36    10    37    1
    37    11    38    1
    38    11    39    1
    39    12    40    1
    40    12    41    1
    41    14    42    1
    42    14    43    1
    43    14    44    1
    44    15    45    1
    45    15    46    1
    46    15    47    1
    47    16    48    1
    48    16    49    1
    49    16    50    1
