@<TRIPOS>MOLECULE
*****
 43 47 0 0 0
SMALL
GASTEIGER

@<TRIPOS>ATOM
      1 N           5.3816   -0.4230   -1.6049 N.am    1  UNL1       -0.3240
      2 C           4.0363   -0.1964   -1.2175 C.2     1  UNL1        0.2615
      3 O           3.4022    0.7210   -1.7906 O.2     1  UNL1       -0.2687
      4 C           3.4470   -1.0299   -0.1783 C.ar    1  UNL1        0.1470
      5 C           4.0447   -2.0597    0.5168 C.ar    1  UNL1        0.0605
      6 N           3.1305   -2.5284    1.3595 N.ar    1  UNL1       -0.2339
      7 C           1.9736   -1.8647    1.2540 C.ar    1  UNL1        0.1549
      8 C           0.7485   -1.9497    1.8768 C.ar    1  UNL1       -0.0153
      9 C          -0.2426   -1.0653    1.4918 C.ar    1  UNL1       -0.0290
     10 C          -0.0184   -0.1174    0.5083 C.ar    1  UNL1        0.1103
     11 C          -1.0860    0.7942    0.1317 C.ar    1  UNL1        0.0970
     12 C          -2.3175    0.4583   -0.4380 C.ar    1  UNL1        0.0982
     13 C          -2.6733   -0.9244   -0.7290 C.ar    1  UNL1        0.0027
     14 C          -3.7622   -1.4668   -0.1015 C.ar    1  UNL1       -0.0498
     15 C          -4.1157   -2.7681   -0.3613 C.ar    1  UNL1       -0.0258
     16 C          -3.3599   -3.4974   -1.2522 C.ar    1  UNL1        0.1234
     17 F          -3.7211   -4.7992   -1.5062 F       1  UNL1       -0.2055
     18 C          -2.2545   -2.9873   -1.9059 C.ar    1  UNL1       -0.0258
     19 C          -1.9441   -1.6830   -1.6112 C.ar    1  UNL1       -0.0498
     20 N          -2.9970    1.5817   -0.6242 N.ar    1  UNL1       -0.2351
     21 C          -2.2270    2.5951   -0.1894 C.ar    1  UNL1        0.0975
     22 N          -1.0550    2.1314    0.2761 N.ar    1  UNL1       -0.3208
     23 C           0.0446    2.8957    0.8301 C.3     1  UNL1        0.0825
     24 C           0.4346    4.1257    0.0656 C.3     1  UNL1        0.0707
     25 O           0.5483    4.8058    1.2990 O.3     1  UNL1       -0.3755
     26 C          -0.4692    3.9806    1.7844 C.3     1  UNL1        0.0707
     27 N           1.2104   -0.1149   -0.0391 N.ar    1  UNL1       -0.1628
     28 N           2.1748   -0.9392    0.3017 N.ar    1  UNL1       -0.2076
     29 H           6.0436    0.3372   -1.8743 H       1  UNL1        0.1453
     30 H           5.7675   -1.4048   -1.6333 H       1  UNL1        0.1453
     31 H           5.0816   -2.3996    0.3737 H       1  UNL1        0.0854
     32 H           0.5738   -2.6875    2.6424 H       1  UNL1        0.0655
     33 H          -1.2250   -1.0853    1.9463 H       1  UNL1        0.0641
     34 H          -4.3682   -0.8867    0.6111 H       1  UNL1        0.0625
     35 H          -4.9929   -3.2283    0.1347 H       1  UNL1        0.0646
     36 H          -1.6716   -3.5957   -2.6121 H       1  UNL1        0.0646
     37 H          -1.0790   -1.2491   -2.1087 H       1  UNL1        0.0625
     38 H          -2.5372    3.6350   -0.2227 H       1  UNL1        0.1029
     39 H           0.8444    2.2780    1.2275 H       1  UNL1        0.0574
     40 H           1.4239    4.0860   -0.3998 H       1  UNL1        0.0581
     41 H          -0.3711    4.5022   -0.5830 H       1  UNL1        0.0581
     42 H          -0.3264    3.7282    2.8545 H       1  UNL1        0.0581
     43 H          -1.4969    4.2955    1.4974 H       1  UNL1        0.0581
@<TRIPOS>BOND
     1     1     2   am
     2     2     3    2
     3     2     4    1
     4     4     5   ar
     5     5     6   ar
     6     6     7   ar
     7     7     8   ar
     8     8     9   ar
     9     9    10   ar
    10    10    11    1
    11    11    12   ar
    12    12    13    1
    13    13    14   ar
    14    14    15   ar
    15    15    16   ar
    16    16    17    1
    17    16    18   ar
    18    18    19   ar
    19    12    20   ar
    20    20    21   ar
    21    21    22   ar
    22    22    23    1
    23    23    24    1
    24    24    25    1
    25    25    26    1
    26    10    27   ar
    27    27    28   ar
    28    28     4   ar
    29    28     7   ar
    30    22    11   ar
    31    26    23    1
    32    19    13   ar
    33     1    29    1
    34     1    30    1
    35     5    31    1
    36     8    32    1
    37     9    33    1
    38    14    34    1
    39    15    35    1
    40    18    36    1
    41    19    37    1
    42    21    38    1
    43    23    39    1
    44    24    40    1
    45    24    41    1
    46    26    42    1
    47    26    43    1
