@<TRIPOS>MOLECULE
*****
 29 30 0 0 0
SMALL
GASTEIGER

@<TRIPOS>ATOM
      1 N          -4.4234   -2.5239    0.4786 N.pl3   1  UNL1       -0.3274
      2 C          -3.3975   -1.5645    0.2718 C.ar    1  UNL1        0.2142
      3 N          -2.0857   -1.8883    0.3696 N.ar    1  UNL1       -0.2227
      4 C          -1.0940   -0.9986    0.1785 C.ar    1  UNL1        0.0379
      5 C          -1.3812    0.3147   -0.1332 C.ar    1  UNL1        0.0146
      6 C          -0.3451    1.3555   -0.3589 C.3     1  UNL1        0.0023
      7 C           1.0189    0.8324   -0.2133 C.ar    1  UNL1       -0.0407
      8 C           1.6869    0.3133   -1.2999 C.ar    1  UNL1       -0.0424
      9 C           2.9667   -0.1801   -1.1743 C.ar    1  UNL1        0.0398
     10 BR          3.8624   -0.8891   -2.6886 Br      1  UNL1       -0.0484
     11 C           3.5463   -0.1294    0.0902 C.ar    1  UNL1        0.0529
     12 N           4.8617   -0.6330    0.2346 N.pl3   1  UNL1       -0.3563
     13 C           2.8986    0.3839    1.1876 C.ar    1  UNL1        0.0398
     14 BR          3.6900    0.4544    2.9198 Br      1  UNL1       -0.0484
     15 C           1.6185    0.8700    1.0293 C.ar    1  UNL1       -0.0424
     16 C          -2.7162    0.6468   -0.2333 C.ar    1  UNL1        0.1247
     17 N          -3.0348    1.9978   -0.5543 N.pl3   1  UNL1       -0.3428
     18 N          -3.6817   -0.2846   -0.0320 N.ar    1  UNL1       -0.1999
     19 H          -4.7174   -2.7081    1.4557 H       1  UNL1        0.1452
     20 H          -4.8924   -3.0470   -0.2830 H       1  UNL1        0.1452
     21 H          -0.0463   -1.2543    0.2560 H       1  UNL1        0.0834
     22 H          -0.5760    2.1858    0.3501 H       1  UNL1        0.0363
     23 H          -0.4989    1.8106   -1.3801 H       1  UNL1        0.0363
     24 H           1.2440    0.2709   -2.2821 H       1  UNL1        0.0632
     25 H           5.5823   -0.6117   -0.5216 H       1  UNL1        0.1424
     26 H           5.1308   -1.0497    1.1455 H       1  UNL1        0.1424
     27 H           1.0823    1.2824    1.8830 H       1  UNL1        0.0632
     28 H          -2.8930    2.7363    0.1683 H       1  UNL1        0.1437
     29 H          -3.4060    2.3073   -1.4759 H       1  UNL1        0.1437
@<TRIPOS>BOND
     1     1     2    1
     2     2     3   ar
     3     3     4   ar
     4     4     5   ar
     5     5     6    1
     6     6     7    1
     7     7     8   ar
     8     8     9   ar
     9     9    10    1
    10     9    11   ar
    11    11    12    1
    12    11    13   ar
    13    13    14    1
    14    13    15   ar
    15     5    16   ar
    16    16    17    1
    17    16    18   ar
    18    18     2   ar
    19    15     7   ar
    20     1    19    1
    21     1    20    1
    22     4    21    1
    23     6    22    1
    24     6    23    1
    25     8    24    1
    26    12    25    1
    27    12    26    1
    28    15    27    1
    29    17    28    1
    30    17    29    1
