@<TRIPOS>MOLECULE
*****
 68 72 0 0 0
SMALL
GASTEIGER

@<TRIPOS>ATOM
      1 C           5.9981   -4.5458    0.8712 C.3     1  UNL1       -0.0380
      2 C           4.7115   -3.9049    0.5100 C.ar    1  UNL1       -0.0291
      3 C           3.5514   -4.6284    0.5812 C.ar    1  UNL1       -0.0553
      4 C           2.3458   -4.0162    0.2353 C.ar    1  UNL1       -0.0401
      5 C           2.3158   -2.7097   -0.1706 C.ar    1  UNL1        0.0354
      6 N           1.1177   -2.0297   -0.5217 N.am    1  UNL1       -0.2814
      7 C          -0.1918   -2.5367   -0.5132 C.2     1  UNL1        0.2483
      8 O          -0.3711   -3.7291   -0.1611 O.2     1  UNL1       -0.2699
      9 C          -1.3593   -1.7149   -0.9030 C.ar    1  UNL1        0.0370
     10 C          -1.2762   -0.4181   -1.3046 C.ar    1  UNL1       -0.0493
     11 C          -2.4260    0.2953   -1.6563 C.ar    1  UNL1       -0.0566
     12 C          -3.6766   -0.2926   -1.6065 C.ar    1  UNL1       -0.0333
     13 C          -4.8961    0.4483   -1.9782 C.3     1  UNL1        0.0241
     14 N          -5.4228    1.1120   -0.8091 N.3     1  UNL1       -0.2957
     15 C          -5.7391    0.1283    0.1887 C.3     1  UNL1        0.0120
     16 C          -6.5032    0.7847    1.3259 C.3     1  UNL1        0.0114
     17 N          -7.7739    1.2541    0.8642 N.3     1  UNL1       -0.3029
     18 C          -8.2731    2.3526    1.6330 C.3     1  UNL1       -0.0127
     19 C          -7.8489    1.4506   -0.5513 C.3     1  UNL1        0.0114
     20 C          -6.5662    1.9062   -1.1812 C.3     1  UNL1        0.0120
     21 C          -3.7579   -1.6080   -1.1990 C.ar    1  UNL1       -0.0566
     22 C          -2.6079   -2.2884   -0.8580 C.ar    1  UNL1       -0.0493
     23 C           3.5308   -2.0040   -0.2294 C.ar    1  UNL1       -0.0190
     24 C           4.7245   -2.5798    0.1040 C.ar    1  UNL1        0.0383
     25 N           5.9636   -1.8981    0.0799 N.pl3   1  UNL1       -0.2833
     26 C           6.0423   -0.5617   -0.3888 C.ar    1  UNL1        0.2200
     27 N           6.5069   -0.3676   -1.6458 N.ar    1  UNL1       -0.2226
     28 C           6.6181    0.8457   -2.1896 C.ar    1  UNL1        0.0332
     29 C           6.2449    1.9429   -1.4424 C.ar    1  UNL1       -0.0174
     30 C           5.7685    1.7889   -0.1649 C.ar    1  UNL1        0.0775
     31 C           5.3397    2.9097    0.6768 C.ar    1  UNL1        0.0186
     32 C           4.8490    2.6596    1.9493 C.ar    1  UNL1       -0.0497
     33 C           4.4263    3.6701    2.7966 C.ar    1  UNL1       -0.0430
     34 C           4.4978    4.9849    2.3527 C.ar    1  UNL1        0.0276
     35 N           4.9733    5.2136    1.1235 N.ar    1  UNL1       -0.2626
     36 C           5.3900    4.2168    0.2876 C.ar    1  UNL1        0.0367
     37 N           5.6857    0.5171    0.3184 N.ar    1  UNL1       -0.2142
     38 H           6.3756   -4.2160    1.8619 H       1  UNL1        0.0278
     39 H           5.8352   -5.6442    0.9409 H       1  UNL1        0.0278
     40 H           6.7635   -4.3599    0.0852 H       1  UNL1        0.0278
     41 H           3.4966   -5.6586    0.8899 H       1  UNL1        0.0621
     42 H           1.4374   -4.6339    0.3041 H       1  UNL1        0.0636
     43 H           1.1931   -0.9984   -0.8356 H       1  UNL1        0.1551
     44 H          -0.3424    0.0995   -1.3674 H       1  UNL1        0.0625
     45 H          -2.3227    1.3015   -1.9635 H       1  UNL1        0.0621
     46 H          -5.6700   -0.2763   -2.3203 H       1  UNL1        0.0476
     47 H          -4.7156    1.1651   -2.8103 H       1  UNL1        0.0476
     48 H          -4.8053   -0.3025    0.6073 H       1  UNL1        0.0439
     49 H          -6.3907   -0.6463   -0.2428 H       1  UNL1        0.0439
     50 H          -6.7139   -0.0297    2.0734 H       1  UNL1        0.0439
     51 H          -5.8856    1.5276    1.8377 H       1  UNL1        0.0439
     52 H          -9.3101    2.1055    1.9846 H       1  UNL1        0.0391
     53 H          -7.6117    2.4440    2.5396 H       1  UNL1        0.0391
     54 H          -8.3025    3.3006    1.0806 H       1  UNL1        0.0391
     55 H          -8.6203    2.2345   -0.7497 H       1  UNL1        0.0439
     56 H          -8.2061    0.5494   -1.0969 H       1  UNL1        0.0439
     57 H          -6.4325    2.9818   -0.9030 H       1  UNL1        0.0439
     58 H          -6.7124    1.8889   -2.2852 H       1  UNL1        0.0439
     59 H          -4.7137   -2.0934   -1.1519 H       1  UNL1        0.0621
     60 H          -2.7038   -3.3070   -0.5466 H       1  UNL1        0.0625
     61 H           3.4835   -0.9905   -0.5489 H       1  UNL1        0.0655
     62 H           6.8583   -2.3518    0.4055 H       1  UNL1        0.1550
     63 H           6.9935    0.9628   -3.1933 H       1  UNL1        0.0831
     64 H           6.3240    2.9435   -1.8605 H       1  UNL1        0.0654
     65 H           4.8061    1.6246    2.2613 H       1  UNL1        0.0625
     66 H           4.0461    3.4865    3.7814 H       1  UNL1        0.0633
     67 H           4.1661    5.7806    3.0160 H       1  UNL1        0.0829
     68 H           5.7684    4.4641   -0.7016 H       1  UNL1        0.0836
@<TRIPOS>BOND
     1     1     2    1
     2     2     3   ar
     3     3     4   ar
     4     4     5   ar
     5     5     6    1
     6     6     7   am
     7     7     8    2
     8     7     9    1
     9     9    10   ar
    10    10    11   ar
    11    11    12   ar
    12    12    13    1
    13    13    14    1
    14    14    15    1
    15    15    16    1
    16    16    17    1
    17    17    18    1
    18    17    19    1
    19    19    20    1
    20    12    21   ar
    21    21    22   ar
    22     5    23   ar
    23    23    24   ar
    24    24    25    1
    25    25    26    1
    26    26    27   ar
    27    27    28   ar
    28    28    29   ar
    29    29    30   ar
    30    30    31    1
    31    31    32   ar
    32    32    33   ar
    33    33    34   ar
    34    34    35   ar
    35    35    36   ar
    36    30    37   ar
    37    24     2   ar
    38    37    26   ar
    39    22     9   ar
    40    36    31   ar
    41    20    14    1
    42     1    38    1
    43     1    39    1
    44     1    40    1
    45     3    41    1
    46     4    42    1
    47     6    43    1
    48    10    44    1
    49    11    45    1
    50    13    46    1
    51    13    47    1
    52    15    48    1
    53    15    49    1
    54    16    50    1
    55    16    51    1
    56    18    52    1
    57    18    53    1
    58    18    54    1
    59    19    55    1
    60    19    56    1
    61    20    57    1
    62    20    58    1
    63    21    59    1
    64    22    60    1
    65    23    61    1
    66    25    62    1
    67    28    63    1
    68    29    64    1
    69    32    65    1
    70    33    66    1
    71    34    67    1
    72    36    68    1
