
     RDKit          3D

 65 70  0  0  0  0  0  0  0  0999 V2000
   -6.9281    2.4422    0.1956 C   0  0  0  0  0  0  0  0  0  0  0  0
   -7.2839    1.2780    0.9863 N   0  0  0  0  0  0  0  0  0  0  0  0
   -8.6948    1.0634    1.2840 C   0  0  0  0  0  0  0  0  0  0  0  0
   -6.3303    0.3615    1.4739 C   0  0  0  0  0  0  0  0  0  0  0  0
   -6.7493   -0.6250    2.1534 O   0  0  0  0  0  0  0  0  0  0  0  0
   -4.9072    0.4993    1.2324 C   0  0  0  0  0  0  0  0  0  0  0  0
   -3.9901    1.0999    2.1069 C   0  0  0  0  0  0  0  0  0  0  0  0
   -2.7398    1.0208    1.5434 C   0  0  0  0  0  0  0  0  0  0  0  0
   -1.4499    1.3884    1.8676 C   0  0  0  0  0  0  0  0  0  0  0  0
   -0.4152    1.1389    1.0657 N   0  0  0  0  0  0  0  0  0  0  0  0
   -0.5385    0.5165   -0.1127 C   0  0  0  0  0  0  0  0  0  0  0  0
    0.5025    0.1805   -0.9927 N   0  0  0  0  0  0  0  0  0  0  0  0
    1.8651    0.2401   -0.7172 C   0  0  0  0  0  0  0  0  0  0  0  0
    2.3757    0.6367    0.4660 C   0  0  0  0  0  0  0  0  0  0  0  0
    3.7546    0.6434    0.7114 C   0  0  0  0  0  0  0  0  0  0  0  0
    4.6341    0.2363   -0.2706 C   0  0  0  0  0  0  0  0  0  0  0  0
    6.0405    0.2047   -0.0726 N   0  0  0  0  0  0  0  0  0  0  0  0
    6.8174   -0.9049    0.4748 C   0  0  0  0  0  0  0  0  0  0  0  0
    8.0282   -0.9007   -0.4313 C   0  0  2  0  0  0  0  0  0  0  0  0
    9.2405   -1.4708    0.2505 C   0  0  0  0  0  0  0  0  0  0  0  0
    9.7371   -0.4233    1.0873 N   0  0  0  0  0  0  0  0  0  0  0  0
    9.2918    0.8257    0.5585 C   0  0  0  0  0  0  0  0  0  0  0  0
    8.3462    0.5554   -0.5602 C   0  0  2  0  0  0  0  0  0  0  0  0
    7.0084    1.2034   -0.3360 C   0  0  0  0  0  0  0  0  0  0  0  0
    6.7582    2.4593   -0.3716 O   0  0  0  0  0  0  0  0  0  0  0  0
    4.0760   -0.1561   -1.4543 C   0  0  0  0  0  0  0  0  0  0  0  0
    2.7631   -0.1594   -1.6803 N   0  0  0  0  0  0  0  0  0  0  0  0
   -1.8316    0.1481   -0.4405 N   0  0  0  0  0  0  0  0  0  0  0  0
   -2.8874    0.3792    0.3333 C   0  0  0  0  0  0  0  0  0  0  0  0
   -4.2057    0.0755    0.1704 N   0  0  0  0  0  0  0  0  0  0  0  0
   -4.7709   -0.5981   -0.9449 C   0  0  0  0  0  0  0  0  0  0  0  0
   -3.7964   -0.9816   -2.0232 C   0  0  0  0  0  0  0  0  0  0  0  0
   -4.6270   -2.0081   -2.8086 C   0  0  0  0  0  0  0  0  0  0  0  0
   -5.0641   -2.8981   -1.6369 C   0  0  0  0  0  0  0  0  0  0  0  0
   -5.5275   -1.8544   -0.6168 C   0  0  0  0  0  0  0  0  0  0  0  0
   -6.1396    2.2163   -0.5511 H   0  0  0  0  0  0  0  0  0  0  0  0
   -7.8188    2.7581   -0.3910 H   0  0  0  0  0  0  0  0  0  0  0  0
   -6.5812    3.2733    0.8345 H   0  0  0  0  0  0  0  0  0  0  0  0
   -9.1602    0.2992    0.6200 H   0  0  0  0  0  0  0  0  0  0  0  0
   -8.8067    0.8112    2.3658 H   0  0  0  0  0  0  0  0  0  0  0  0
   -9.2577    2.0048    1.1355 H   0  0  0  0  0  0  0  0  0  0  0  0
   -4.2043    1.5542    3.0715 H   0  0  0  0  0  0  0  0  0  0  0  0
   -1.3124    1.9019    2.8254 H   0  0  0  0  0  0  0  0  0  0  0  0
    0.2100   -0.1442   -1.9626 H   0  0  0  0  0  0  0  0  0  0  0  0
    1.7600    0.9732    1.3031 H   0  0  0  0  0  0  0  0  0  0  0  0
    4.0809    0.9688    1.6695 H   0  0  0  0  0  0  0  0  0  0  0  0
    6.2634   -1.8662    0.4495 H   0  0  0  0  0  0  0  0  0  0  0  0
    7.2061   -0.6689    1.5002 H   0  0  0  0  0  0  0  0  0  0  0  0
    7.8225   -1.3893   -1.4061 H   0  0  0  0  0  0  0  0  0  0  0  0
    9.9314   -1.8436   -0.5023 H   0  0  0  0  0  0  0  0  0  0  0  0
    8.8911   -2.3575    0.8262 H   0  0  0  0  0  0  0  0  0  0  0  0
    9.5542   -0.5876    2.0785 H   0  0  0  0  0  0  0  0  0  0  0  0
    8.7936    1.4319    1.3384 H   0  0  0  0  0  0  0  0  0  0  0  0
   10.2107    1.3673    0.1903 H   0  0  0  0  0  0  0  0  0  0  0  0
    8.7477    0.8264   -1.5587 H   0  0  0  0  0  0  0  0  0  0  0  0
    4.7140   -0.4866   -2.2679 H   0  0  0  0  0  0  0  0  0  0  0  0
   -5.5200    0.0868   -1.4444 H   0  0  0  0  0  0  0  0  0  0  0  0
   -2.9253   -1.5595   -1.6574 H   0  0  0  0  0  0  0  0  0  0  0  0
   -3.5276   -0.1568   -2.7068 H   0  0  0  0  0  0  0  0  0  0  0  0
   -5.5177   -1.5701   -3.2645 H   0  0  0  0  0  0  0  0  0  0  0  0
   -3.9482   -2.5360   -3.4843 H   0  0  0  0  0  0  0  0  0  0  0  0
   -4.2235   -3.4814   -1.2329 H   0  0  0  0  0  0  0  0  0  0  0  0
   -5.9122   -3.5347   -1.8999 H   0  0  0  0  0  0  0  0  0  0  0  0
   -6.6291   -1.7137   -0.6816 H   0  0  0  0  0  0  0  0  0  0  0  0
   -5.2029   -2.1938    0.3887 H   0  0  0  0  0  0  0  0  0  0  0  0
  1  2  1  0
  2  3  1  0
  2  4  1  0
  4  5  2  0
  4  6  1  0
  6  7  2  0
  7  8  1  0
  8  9  2  0
  9 10  1  0
 10 11  2  0
 11 12  1  0
 12 13  1  0
 13 14  2  0
 14 15  1  0
 15 16  2  0
 16 17  1  0
 17 18  1  0
 18 19  1  0
 19 20  1  0
 20 21  1  0
 21 22  1  0
 22 23  1  0
 23 24  1  0
 24 25  2  0
 16 26  1  0
 26 27  2  0
 11 28  1  0
 28 29  2  0
 29 30  1  0
 30 31  1  0
 31 32  1  0
 32 33  1  0
 33 34  1  0
 34 35  1  0
 30  6  1  0
 35 31  1  0
 29  8  1  0
 27 13  1  0
 24 17  1  0
 23 19  1  0
  1 36  1  0
  1 37  1  0
  1 38  1  0
  3 39  1  0
  3 40  1  0
  3 41  1  0
  7 42  1  0
  9 43  1  0
 12 44  1  0
 14 45  1  0
 15 46  1  0
 18 47  1  0
 18 48  1  0
 19 49  1  6
 20 50  1  0
 20 51  1  0
 21 52  1  0
 22 53  1  0
 22 54  1  0
 23 55  1  6
 26 56  1  0
 31 57  1  0
 32 58  1  0
 32 59  1  0
 33 60  1  0
 33 61  1  0
 34 62  1  0
 34 63  1  0
 35 64  1  0
 35 65  1  0
M  END
$$$$
