@<TRIPOS>MOLECULE
*****
 65 70 0 0 0
SMALL
GASTEIGER

@<TRIPOS>ATOM
      1 C          -6.9281    2.4422    0.1956 C.3     1  UNL1        0.0032
      2 N          -7.2839    1.2780    0.9863 N.am    1  UNL1       -0.3024
      3 C          -8.6948    1.0634    1.2840 C.3     1  UNL1        0.0032
      4 C          -6.3303    0.3615    1.4739 C.2     1  UNL1        0.2627
      5 O          -6.7493   -0.6250    2.1534 O.2     1  UNL1       -0.2684
      6 C          -4.9072    0.4993    1.2324 C.ar    1  UNL1        0.1070
      7 C          -3.9901    1.0999    2.1069 C.ar    1  UNL1       -0.0209
      8 C          -2.7398    1.0208    1.5434 C.ar    1  UNL1        0.0378
      9 C          -1.4499    1.3884    1.8676 C.ar    1  UNL1        0.0419
     10 N          -0.4152    1.1389    1.0657 N.ar    1  UNL1       -0.2219
     11 C          -0.5385    0.5165   -0.1127 C.ar    1  UNL1        0.2224
     12 N           0.5025    0.1805   -0.9927 N.pl3   1  UNL1       -0.2684
     13 C           1.8651    0.2401   -0.7172 C.ar    1  UNL1        0.1251
     14 C           2.3757    0.6367    0.4660 C.ar    1  UNL1       -0.0197
     15 C           3.7546    0.6434    0.7114 C.ar    1  UNL1       -0.0355
     16 C           4.6341    0.2363   -0.2706 C.ar    1  UNL1        0.0545
     17 N           6.0405    0.2047   -0.0726 N.am    1  UNL1       -0.2694
     18 C           6.8174   -0.9049    0.4748 C.3     1  UNL1        0.0246
     19 C           8.0282   -0.9007   -0.4313 C.3     1  UNL1       -0.0000
     20 C           9.2405   -1.4708    0.2505 C.3     1  UNL1        0.0009
     21 N           9.7371   -0.4233    1.0873 N.3     1  UNL1       -0.3149
     22 C           9.2918    0.8257    0.5585 C.3     1  UNL1        0.0074
     23 C           8.3462    0.5554   -0.5602 C.3     1  UNL1        0.0539
     24 C           7.0084    1.2034   -0.3360 C.2     1  UNL1        0.2245
     25 O           6.7582    2.4593   -0.3716 O.2     1  UNL1       -0.2749
     26 C           4.0760   -0.1561   -1.4543 C.ar    1  UNL1        0.0511
     27 N           2.7631   -0.1594   -1.6803 N.ar    1  UNL1       -0.2383
     28 N          -1.8316    0.1481   -0.4405 N.ar    1  UNL1       -0.1962
     29 C          -2.8874    0.3792    0.3333 C.ar    1  UNL1        0.1466
     30 N          -4.2057    0.0755    0.1704 N.ar    1  UNL1       -0.3180
     31 C          -4.7709   -0.5981   -0.9449 C.3     1  UNL1        0.0366
     32 C          -3.7964   -0.9816   -2.0232 C.3     1  UNL1       -0.0320
     33 C          -4.6270   -2.0081   -2.8086 C.3     1  UNL1       -0.0511
     34 C          -5.0641   -2.8981   -1.6369 C.3     1  UNL1       -0.0511
     35 C          -5.5275   -1.8544   -0.6168 C.3     1  UNL1       -0.0320
     36 H          -6.1396    2.2163   -0.5511 H       1  UNL1        0.0428
     37 H          -7.8188    2.7581   -0.3910 H       1  UNL1        0.0428
     38 H          -6.5812    3.2733    0.8345 H       1  UNL1        0.0428
     39 H          -9.1602    0.2992    0.6200 H       1  UNL1        0.0428
     40 H          -8.8067    0.8112    2.3658 H       1  UNL1        0.0428
     41 H          -9.2577    2.0048    1.1355 H       1  UNL1        0.0428
     42 H          -4.2043    1.5542    3.0715 H       1  UNL1        0.0647
     43 H          -1.3124    1.9019    2.8254 H       1  UNL1        0.0838
     44 H           0.2100   -0.1442   -1.9626 H       1  UNL1        0.1564
     45 H           1.7600    0.9732    1.3031 H       1  UNL1        0.0652
     46 H           4.0809    0.9688    1.6695 H       1  UNL1        0.0638
     47 H           6.2634   -1.8662    0.4495 H       1  UNL1        0.0472
     48 H           7.2061   -0.6689    1.5002 H       1  UNL1        0.0472
     49 H           7.8225   -1.3893   -1.4061 H       1  UNL1        0.0336
     50 H           9.9314   -1.8436   -0.5023 H       1  UNL1        0.0427
     51 H           8.8911   -2.3575    0.8262 H       1  UNL1        0.0427
     52 H           9.5542   -0.5876    2.0785 H       1  UNL1        0.1220
     53 H           8.7936    1.4319    1.3384 H       1  UNL1        0.0431
     54 H          10.2107    1.3673    0.1903 H       1  UNL1        0.0431
     55 H           8.7477    0.8264   -1.5587 H       1  UNL1        0.0410
     56 H           4.7140   -0.4866   -2.2679 H       1  UNL1        0.0849
     57 H          -5.5200    0.0868   -1.4444 H       1  UNL1        0.0528
     58 H          -2.9253   -1.5595   -1.6574 H       1  UNL1        0.0285
     59 H          -3.5276   -0.1568   -2.7068 H       1  UNL1        0.0285
     60 H          -5.5177   -1.5701   -3.2645 H       1  UNL1        0.0266
     61 H          -3.9482   -2.5360   -3.4843 H       1  UNL1        0.0266
     62 H          -4.2235   -3.4814   -1.2329 H       1  UNL1        0.0266
     63 H          -5.9122   -3.5347   -1.8999 H       1  UNL1        0.0266
     64 H          -6.6291   -1.7137   -0.6816 H       1  UNL1        0.0285
     65 H          -5.2029   -2.1938    0.3887 H       1  UNL1        0.0285
@<TRIPOS>BOND
     1     1     2    1
     2     2     3    1
     3     2     4   am
     4     4     5    2
     5     4     6    1
     6     6     7   ar
     7     7     8   ar
     8     8     9   ar
     9     9    10   ar
    10    10    11   ar
    11    11    12    1
    12    12    13    1
    13    13    14   ar
    14    14    15   ar
    15    15    16   ar
    16    16    17    1
    17    17    18    1
    18    18    19    1
    19    19    20    1
    20    20    21    1
    21    21    22    1
    22    22    23    1
    23    23    24    1
    24    24    25    2
    25    16    26   ar
    26    26    27   ar
    27    11    28   ar
    28    28    29   ar
    29    29    30   ar
    30    30    31    1
    31    31    32    1
    32    32    33    1
    33    33    34    1
    34    34    35    1
    35    30     6   ar
    36    35    31    1
    37    29     8   ar
    38    27    13   ar
    39    24    17   am
    40    23    19    1
    41     1    36    1
    42     1    37    1
    43     1    38    1
    44     3    39    1
    45     3    40    1
    46     3    41    1
    47     7    42    1
    48     9    43    1
    49    12    44    1
    50    14    45    1
    51    15    46    1
    52    18    47    1
    53    18    48    1
    54    19    49    1
    55    20    50    1
    56    20    51    1
    57    21    52    1
    58    22    53    1
    59    22    54    1
    60    23    55    1
    61    26    56    1
    62    31    57    1
    63    32    58    1
    64    32    59    1
    65    33    60    1
    66    33    61    1
    67    34    62    1
    68    34    63    1
    69    35    64    1
    70    35    65    1
