@<TRIPOS>MOLECULE
*****
 40 41 0 0 0
SMALL
GASTEIGER

@<TRIPOS>ATOM
      1 C          -0.9278   -2.7142   -1.4193 C.3     1  UNL1        0.0322
      2 N          -1.4365   -1.4381   -0.9859 N.ar    1  UNL1       -0.2532
      3 N          -2.6178   -1.2441   -0.4723 N.ar    1  UNL1       -0.1743
      4 C          -2.8069    0.0409   -0.1668 C.ar    1  UNL1        0.0702
      5 C          -1.6433    0.6839   -0.5243 C.ar    1  UNL1        0.0017
      6 C          -0.7651   -0.2568   -1.0478 C.ar    1  UNL1        0.1243
      7 N           0.5473   -0.0020   -1.5347 N.am    1  UNL1       -0.2541
      8 C           1.6764   -0.0667   -0.6811 C.2     1  UNL1        0.3092
      9 O           1.4429   -0.3562    0.4995 O.2     1  UNL1       -0.2521
     10 N           2.9905    0.1710   -1.0906 N.am    1  UNL1       -0.2692
     11 C           4.1896    0.1374   -0.3413 C.ar    1  UNL1        0.0349
     12 C           4.3251   -0.1460    0.9960 C.ar    1  UNL1       -0.0391
     13 C           5.5210   -0.1652    1.6792 C.ar    1  UNL1       -0.0416
     14 C           6.6890    0.1154    1.0047 C.ar    1  UNL1        0.0411
     15 CL          8.2587    0.1221    1.7587 Cl      1  UNL1       -0.0835
     16 C           6.5843    0.4010   -0.3270 C.ar    1  UNL1       -0.0416
     17 C           5.3839    0.4102   -0.9673 C.ar    1  UNL1       -0.0391
     18 C          -4.0332    0.6006    0.4301 C.3     1  UNL1        0.0063
     19 C          -3.9592    2.0818    0.6638 C.3     1  UNL1       -0.0546
     20 C          -5.2374    0.3206   -0.4750 C.3     1  UNL1       -0.0546
     21 C          -4.3215   -0.0499    1.7663 C.3     1  UNL1       -0.0546
     22 H          -1.4861   -3.1017   -2.2897 H       1  UNL1        0.0473
     23 H           0.1491   -2.6328   -1.6926 H       1  UNL1        0.0473
     24 H          -1.0401   -3.4603   -0.5877 H       1  UNL1        0.0473
     25 H          -1.4574    1.7251   -0.4143 H       1  UNL1        0.0671
     26 H           0.6781    0.2375   -2.5424 H       1  UNL1        0.1578
     27 H           3.0494    0.4052   -2.1104 H       1  UNL1        0.1564
     28 H           3.4440   -0.3729    1.5727 H       1  UNL1        0.0636
     29 H           5.5581   -0.3932    2.7190 H       1  UNL1        0.0633
     30 H           7.4769    0.6260   -0.8895 H       1  UNL1        0.0633
     31 H           5.3774    0.6495   -2.0428 H       1  UNL1        0.0636
     32 H          -4.8695    2.3668    1.2309 H       1  UNL1        0.0239
     33 H          -3.0767    2.3268    1.2680 H       1  UNL1        0.0239
     34 H          -3.9732    2.6456   -0.3005 H       1  UNL1        0.0239
     35 H          -4.9652    0.7418   -1.4811 H       1  UNL1        0.0239
     36 H          -6.0975    0.8748   -0.0508 H       1  UNL1        0.0239
     37 H          -5.4209   -0.7750   -0.5494 H       1  UNL1        0.0239
     38 H          -4.9190    0.6583    2.3792 H       1  UNL1        0.0239
     39 H          -3.3592   -0.1966    2.2881 H       1  UNL1        0.0239
     40 H          -4.9281   -0.9706    1.6648 H       1  UNL1        0.0239
@<TRIPOS>BOND
     1     1     2    1
     2     2     3   ar
     3     3     4   ar
     4     4     5   ar
     5     5     6   ar
     6     6     7    1
     7     7     8   am
     8     8     9    2
     9     8    10   am
    10    10    11    1
    11    11    12   ar
    12    12    13   ar
    13    13    14   ar
    14    14    15    1
    15    14    16   ar
    16    16    17   ar
    17     4    18    1
    18    18    19    1
    19    18    20    1
    20    18    21    1
    21     6     2   ar
    22    17    11   ar
    23     1    22    1
    24     1    23    1
    25     1    24    1
    26     5    25    1
    27     7    26    1
    28    10    27    1
    29    12    28    1
    30    13    29    1
    31    16    30    1
    32    17    31    1
    33    19    32    1
    34    19    33    1
    35    19    34    1
    36    20    35    1
    37    20    36    1
    38    20    37    1
    39    21    38    1
    40    21    39    1
    41    21    40    1
