@<TRIPOS>MOLECULE
*****
 36 37 0 0 0
SMALL
GASTEIGER

@<TRIPOS>ATOM
      1 C           6.7916   -1.4041    0.8210 C.3     1  UNL1        0.0788
      2 O           6.2023   -0.2184    0.3187 O.3     1  UNL1       -0.4951
      3 C           4.8310   -0.0211    0.2517 C.ar    1  UNL1        0.1201
      4 C           4.4835    1.2176   -0.2765 C.ar    1  UNL1       -0.0197
      5 C           3.1314    1.5369   -0.3962 C.ar    1  UNL1       -0.0538
      6 C           2.1888    0.6336    0.0044 C.ar    1  UNL1       -0.0317
      7 C           0.7691    1.0524   -0.1573 C.3     1  UNL1        0.0425
      8 N           0.2505    0.6771   -1.4324 N.3     1  UNL1       -0.1852
      9 S          -1.3858    1.1211   -1.7089 S.O2    1  UNL1        0.0650
     10 O          -1.5233    2.6210   -1.7859 O.2     1  UNL1       -0.1525
     11 O          -1.7407    0.6266   -3.1074 O.2     1  UNL1       -0.1525
     12 C          -2.4776    0.3912   -0.6244 C.ar    1  UNL1        0.1442
     13 C          -2.5629   -0.4701    0.4012 C.ar    1  UNL1       -0.0261
     14 C          -3.7461   -0.7796    0.9977 C.ar    1  UNL1       -0.0262
     15 C          -4.8785   -0.1388    0.4708 C.ar    1  UNL1        0.1440
     16 S          -4.2367    0.8953   -0.8676 S.2     1  UNL1       -0.0487
     17 S          -6.5913   -0.2139    0.8974 S.O2    1  UNL1        0.0623
     18 N          -7.5207   -0.7654   -0.4500 N.3     1  UNL1       -0.2030
     19 O          -6.7754   -1.2161    1.9854 O.2     1  UNL1       -0.1527
     20 O          -7.0869    1.1439    1.2971 O.2     1  UNL1       -0.1527
     21 C           2.5102   -0.6006    0.5310 C.ar    1  UNL1       -0.0538
     22 C           3.8352   -0.8830    0.6352 C.ar    1  UNL1       -0.0197
     23 H           6.1299   -1.8222    1.6039 H       1  UNL1        0.0660
     24 H           7.7928   -1.1848    1.2896 H       1  UNL1        0.0660
     25 H           6.9093   -2.1884    0.0332 H       1  UNL1        0.0660
     26 H           5.1964    1.9636   -0.6065 H       1  UNL1        0.0654
     27 H           2.8581    2.5044   -0.8088 H       1  UNL1        0.0622
     28 H           0.2133    0.5337    0.6405 H       1  UNL1        0.0490
     29 H           0.6417    2.1399    0.0587 H       1  UNL1        0.0490
     30 H           0.3770   -0.3341   -1.6528 H       1  UNL1        0.1484
     31 H          -1.6314   -0.9091    0.7214 H       1  UNL1        0.0643
     32 H          -3.8807   -1.4603    1.8220 H       1  UNL1        0.0643
     33 H          -6.9440   -1.3204   -1.0910 H       1  UNL1        0.1443
     34 H          -8.0550    0.0018   -0.9075 H       1  UNL1        0.1443
     35 H           1.7542   -1.3051    0.8437 H       1  UNL1        0.0622
     36 H           4.1706   -1.8243    1.0357 H       1  UNL1        0.0654
@<TRIPOS>BOND
     1     1     2    1
     2     2     3    1
     3     3     4   ar
     4     4     5   ar
     5     5     6   ar
     6     6     7    1
     7     7     8    1
     8     8     9    1
     9     9    10    2
    10     9    11    2
    11     9    12    1
    12    12    13   ar
    13    13    14   ar
    14    14    15   ar
    15    15    16   ar
    16    15    17    1
    17    17    18    1
    18    17    19    2
    19    17    20    2
    20     6    21   ar
    21    21    22   ar
    22    22     3   ar
    23    16    12   ar
    24     1    23    1
    25     1    24    1
    26     1    25    1
    27     4    26    1
    28     5    27    1
    29     7    28    1
    30     7    29    1
    31     8    30    1
    32    13    31    1
    33    14    32    1
    34    18    33    1
    35    18    34    1
    36    21    35    1
    37    22    36    1
