@<TRIPOS>MOLECULE
*****
 57 60 0 0 0
SMALL
GASTEIGER

@<TRIPOS>ATOM
      1 C          -7.1867    0.2693   -1.7374 C.3     1  UNL1       -0.0390
      2 C          -7.0571   -0.1917   -0.3350 C.ar    1  UNL1       -0.0383
      3 C          -8.1943   -0.6609    0.3327 C.ar    1  UNL1       -0.0581
      4 C          -8.1299   -1.1077    1.6548 C.ar    1  UNL1       -0.0615
      5 C          -6.9349   -1.0970    2.3392 C.ar    1  UNL1       -0.0610
      6 C          -5.8524   -0.6245    1.6295 C.ar    1  UNL1       -0.0494
      7 C          -5.8468   -0.1718    0.3323 C.ar    1  UNL1        0.0399
      8 C          -4.6377    0.3102   -0.3249 C.2     1  UNL1        0.2485
      9 O          -4.6633    1.1235   -1.2746 O.2     1  UNL1       -0.2698
     10 N          -3.4175   -0.2103    0.1902 N.am    1  UNL1       -0.2815
     11 C          -2.0552    0.0007   -0.1620 C.ar    1  UNL1        0.0340
     12 C          -1.3124    1.0181    0.4501 C.ar    1  UNL1       -0.0368
     13 C           0.0140    1.1493    0.0383 C.ar    1  UNL1       -0.0366
     14 C           0.7992    2.2348    0.6808 C.3     1  UNL1       -0.0389
     15 C           0.6506    0.3750   -0.9060 C.ar    1  UNL1        0.0402
     16 C          -0.1337   -0.6195   -1.4813 C.ar    1  UNL1       -0.0476
     17 C          -1.4707   -0.8065   -1.1154 C.ar    1  UNL1       -0.0397
     18 C           2.0535    0.6107   -1.2360 C.2     1  UNL1        0.2511
     19 O           1.7548    1.4351   -2.1207 O.2     1  UNL1       -0.2696
     20 N           3.0639   -0.0842   -0.5296 N.am    1  UNL1       -0.2671
     21 C           2.5604   -0.9755    0.5153 C.3     1  UNL1        0.0202
     22 C           3.7025   -1.3821    1.4361 C.3     1  UNL1       -0.0341
     23 C           4.3710   -0.1917    2.0415 C.3     1  UNL1       -0.0212
     24 C           5.7174   -0.0152    1.3760 C.3     1  UNL1        0.0820
     25 O           6.4944   -1.1503    1.6093 O.3     1  UNL1       -0.3871
     26 C           5.5126    0.1886   -0.0785 C.ar    1  UNL1        0.0036
     27 C           4.4099    0.1636   -0.9030 C.ar    1  UNL1        0.0423
     28 C           4.4512    0.3871   -2.2767 C.ar    1  UNL1       -0.0385
     29 C           5.7051    0.6537   -2.8391 C.ar    1  UNL1       -0.0416
     30 C           6.8188    0.6771   -1.9934 C.ar    1  UNL1        0.0414
     31 CL          8.3242    1.0196   -2.8130 Cl      1  UNL1       -0.0835
     32 C           6.7613    0.4534   -0.6345 C.ar    1  UNL1       -0.0360
     33 H          -7.3722    1.3632   -1.7548 H       1  UNL1        0.0278
     34 H          -8.0900   -0.2332   -2.1723 H       1  UNL1        0.0278
     35 H          -6.3511   -0.0442   -2.3896 H       1  UNL1        0.0278
     36 H          -9.1439   -0.6741   -0.1965 H       1  UNL1        0.0620
     37 H          -9.0129   -1.4728    2.1756 H       1  UNL1        0.0618
     38 H          -6.8247   -1.4323    3.3688 H       1  UNL1        0.0618
     39 H          -4.9001   -0.6153    2.1725 H       1  UNL1        0.0625
     40 H          -3.2748   -0.8873    0.9714 H       1  UNL1        0.1551
     41 H          -1.7406    1.6652    1.1989 H       1  UNL1        0.0639
     42 H           0.4099    3.2258    0.3342 H       1  UNL1        0.0278
     43 H           0.7120    2.1935    1.7778 H       1  UNL1        0.0278
     44 H           1.8576    2.2209    0.3593 H       1  UNL1        0.0278
     45 H           0.3265   -1.2551   -2.2322 H       1  UNL1        0.0626
     46 H          -1.9747   -1.6062   -1.6283 H       1  UNL1        0.0636
     47 H           1.8394   -0.4222    1.1495 H       1  UNL1        0.0469
     48 H           2.1551   -1.9100    0.1055 H       1  UNL1        0.0469
     49 H           3.2738   -2.0536    2.1912 H       1  UNL1        0.0281
     50 H           4.3798   -2.0170    0.8105 H       1  UNL1        0.0281
     51 H           4.4559   -0.2472    3.1452 H       1  UNL1        0.0294
     52 H           3.7621    0.7167    1.7693 H       1  UNL1        0.0294
     53 H           6.2550    0.8813    1.7812 H       1  UNL1        0.0644
     54 H           5.9828   -1.8576    2.0608 H       1  UNL1        0.2102
     55 H           3.5523    0.3517   -2.8715 H       1  UNL1        0.0637
     56 H           5.7519    0.8275   -3.8918 H       1  UNL1        0.0633
     57 H           7.6987    0.5012   -0.0999 H       1  UNL1        0.0636
@<TRIPOS>BOND
     1     1     2    1
     2     2     3   ar
     3     3     4   ar
     4     4     5   ar
     5     5     6   ar
     6     6     7   ar
     7     7     8    1
     8     8     9    2
     9     8    10   am
    10    10    11    1
    11    11    12   ar
    12    12    13   ar
    13    13    14    1
    14    13    15   ar
    15    15    16   ar
    16    16    17   ar
    17    15    18    1
    18    18    19    2
    19    18    20   am
    20    20    21    1
    21    21    22    1
    22    22    23    1
    23    23    24    1
    24    24    25    1
    25    24    26    1
    26    26    27   ar
    27    27    28   ar
    28    28    29   ar
    29    29    30   ar
    30    30    31    1
    31    30    32   ar
    32     7     2   ar
    33    17    11   ar
    34    27    20    1
    35    32    26   ar
    36     1    33    1
    37     1    34    1
    38     1    35    1
    39     3    36    1
    40     4    37    1
    41     5    38    1
    42     6    39    1
    43    10    40    1
    44    12    41    1
    45    14    42    1
    46    14    43    1
    47    14    44    1
    48    16    45    1
    49    17    46    1
    50    21    47    1
    51    21    48    1
    52    22    49    1
    53    22    50    1
    54    23    51    1
    55    23    52    1
    56    24    53    1
    57    25    54    1
    58    28    55    1
    59    29    56    1
    60    32    57    1
