
     RDKit          3D

 57 60  0  0  0  0  0  0  0  0999 V2000
   -7.1867    0.2693   -1.7374 C   0  0  0  0  0  0  0  0  0  0  0  0
   -7.0571   -0.1917   -0.3350 C   0  0  0  0  0  0  0  0  0  0  0  0
   -8.1943   -0.6609    0.3327 C   0  0  0  0  0  0  0  0  0  0  0  0
   -8.1299   -1.1077    1.6548 C   0  0  0  0  0  0  0  0  0  0  0  0
   -6.9349   -1.0970    2.3392 C   0  0  0  0  0  0  0  0  0  0  0  0
   -5.8524   -0.6245    1.6295 C   0  0  0  0  0  0  0  0  0  0  0  0
   -5.8468   -0.1718    0.3323 C   0  0  0  0  0  0  0  0  0  0  0  0
   -4.6377    0.3102   -0.3249 C   0  0  0  0  0  0  0  0  0  0  0  0
   -4.6633    1.1235   -1.2746 O   0  0  0  0  0  0  0  0  0  0  0  0
   -3.4175   -0.2103    0.1902 N   0  0  0  0  0  0  0  0  0  0  0  0
   -2.0552    0.0007   -0.1620 C   0  0  0  0  0  0  0  0  0  0  0  0
   -1.3124    1.0181    0.4501 C   0  0  0  0  0  0  0  0  0  0  0  0
    0.0140    1.1493    0.0383 C   0  0  0  0  0  0  0  0  0  0  0  0
    0.7992    2.2348    0.6808 C   0  0  0  0  0  0  0  0  0  0  0  0
    0.6506    0.3750   -0.9060 C   0  0  0  0  0  0  0  0  0  0  0  0
   -0.1337   -0.6195   -1.4813 C   0  0  0  0  0  0  0  0  0  0  0  0
   -1.4707   -0.8065   -1.1154 C   0  0  0  0  0  0  0  0  0  0  0  0
    2.0535    0.6107   -1.2360 C   0  0  0  0  0  0  0  0  0  0  0  0
    1.7548    1.4351   -2.1207 O   0  0  0  0  0  0  0  0  0  0  0  0
    3.0639   -0.0842   -0.5296 N   0  0  0  0  0  0  0  0  0  0  0  0
    2.5604   -0.9755    0.5153 C   0  0  0  0  0  0  0  0  0  0  0  0
    3.7025   -1.3821    1.4361 C   0  0  0  0  0  0  0  0  0  0  0  0
    4.3710   -0.1917    2.0415 C   0  0  0  0  0  0  0  0  0  0  0  0
    5.7174   -0.0152    1.3760 C   0  0  1  0  0  0  0  0  0  0  0  0
    6.4944   -1.1503    1.6093 O   0  0  0  0  0  0  0  0  0  0  0  0
    5.5126    0.1886   -0.0785 C   0  0  0  0  0  0  0  0  0  0  0  0
    4.4099    0.1636   -0.9030 C   0  0  0  0  0  0  0  0  0  0  0  0
    4.4512    0.3871   -2.2767 C   0  0  0  0  0  0  0  0  0  0  0  0
    5.7051    0.6537   -2.8391 C   0  0  0  0  0  0  0  0  0  0  0  0
    6.8188    0.6771   -1.9934 C   0  0  0  0  0  0  0  0  0  0  0  0
    8.3242    1.0196   -2.8130 Cl  0  0  0  0  0  0  0  0  0  0  0  0
    6.7613    0.4534   -0.6345 C   0  0  0  0  0  0  0  0  0  0  0  0
   -7.3722    1.3632   -1.7548 H   0  0  0  0  0  0  0  0  0  0  0  0
   -8.0900   -0.2332   -2.1723 H   0  0  0  0  0  0  0  0  0  0  0  0
   -6.3511   -0.0442   -2.3896 H   0  0  0  0  0  0  0  0  0  0  0  0
   -9.1439   -0.6741   -0.1965 H   0  0  0  0  0  0  0  0  0  0  0  0
   -9.0129   -1.4728    2.1756 H   0  0  0  0  0  0  0  0  0  0  0  0
   -6.8247   -1.4323    3.3688 H   0  0  0  0  0  0  0  0  0  0  0  0
   -4.9001   -0.6153    2.1725 H   0  0  0  0  0  0  0  0  0  0  0  0
   -3.2748   -0.8873    0.9714 H   0  0  0  0  0  0  0  0  0  0  0  0
   -1.7406    1.6652    1.1989 H   0  0  0  0  0  0  0  0  0  0  0  0
    0.4099    3.2258    0.3342 H   0  0  0  0  0  0  0  0  0  0  0  0
    0.7120    2.1935    1.7778 H   0  0  0  0  0  0  0  0  0  0  0  0
    1.8576    2.2209    0.3593 H   0  0  0  0  0  0  0  0  0  0  0  0
    0.3265   -1.2551   -2.2322 H   0  0  0  0  0  0  0  0  0  0  0  0
   -1.9747   -1.6062   -1.6283 H   0  0  0  0  0  0  0  0  0  0  0  0
    1.8394   -0.4222    1.1495 H   0  0  0  0  0  0  0  0  0  0  0  0
    2.1551   -1.9100    0.1055 H   0  0  0  0  0  0  0  0  0  0  0  0
    3.2738   -2.0536    2.1912 H   0  0  0  0  0  0  0  0  0  0  0  0
    4.3798   -2.0170    0.8105 H   0  0  0  0  0  0  0  0  0  0  0  0
    4.4559   -0.2472    3.1452 H   0  0  0  0  0  0  0  0  0  0  0  0
    3.7621    0.7167    1.7693 H   0  0  0  0  0  0  0  0  0  0  0  0
    6.2550    0.8813    1.7812 H   0  0  0  0  0  0  0  0  0  0  0  0
    5.9828   -1.8576    2.0608 H   0  0  0  0  0  0  0  0  0  0  0  0
    3.5523    0.3517   -2.8715 H   0  0  0  0  0  0  0  0  0  0  0  0
    5.7519    0.8275   -3.8918 H   0  0  0  0  0  0  0  0  0  0  0  0
    7.6987    0.5012   -0.0999 H   0  0  0  0  0  0  0  0  0  0  0  0
  1  2  1  0
  2  3  2  0
  3  4  1  0
  4  5  2  0
  5  6  1  0
  6  7  2  0
  7  8  1  0
  8  9  2  0
  8 10  1  0
 10 11  1  0
 11 12  2  0
 12 13  1  0
 13 14  1  0
 13 15  2  0
 15 16  1  0
 16 17  2  0
 15 18  1  0
 18 19  2  0
 18 20  1  0
 20 21  1  0
 21 22  1  0
 22 23  1  0
 23 24  1  0
 24 25  1  0
 24 26  1  0
 26 27  2  0
 27 28  1  0
 28 29  2  0
 29 30  1  0
 30 31  1  0
 30 32  2  0
  7  2  1  0
 17 11  1  0
 27 20  1  0
 32 26  1  0
  1 33  1  0
  1 34  1  0
  1 35  1  0
  3 36  1  0
  4 37  1  0
  5 38  1  0
  6 39  1  0
 10 40  1  0
 12 41  1  0
 14 42  1  0
 14 43  1  0
 14 44  1  0
 16 45  1  0
 17 46  1  0
 21 47  1  0
 21 48  1  0
 22 49  1  0
 22 50  1  0
 23 51  1  0
 23 52  1  0
 24 53  1  1
 25 54  1  0
 28 55  1  0
 29 56  1  0
 32 57  1  0
M  END
$$$$
