
     RDKit          3D

 62 63  0  0  0  0  0  0  0  0999 V2000
   -4.2067   -3.2607   -1.3120 C   0  0  0  0  0  0  0  0  0  0  0  0
   -4.5133   -1.8969   -1.0207 N   0  0  0  0  0  0  0  0  0  0  0  0
   -5.8595   -1.8245   -0.4907 C   0  0  0  0  0  0  0  0  0  0  0  0
   -3.6194   -1.2644   -0.1431 C   0  0  0  0  0  0  0  0  0  0  0  0
   -2.2339   -0.9532   -0.6443 C   0  0  0  0  0  0  0  0  0  0  0  0
   -1.4159   -2.1132   -1.0602 C   0  0  0  0  0  0  0  0  0  0  0  0
   -2.4663   -0.1355   -1.9319 C   0  0  0  0  0  0  0  0  0  0  0  0
   -1.5963   -0.1135    0.4427 C   0  0  0  0  0  0  0  0  0  0  0  0
   -0.2715    0.3117    0.2130 N   0  0  0  0  0  0  0  0  0  0  0  0
    0.1432    1.4492   -0.3470 C   0  0  0  0  0  0  0  0  0  0  0  0
   -0.5679    2.6282   -0.8243 C   0  0  0  0  0  0  0  0  0  0  0  0
   -0.7328    3.7309    0.2038 C   0  0  0  0  0  0  0  0  0  0  0  0
   -1.4937    4.9099   -0.4209 C   0  0  0  0  0  0  0  0  0  0  0  0
   -1.5640    3.3093    1.3901 C   0  0  0  0  0  0  0  0  0  0  0  0
    0.6121    4.2931    0.6251 C   0  0  0  0  0  0  0  0  0  0  0  0
    1.5204    1.4032   -0.3912 N   0  0  0  0  0  0  0  0  0  0  0  0
    1.9624    0.2674    0.1294 C   0  0  0  0  0  0  0  0  0  0  0  0
    3.2607   -0.2019    0.2962 C   0  0  0  0  0  0  0  0  0  0  0  0
    3.4175   -1.4353    0.8825 C   0  0  0  0  0  0  0  0  0  0  0  0
    4.7315   -2.0057    1.0962 C   0  0  0  0  0  0  0  0  0  0  0  0
    5.8433   -1.4320    0.7686 C   0  0  0  0  0  0  0  0  0  0  0  0
    7.1431   -2.0910    1.0257 C   0  0  0  0  0  0  0  0  0  0  0  0
    7.1943   -3.2140    1.5640 O   0  0  0  0  0  0  0  0  0  0  0  0
    8.3491   -1.4500    0.6614 N   0  0  0  0  0  0  0  0  0  0  0  0
    9.5564   -2.0188    0.8793 O   0  0  0  0  0  0  0  0  0  0  0  0
    2.2939   -2.1518    1.2783 C   0  0  0  0  0  0  0  0  0  0  0  0
    1.0303   -1.6634    1.1007 C   0  0  0  0  0  0  0  0  0  0  0  0
    0.8438   -0.4293    0.5147 C   0  0  0  0  0  0  0  0  0  0  0  0
   -3.9800   -3.3974   -2.4061 H   0  0  0  0  0  0  0  0  0  0  0  0
   -5.1230   -3.9235   -1.1428 H   0  0  0  0  0  0  0  0  0  0  0  0
   -3.4448   -3.7318   -0.6688 H   0  0  0  0  0  0  0  0  0  0  0  0
   -5.8407   -2.1795    0.5802 H   0  0  0  0  0  0  0  0  0  0  0  0
   -6.1965   -0.7833   -0.4704 H   0  0  0  0  0  0  0  0  0  0  0  0
   -6.5661   -2.4603   -1.0742 H   0  0  0  0  0  0  0  0  0  0  0  0
   -3.5435   -1.8516    0.8360 H   0  0  0  0  0  0  0  0  0  0  0  0
   -4.0759   -0.2898    0.2357 H   0  0  0  0  0  0  0  0  0  0  0  0
   -1.2949   -2.9220   -0.3272 H   0  0  0  0  0  0  0  0  0  0  0  0
   -0.4217   -1.7086   -1.3938 H   0  0  0  0  0  0  0  0  0  0  0  0
   -1.8418   -2.5523   -1.9836 H   0  0  0  0  0  0  0  0  0  0  0  0
   -1.4704    0.2642   -2.2041 H   0  0  0  0  0  0  0  0  0  0  0  0
   -3.1292    0.7102   -1.6641 H   0  0  0  0  0  0  0  0  0  0  0  0
   -2.9005   -0.7750   -2.7148 H   0  0  0  0  0  0  0  0  0  0  0  0
   -2.3452    0.6721    0.6698 H   0  0  0  0  0  0  0  0  0  0  0  0
   -1.6511   -0.7834    1.3590 H   0  0  0  0  0  0  0  0  0  0  0  0
   -0.0008    3.1251   -1.6714 H   0  0  0  0  0  0  0  0  0  0  0  0
   -1.5668    2.4662   -1.2487 H   0  0  0  0  0  0  0  0  0  0  0  0
   -0.7576    5.5349   -0.9353 H   0  0  0  0  0  0  0  0  0  0  0  0
   -2.2470    4.5274   -1.1401 H   0  0  0  0  0  0  0  0  0  0  0  0
   -1.9758    5.5057    0.3801 H   0  0  0  0  0  0  0  0  0  0  0  0
   -2.5755    3.0388    0.9656 H   0  0  0  0  0  0  0  0  0  0  0  0
   -1.1437    2.4882    1.9746 H   0  0  0  0  0  0  0  0  0  0  0  0
   -1.7640    4.2236    1.9947 H   0  0  0  0  0  0  0  0  0  0  0  0
    1.3443    4.1226   -0.1887 H   0  0  0  0  0  0  0  0  0  0  0  0
    0.5342    5.3844    0.8046 H   0  0  0  0  0  0  0  0  0  0  0  0
    0.9126    3.8206    1.5740 H   0  0  0  0  0  0  0  0  0  0  0  0
    4.1098    0.4073   -0.0351 H   0  0  0  0  0  0  0  0  0  0  0  0
    4.8153   -2.9921    1.5671 H   0  0  0  0  0  0  0  0  0  0  0  0
    5.8395   -0.4622    0.3021 H   0  0  0  0  0  0  0  0  0  0  0  0
    8.3715   -0.4972    0.2023 H   0  0  0  0  0  0  0  0  0  0  0  0
   10.0053   -2.2811    0.0222 H   0  0  0  0  0  0  0  0  0  0  0  0
    2.4213   -3.1246    1.7405 H   0  0  0  0  0  0  0  0  0  0  0  0
    0.1420   -2.2235    1.4175 H   0  0  0  0  0  0  0  0  0  0  0  0
  1  2  1  0
  2  3  1  0
  2  4  1  0
  4  5  1  0
  5  6  1  0
  5  7  1  0
  5  8  1  0
  8  9  1  0
  9 10  1  0
 10 11  1  0
 11 12  1  0
 12 13  1  0
 12 14  1  0
 12 15  1  0
 10 16  2  0
 16 17  1  0
 17 18  2  0
 18 19  1  0
 19 20  1  0
 20 21  2  0
 21 22  1  0
 22 23  2  0
 22 24  1  0
 24 25  1  0
 19 26  2  0
 26 27  1  0
 27 28  2  0
 28  9  1  0
 28 17  1  0
  1 29  1  0
  1 30  1  0
  1 31  1  0
  3 32  1  0
  3 33  1  0
  3 34  1  0
  4 35  1  0
  4 36  1  0
  6 37  1  0
  6 38  1  0
  6 39  1  0
  7 40  1  0
  7 41  1  0
  7 42  1  0
  8 43  1  0
  8 44  1  0
 11 45  1  0
 11 46  1  0
 13 47  1  0
 13 48  1  0
 13 49  1  0
 14 50  1  0
 14 51  1  0
 14 52  1  0
 15 53  1  0
 15 54  1  0
 15 55  1  0
 18 56  1  0
 20 57  1  0
 21 58  1  0
 24 59  1  0
 25 60  1  0
 26 61  1  0
 27 62  1  0
M  END
$$$$
