@<TRIPOS>MOLECULE
*****
 62 63 0 0 0
SMALL
GASTEIGER

@<TRIPOS>ATOM
      1 C          -4.2067   -3.2607   -1.3120 C.3     1  UNL1       -0.0130
      2 N          -4.5133   -1.8969   -1.0207 N.3     1  UNL1       -0.3078
      3 C          -5.8595   -1.8245   -0.4907 C.3     1  UNL1       -0.0130
      4 C          -3.6194   -1.2644   -0.1431 C.3     1  UNL1        0.0051
      5 C          -2.2339   -0.9532   -0.6443 C.3     1  UNL1       -0.0042
      6 C          -1.4159   -2.1132   -1.0602 C.3     1  UNL1       -0.0570
      7 C          -2.4663   -0.1355   -1.9319 C.3     1  UNL1       -0.0570
      8 C          -1.5963   -0.1135    0.4427 C.3     1  UNL1        0.0312
      9 N          -0.2715    0.3117    0.2130 N.ar    1  UNL1       -0.3269
     10 C           0.1432    1.4492   -0.3470 C.ar    1  UNL1        0.1113
     11 C          -0.5679    2.6282   -0.8243 C.3     1  UNL1        0.0105
     12 C          -0.7328    3.7309    0.2038 C.3     1  UNL1       -0.0309
     13 C          -1.4937    4.9099   -0.4209 C.3     1  UNL1       -0.0597
     14 C          -1.5640    3.3093    1.3901 C.3     1  UNL1       -0.0597
     15 C           0.6121    4.2931    0.6251 C.3     1  UNL1       -0.0597
     16 N           1.5204    1.4032   -0.3912 N.ar    1  UNL1       -0.2323
     17 C           1.9624    0.2674    0.1294 C.ar    1  UNL1        0.0899
     18 C           3.2607   -0.2019    0.2962 C.ar    1  UNL1       -0.0271
     19 C           3.4175   -1.4353    0.8825 C.ar    1  UNL1       -0.0227
     20 C           4.7315   -2.0057    1.0962 C.2     1  UNL1       -0.0496
     21 C           5.8433   -1.4320    0.7686 C.2     1  UNL1        0.0027
     22 C           7.1431   -2.0910    1.0257 C.2     1  UNL1        0.2593
     23 O           7.1943   -3.2140    1.5640 O.2     1  UNL1       -0.2687
     24 N           8.3491   -1.4500    0.6614 N.am    1  UNL1       -0.1940
     25 O           9.5564   -2.0188    0.8793 O.3     1  UNL1       -0.2949
     26 C           2.2939   -2.1518    1.2783 C.ar    1  UNL1       -0.0525
     27 C           1.0303   -1.6634    1.1007 C.ar    1  UNL1       -0.0355
     28 C           0.8438   -0.4293    0.5147 C.ar    1  UNL1        0.0689
     29 H          -3.9800   -3.3974   -2.4061 H       1  UNL1        0.0391
     30 H          -5.1230   -3.9235   -1.1428 H       1  UNL1        0.0391
     31 H          -3.4448   -3.7318   -0.6688 H       1  UNL1        0.0391
     32 H          -5.8407   -2.1795    0.5802 H       1  UNL1        0.0391
     33 H          -6.1965   -0.7833   -0.4704 H       1  UNL1        0.0391
     34 H          -6.5661   -2.4603   -1.0742 H       1  UNL1        0.0391
     35 H          -3.5435   -1.8516    0.8360 H       1  UNL1        0.0432
     36 H          -4.0759   -0.2898    0.2357 H       1  UNL1        0.0432
     37 H          -1.2949   -2.9220   -0.3272 H       1  UNL1        0.0236
     38 H          -0.4217   -1.7086   -1.3938 H       1  UNL1        0.0236
     39 H          -1.8418   -2.5523   -1.9836 H       1  UNL1        0.0236
     40 H          -1.4704    0.2642   -2.2041 H       1  UNL1        0.0236
     41 H          -3.1292    0.7102   -1.6641 H       1  UNL1        0.0236
     42 H          -2.9005   -0.7750   -2.7148 H       1  UNL1        0.0236
     43 H          -2.3452    0.6721    0.6698 H       1  UNL1        0.0498
     44 H          -1.6511   -0.7834    1.3590 H       1  UNL1        0.0498
     45 H          -0.0008    3.1251   -1.6714 H       1  UNL1        0.0348
     46 H          -1.5668    2.4662   -1.2487 H       1  UNL1        0.0348
     47 H          -0.7576    5.5349   -0.9353 H       1  UNL1        0.0235
     48 H          -2.2470    4.5274   -1.1401 H       1  UNL1        0.0235
     49 H          -1.9758    5.5057    0.3801 H       1  UNL1        0.0235
     50 H          -2.5755    3.0388    0.9656 H       1  UNL1        0.0235
     51 H          -1.1437    2.4882    1.9746 H       1  UNL1        0.0235
     52 H          -1.7640    4.2236    1.9947 H       1  UNL1        0.0235
     53 H           1.3443    4.1226   -0.1887 H       1  UNL1        0.0235
     54 H           0.5342    5.3844    0.8046 H       1  UNL1        0.0235
     55 H           0.9126    3.8206    1.5740 H       1  UNL1        0.0235
     56 H           4.1098    0.4073   -0.0351 H       1  UNL1        0.0645
     57 H           4.8153   -2.9921    1.5671 H       1  UNL1        0.0625
     58 H           5.8395   -0.4622    0.3021 H       1  UNL1        0.0670
     59 H           8.3715   -0.4972    0.2023 H       1  UNL1        0.1825
     60 H          10.0053   -2.2811    0.0222 H       1  UNL1        0.2414
     61 H           2.4213   -3.1246    1.7405 H       1  UNL1        0.0624
     62 H           0.1420   -2.2235    1.4175 H       1  UNL1        0.0639
@<TRIPOS>BOND
     1     1     2    1
     2     2     3    1
     3     2     4    1
     4     4     5    1
     5     5     6    1
     6     5     7    1
     7     5     8    1
     8     8     9    1
     9     9    10   ar
    10    10    11    1
    11    11    12    1
    12    12    13    1
    13    12    14    1
    14    12    15    1
    15    10    16   ar
    16    16    17   ar
    17    17    18   ar
    18    18    19   ar
    19    19    20    1
    20    20    21    2
    21    21    22    1
    22    22    23    2
    23    22    24   am
    24    24    25    1
    25    19    26   ar
    26    26    27   ar
    27    27    28   ar
    28    28     9   ar
    29    28    17   ar
    30     1    29    1
    31     1    30    1
    32     1    31    1
    33     3    32    1
    34     3    33    1
    35     3    34    1
    36     4    35    1
    37     4    36    1
    38     6    37    1
    39     6    38    1
    40     6    39    1
    41     7    40    1
    42     7    41    1
    43     7    42    1
    44     8    43    1
    45     8    44    1
    46    11    45    1
    47    11    46    1
    48    13    47    1
    49    13    48    1
    50    13    49    1
    51    14    50    1
    52    14    51    1
    53    14    52    1
    54    15    53    1
    55    15    54    1
    56    15    55    1
    57    18    56    1
    58    20    57    1
    59    21    58    1
    60    24    59    1
    61    25    60    1
    62    26    61    1
    63    27    62    1
