
     RDKit          3D

 54 59  0  0  0  0  0  0  0  0999 V2000
   -5.1313   -2.1663   -2.6658 N   0  0  0  0  0  0  0  0  0  0  0  0
   -4.1403   -1.4099   -1.6964 C   0  0  0  0  0  0  0  0  0  0  0  0
   -3.4599   -0.8936   -1.0169 C   0  0  0  0  0  0  0  0  0  0  0  0
   -1.9750   -1.0813   -0.8125 C   0  0  0  0  0  0  0  0  0  0  0  0
   -1.3427   -0.4825    0.1298 C   0  0  0  0  0  0  0  0  0  0  0  0
    0.1373   -0.4084    0.2240 C   0  0  0  0  0  0  0  0  0  0  0  0
    0.9827   -0.1151   -0.8205 C   0  0  0  0  0  0  0  0  0  0  0  0
    2.3754   -0.1798   -0.5800 N   0  0  0  0  0  0  0  0  0  0  0  0
    2.8247   -0.5217    0.5794 C   0  0  0  0  0  0  0  0  0  0  0  0
    4.1101   -0.7017    1.0887 C   0  0  0  0  0  0  0  0  0  0  0  0
    5.4200   -0.1900    0.8225 C   0  0  0  0  0  0  0  0  0  0  0  0
    6.0813    0.5029    1.9053 C   0  0  0  0  0  0  0  0  0  0  0  0
    7.3309    0.9973    1.8751 C   0  0  0  0  0  0  0  0  0  0  0  0
    8.0590    0.8621    0.7917 N   0  0  0  0  0  0  0  0  0  0  0  0
    7.5221    0.2020   -0.2860 C   0  0  0  0  0  0  0  0  0  0  0  0
    8.3231    0.1249   -1.4149 C   0  0  0  0  0  0  0  0  0  0  0  0
    7.7640   -0.4615   -2.5376 C   0  0  0  0  0  0  0  0  0  0  0  0
    6.4923   -0.9409   -2.5309 C   0  0  0  0  0  0  0  0  0  0  0  0
    5.6771   -0.8761   -1.3860 C   0  0  0  0  0  0  0  0  0  0  0  0
    6.2606   -0.2786   -0.2365 C   0  0  0  0  0  0  0  0  0  0  0  0
    3.8446   -1.1711    2.4371 C   0  0  0  0  0  0  0  0  0  0  0  0
    2.5858   -1.2102    2.6109 N   0  0  0  0  0  0  0  0  0  0  0  0
    1.9440   -0.8399    1.5893 N   0  0  0  0  0  0  0  0  0  0  0  0
    0.6048   -0.7845    1.4607 C   0  0  0  0  0  0  0  0  0  0  0  0
   -1.9080    0.3612    1.0249 C   0  0  0  0  0  0  0  0  0  0  0  0
   -3.2923    0.6359    0.9210 C   0  0  0  0  0  0  0  0  0  0  0  0
   -4.0140    0.0558   -0.0112 C   0  0  0  0  0  0  0  0  0  0  0  0
   -5.3832    0.4046   -0.1802 N   0  0  0  0  0  0  0  0  0  0  0  0
   -6.5284   -0.4098    0.1648 C   0  0  0  0  0  0  0  0  0  0  0  0
   -7.7322    0.4707    0.5115 C   0  0  0  0  0  0  0  0  0  0  0  0
   -8.0188    1.4576   -0.4961 N   0  0  0  0  0  0  0  0  0  0  0  0
   -6.9907    1.5797   -1.4780 C   0  0  0  0  0  0  0  0  0  0  0  0
   -5.6378    1.6999   -0.7375 C   0  0  0  0  0  0  0  0  0  0  0  0
   -1.5882   -1.7790   -1.5953 H   0  0  0  0  0  0  0  0  0  0  0  0
    0.5862    0.2112   -1.7386 H   0  0  0  0  0  0  0  0  0  0  0  0
    5.4551    0.6207    2.8118 H   0  0  0  0  0  0  0  0  0  0  0  0
    7.7300    1.5009    2.7988 H   0  0  0  0  0  0  0  0  0  0  0  0
    9.3012    0.5383   -1.4080 H   0  0  0  0  0  0  0  0  0  0  0  0
    8.3436   -0.5215   -3.4174 H   0  0  0  0  0  0  0  0  0  0  0  0
    6.0490   -1.4158   -3.4311 H   0  0  0  0  0  0  0  0  0  0  0  0
    4.6903   -1.2751   -1.3403 H   0  0  0  0  0  0  0  0  0  0  0  0
    4.6568   -1.4317    3.1277 H   0  0  0  0  0  0  0  0  0  0  0  0
   -0.0210   -0.9509    2.3049 H   0  0  0  0  0  0  0  0  0  0  0  0
   -1.4106    0.8483    1.8733 H   0  0  0  0  0  0  0  0  0  0  0  0
   -3.6970    1.4056    1.6007 H   0  0  0  0  0  0  0  0  0  0  0  0
   -6.3378   -1.0203    1.0417 H   0  0  0  0  0  0  0  0  0  0  0  0
   -6.8581   -1.0202   -0.6995 H   0  0  0  0  0  0  0  0  0  0  0  0
   -7.5255    1.0289    1.4186 H   0  0  0  0  0  0  0  0  0  0  0  0
   -8.6304   -0.1659    0.6064 H   0  0  0  0  0  0  0  0  0  0  0  0
   -8.9736    1.5206   -0.8064 H   0  0  0  0  0  0  0  0  0  0  0  0
   -6.8714    0.7117   -2.1219 H   0  0  0  0  0  0  0  0  0  0  0  0
   -7.0709    2.5388   -1.9922 H   0  0  0  0  0  0  0  0  0  0  0  0
   -5.7615    2.4385    0.0870 H   0  0  0  0  0  0  0  0  0  0  0  0
   -4.8517    1.9851   -1.4619 H   0  0  0  0  0  0  0  0  0  0  0  0
  1  2  3  0
  2  3  1  0
  3  4  2  0
  4  5  1  0
  5  6  1  0
  6  7  1  0
  7  8  2  0
  8  9  1  0
  9 10  2  0
 10 11  1  0
 11 12  2  0
 12 13  1  0
 13 14  2  0
 14 15  1  0
 15 16  2  0
 16 17  1  0
 17 18  2  0
 18 19  1  0
 19 20  2  0
 10 21  1  0
 21 22  2  0
 22 23  1  0
 23 24  1  0
  5 25  2  0
 25 26  1  0
 26 27  2  0
 27 28  1  0
 28 29  1  0
 29 30  1  0
 30 31  1  0
 31 32  1  0
 32 33  1  0
 27  3  1  0
 33 28  1  0
 24  6  2  0
 23  9  1  0
 20 11  1  0
 20 15  1  0
  4 34  1  0
  7 35  1  0
 12 36  1  0
 13 37  1  0
 16 38  1  0
 17 39  1  0
 18 40  1  0
 19 41  1  0
 21 42  1  0
 24 43  1  0
 25 44  1  0
 26 45  1  0
 29 46  1  0
 29 47  1  0
 30 48  1  0
 30 49  1  0
 31 50  1  0
 32 51  1  0
 32 52  1  0
 33 53  1  0
 33 54  1  0
M  END
$$$$
