@<TRIPOS>MOLECULE
*****
 54 59 0 0 0
SMALL
GASTEIGER

@<TRIPOS>ATOM
      1 N          -5.1313   -2.1663   -2.6658 N.1     1  UNL1       -0.1908
      2 C          -4.1403   -1.4099   -1.6964 C.1     1  UNL1        0.1010
      3 C          -3.4599   -0.8936   -1.0169 C.ar    1  UNL1        0.0733
      4 C          -1.9750   -1.0813   -0.8125 C.ar    1  UNL1       -0.0347
      5 C          -1.3427   -0.4825    0.1298 C.ar    1  UNL1       -0.0137
      6 C           0.1373   -0.4084    0.2240 C.ar    1  UNL1        0.0185
      7 C           0.9827   -0.1151   -0.8205 C.ar    1  UNL1        0.0391
      8 N           2.3754   -0.1798   -0.5800 N.ar    1  UNL1       -0.2350
      9 C           2.8247   -0.5217    0.5794 C.ar    1  UNL1        0.1632
     10 C           4.1101   -0.7017    1.0887 C.ar    1  UNL1        0.0467
     11 C           5.4200   -0.1900    0.8225 C.ar    1  UNL1       -0.0022
     12 C           6.0813    0.5029    1.9053 C.ar    1  UNL1       -0.0351
     13 C           7.3309    0.9973    1.8751 C.ar    1  UNL1        0.0288
     14 N           8.0590    0.8621    0.7917 N.ar    1  UNL1       -0.2549
     15 C           7.5221    0.2020   -0.2860 C.ar    1  UNL1        0.0715
     16 C           8.3231    0.1249   -1.4149 C.ar    1  UNL1       -0.0357
     17 C           7.7640   -0.4615   -2.5376 C.ar    1  UNL1       -0.0597
     18 C           6.4923   -0.9409   -2.5309 C.ar    1  UNL1       -0.0611
     19 C           5.6771   -0.8761   -1.3860 C.ar    1  UNL1       -0.0520
     20 C           6.2606   -0.2786   -0.2365 C.ar    1  UNL1        0.0082
     21 C           3.8446   -1.1711    2.4371 C.ar    1  UNL1        0.0597
     22 N           2.5858   -1.2102    2.6109 N.ar    1  UNL1       -0.1727
     23 N           1.9440   -0.8399    1.5893 N.ar    1  UNL1       -0.2206
     24 C           0.6048   -0.7845    1.4607 C.ar    1  UNL1        0.0406
     25 C          -1.9080    0.3612    1.0249 C.ar    1  UNL1       -0.0521
     26 C          -3.2923    0.6359    0.9210 C.ar    1  UNL1       -0.0388
     27 C          -4.0140    0.0558   -0.0112 C.ar    1  UNL1        0.0474
     28 N          -5.3832    0.4046   -0.1802 N.pl3   1  UNL1       -0.3265
     29 C          -6.5284   -0.4098    0.1648 C.3     1  UNL1        0.0248
     30 C          -7.7322    0.4707    0.5115 C.3     1  UNL1        0.0117
     31 N          -8.0188    1.4576   -0.4961 N.3     1  UNL1       -0.3130
     32 C          -6.9907    1.5797   -1.4780 C.3     1  UNL1        0.0117
     33 C          -5.6378    1.6999   -0.7375 C.3     1  UNL1        0.0248
     34 H          -1.5882   -1.7790   -1.5953 H       1  UNL1        0.0637
     35 H           0.5862    0.2112   -1.7386 H       1  UNL1        0.0837
     36 H           5.4551    0.6207    2.8118 H       1  UNL1        0.0639
     37 H           7.7300    1.5009    2.7988 H       1  UNL1        0.0830
     38 H           9.3012    0.5383   -1.4080 H       1  UNL1        0.0639
     39 H           8.3436   -0.5215   -3.4174 H       1  UNL1        0.0618
     40 H           6.0490   -1.4158   -3.4311 H       1  UNL1        0.0618
     41 H           4.6903   -1.2751   -1.3403 H       1  UNL1        0.0624
     42 H           4.6568   -1.4317    3.1277 H       1  UNL1        0.0855
     43 H          -0.0210   -0.9509    2.3049 H       1  UNL1        0.0837
     44 H          -1.4106    0.8483    1.8733 H       1  UNL1        0.0624
     45 H          -3.6970    1.4056    1.6007 H       1  UNL1        0.0637
     46 H          -6.3378   -1.0203    1.0417 H       1  UNL1        0.0476
     47 H          -6.8581   -1.0202   -0.6995 H       1  UNL1        0.0476
     48 H          -7.5255    1.0289    1.4186 H       1  UNL1        0.0439
     49 H          -8.6304   -0.1659    0.6064 H       1  UNL1        0.0439
     50 H          -8.9736    1.5206   -0.8064 H       1  UNL1        0.1220
     51 H          -6.8714    0.7117   -2.1219 H       1  UNL1        0.0439
     52 H          -7.0709    2.5388   -1.9922 H       1  UNL1        0.0439
     53 H          -5.7615    2.4385    0.0870 H       1  UNL1        0.0476
     54 H          -4.8517    1.9851   -1.4619 H       1  UNL1        0.0476
@<TRIPOS>BOND
     1     1     2    3
     2     2     3    1
     3     3     4   ar
     4     4     5   ar
     5     5     6    1
     6     6     7   ar
     7     7     8   ar
     8     8     9   ar
     9     9    10   ar
    10    10    11    1
    11    11    12   ar
    12    12    13   ar
    13    13    14   ar
    14    14    15   ar
    15    15    16   ar
    16    16    17   ar
    17    17    18   ar
    18    18    19   ar
    19    19    20   ar
    20    10    21   ar
    21    21    22   ar
    22    22    23   ar
    23    23    24   ar
    24     5    25   ar
    25    25    26   ar
    26    26    27   ar
    27    27    28    1
    28    28    29    1
    29    29    30    1
    30    30    31    1
    31    31    32    1
    32    32    33    1
    33    27     3   ar
    34    33    28    1
    35    24     6   ar
    36    23     9   ar
    37    20    11   ar
    38    20    15   ar
    39     4    34    1
    40     7    35    1
    41    12    36    1
    42    13    37    1
    43    16    38    1
    44    17    39    1
    45    18    40    1
    46    19    41    1
    47    21    42    1
    48    24    43    1
    49    25    44    1
    50    26    45    1
    51    29    46    1
    52    29    47    1
    53    30    48    1
    54    30    49    1
    55    31    50    1
    56    32    51    1
    57    32    52    1
    58    33    53    1
    59    33    54    1
