@<TRIPOS>MOLECULE
*****
 49 52 0 0 0
SMALL
GASTEIGER

@<TRIPOS>ATOM
      1 N           6.9569    1.4062    2.9943 N.am    1  UNL1       -0.3253
      2 C           7.3775    2.0175    1.7895 C.2     1  UNL1        0.2431
      3 O           8.3512    2.8102    1.8222 O.2     1  UNL1       -0.2704
      4 C           6.6873    1.7242    0.5488 C.ar    1  UNL1        0.0580
      5 C           7.1068    2.3273   -0.6230 C.ar    1  UNL1        0.0399
      6 N           6.4767    2.0606   -1.7605 N.ar    1  UNL1       -0.2589
      7 C           5.4343    1.2217   -1.8402 C.ar    1  UNL1        0.0692
      8 C           4.9867    0.6012   -0.6939 C.ar    1  UNL1        0.1397
      9 O           3.9159   -0.2623   -0.7674 O.3     1  UNL1       -0.4858
     10 C           3.2756   -0.5205   -1.9818 C.3     1  UNL1        0.1148
     11 C           2.1537   -1.4696   -1.8575 C.ar    1  UNL1       -0.0087
     12 C           2.3787   -2.8085   -1.9993 C.ar    1  UNL1       -0.0552
     13 C           1.3382   -3.7014   -1.8850 C.ar    1  UNL1       -0.0596
     14 C           0.0659   -3.2088   -1.6243 C.ar    1  UNL1       -0.0404
     15 C          -0.1785   -1.8589   -1.4783 C.ar    1  UNL1        0.0340
     16 N          -1.4984   -1.3442   -1.2075 N.am    1  UNL1       -0.2815
     17 C          -1.9658   -1.1713    0.1184 C.2     1  UNL1        0.2497
     18 O          -1.1410   -1.5014    1.0384 O.2     1  UNL1       -0.2698
     19 C          -3.2710   -0.6630    0.4796 C.ar    1  UNL1        0.0551
     20 C          -4.1766   -0.3010   -0.4891 C.ar    1  UNL1       -0.0461
     21 C          -5.4408    0.1913   -0.1248 C.ar    1  UNL1       -0.0345
     22 C          -5.7488    0.3017    1.2090 C.ar    1  UNL1        0.0776
     23 C          -7.0296    0.8001    1.6258 C.ar    1  UNL1        0.0375
     24 C          -8.1130    1.2299    0.9147 C.ar    1  UNL1       -0.0455
     25 C          -9.2124    1.6558    1.5226 C.ar    1  UNL1       -0.0541
     26 C          -9.2012    1.6406    2.9243 C.ar    1  UNL1       -0.0237
     27 S          -7.5854    1.0048    3.3110 S.2     1  UNL1       -0.0951
     28 N          -4.8514   -0.0569    2.1443 N.ar    1  UNL1       -0.2537
     29 C          -3.6242   -0.5348    1.7942 C.ar    1  UNL1        0.0404
     30 C           0.8690   -0.9904   -1.5956 C.ar    1  UNL1       -0.0341
     31 C           5.6306    0.8646    0.5102 C.ar    1  UNL1       -0.0048
     32 H           7.2180    0.4430    3.2603 H       1  UNL1        0.1453
     33 H           6.3475    1.9851    3.6337 H       1  UNL1        0.1453
     34 H           7.9335    3.0015   -0.6009 H       1  UNL1        0.0837
     35 H           4.9600    1.0426   -2.7943 H       1  UNL1        0.0867
     36 H           2.9030    0.4413   -2.4220 H       1  UNL1        0.0748
     37 H           4.0087   -0.9105   -2.7394 H       1  UNL1        0.0748
     38 H           3.3661   -3.1772   -2.2006 H       1  UNL1        0.0621
     39 H           1.4518   -4.7638   -1.9861 H       1  UNL1        0.0618
     40 H          -0.8014   -3.8613   -1.5220 H       1  UNL1        0.0636
     41 H          -2.1334   -1.0895   -1.9927 H       1  UNL1        0.1551
     42 H          -3.9773   -0.3709   -1.5486 H       1  UNL1        0.0626
     43 H          -6.1824    0.4872   -0.8477 H       1  UNL1        0.0639
     44 H          -8.0046    1.1961   -0.2136 H       1  UNL1        0.0629
     45 H         -10.1143    2.0132    0.9842 H       1  UNL1        0.0623
     46 H         -10.0254    1.9577    3.6615 H       1  UNL1        0.0693
     47 H          -2.9500   -0.8050    2.6032 H       1  UNL1        0.0837
     48 H           0.7641    0.0948   -1.4943 H       1  UNL1        0.0640
     49 H           5.2697    0.3718    1.4004 H       1  UNL1        0.0663
@<TRIPOS>BOND
     1     1     2   am
     2     2     3    2
     3     2     4    1
     4     4     5   ar
     5     5     6   ar
     6     6     7   ar
     7     7     8   ar
     8     8     9    1
     9     9    10    1
    10    10    11    1
    11    11    12   ar
    12    12    13   ar
    13    13    14   ar
    14    14    15   ar
    15    15    16    1
    16    16    17   am
    17    17    18    2
    18    17    19    1
    19    19    20   ar
    20    20    21   ar
    21    21    22   ar
    22    22    23    1
    23    23    24   ar
    24    24    25   ar
    25    25    26   ar
    26    26    27   ar
    27    22    28   ar
    28    28    29   ar
    29    15    30   ar
    30     8    31   ar
    31    31     4   ar
    32    30    11   ar
    33    29    19   ar
    34    27    23   ar
    35     1    32    1
    36     1    33    1
    37     5    34    1
    38     7    35    1
    39    10    36    1
    40    10    37    1
    41    12    38    1
    42    13    39    1
    43    14    40    1
    44    16    41    1
    45    20    42    1
    46    21    43    1
    47    24    44    1
    48    25    45    1
    49    26    46    1
    50    29    47    1
    51    30    48    1
    52    31    49    1
