
     RDKit          3D

 43 47  0  0  0  0  0  0  0  0999 V2000
    7.6626    0.1218    1.7756 C   0  0  0  0  0  0  0  0  0  0  0  0
    7.1739   -0.3718    0.5442 O   0  0  0  0  0  0  0  0  0  0  0  0
    5.8128   -0.3466    0.2829 C   0  0  0  0  0  0  0  0  0  0  0  0
    5.3145   -0.8282   -0.9241 C   0  0  0  0  0  0  0  0  0  0  0  0
    3.9585   -0.8046   -1.1877 C   0  0  0  0  0  0  0  0  0  0  0  0
    3.0677   -0.3033   -0.2613 C   0  0  0  0  0  0  0  0  0  0  0  0
    1.6269   -0.2625   -0.5061 C   0  0  0  0  0  0  0  0  0  0  0  0
    0.8618    0.7416    0.0516 C   0  0  0  0  0  0  0  0  0  0  0  0
   -0.4583    0.7565   -0.1885 N   0  0  0  0  0  0  0  0  0  0  0  0
   -1.1007   -0.1424   -0.9398 C   0  0  0  0  0  0  0  0  0  0  0  0
   -2.4217   -0.3212   -1.3157 C   0  0  0  0  0  0  0  0  0  0  0  0
   -3.5561    0.5201   -0.9423 C   0  0  0  0  0  0  0  0  0  0  0  0
   -3.9174    1.5974   -1.7261 C   0  0  0  0  0  0  0  0  0  0  0  0
   -4.9848    2.4193   -1.4085 C   0  0  0  0  0  0  0  0  0  0  0  0
   -5.6946    2.1682   -0.3076 N   0  0  0  0  0  0  0  0  0  0  0  0
   -5.3618    1.1142    0.4832 C   0  0  0  0  0  0  0  0  0  0  0  0
   -6.0932    0.8424    1.6323 C   0  0  0  0  0  0  0  0  0  0  0  0
   -5.7933   -0.2163    2.4666 C   0  0  0  0  0  0  0  0  0  0  0  0
   -4.7314   -1.0084    2.1221 C   0  0  0  0  0  0  0  0  0  0  0  0
   -3.9702   -0.7790    0.9859 C   0  0  0  0  0  0  0  0  0  0  0  0
   -4.2962    0.2806    0.1807 C   0  0  0  0  0  0  0  0  0  0  0  0
   -2.4151   -1.4521   -2.1061 C   0  0  0  0  0  0  0  0  0  0  0  0
   -1.1683   -1.9133   -2.1923 N   0  0  0  0  0  0  0  0  0  0  0  0
   -0.3441   -1.1341   -1.4904 N   0  0  0  0  0  0  0  0  0  0  0  0
    0.9843   -1.1982   -1.2831 C   0  0  0  0  0  0  0  0  0  0  0  0
    3.5911    0.1695    0.9316 C   0  0  0  0  0  0  0  0  0  0  0  0
    4.9393    0.1554    1.2151 C   0  0  0  0  0  0  0  0  0  0  0  0
    7.2232    1.1279    1.9851 H   0  0  0  0  0  0  0  0  0  0  0  0
    8.7604    0.2802    1.7529 H   0  0  0  0  0  0  0  0  0  0  0  0
    7.4057   -0.5302    2.6344 H   0  0  0  0  0  0  0  0  0  0  0  0
    6.0282   -1.2160   -1.6351 H   0  0  0  0  0  0  0  0  0  0  0  0
    3.5725   -1.1794   -2.1263 H   0  0  0  0  0  0  0  0  0  0  0  0
    1.3563    1.4994    0.6759 H   0  0  0  0  0  0  0  0  0  0  0  0
   -3.3275    1.7907   -2.6240 H   0  0  0  0  0  0  0  0  0  0  0  0
   -5.2432    3.2562   -2.0429 H   0  0  0  0  0  0  0  0  0  0  0  0
   -6.9270    1.5183    1.8422 H   0  0  0  0  0  0  0  0  0  0  0  0
   -6.4002   -0.3794    3.3505 H   0  0  0  0  0  0  0  0  0  0  0  0
   -4.4737   -1.8419    2.7537 H   0  0  0  0  0  0  0  0  0  0  0  0
   -3.1359   -1.3942    0.7073 H   0  0  0  0  0  0  0  0  0  0  0  0
   -3.3015   -1.8658   -2.5640 H   0  0  0  0  0  0  0  0  0  0  0  0
    1.5720   -1.9903   -1.7262 H   0  0  0  0  0  0  0  0  0  0  0  0
    2.9263    0.5705    1.6841 H   0  0  0  0  0  0  0  0  0  0  0  0
    5.2782    0.5487    2.1850 H   0  0  0  0  0  0  0  0  0  0  0  0
  1  2  1  0
  2  3  1  0
  3  4  2  0
  4  5  1  0
  5  6  2  0
  6  7  1  0
  7  8  1  0
  8  9  2  0
  9 10  1  0
 10 11  2  0
 11 12  1  0
 12 13  2  0
 13 14  1  0
 14 15  2  0
 15 16  1  0
 16 17  2  0
 17 18  1  0
 18 19  2  0
 19 20  1  0
 20 21  2  0
 11 22  1  0
 22 23  2  0
 23 24  1  0
 24 25  1  0
  6 26  1  0
 26 27  2  0
 27  3  1  0
 25  7  2  0
 24 10  1  0
 21 12  1  0
 21 16  1  0
  1 28  1  0
  1 29  1  0
  1 30  1  0
  4 31  1  0
  5 32  1  0
  8 33  1  0
 13 34  1  0
 14 35  1  0
 17 36  1  0
 18 37  1  0
 19 38  1  0
 20 39  1  0
 22 40  1  0
 25 41  1  0
 26 42  1  0
 27 43  1  0
M  END
$$$$
