@<TRIPOS>MOLECULE
*****
 43 47 0 0 0
SMALL
GASTEIGER

@<TRIPOS>ATOM
      1 C           7.6626    0.1218    1.7756 C.3     1  UNL1        0.0788
      2 O           7.1739   -0.3718    0.5442 O.3     1  UNL1       -0.4951
      3 C           5.8128   -0.3466    0.2829 C.ar    1  UNL1        0.1201
      4 C           5.3145   -0.8282   -0.9241 C.ar    1  UNL1       -0.0194
      5 C           3.9585   -0.8046   -1.1877 C.ar    1  UNL1       -0.0505
      6 C           3.0677   -0.3033   -0.2613 C.ar    1  UNL1       -0.0148
      7 C           1.6269   -0.2625   -0.5061 C.ar    1  UNL1        0.0184
      8 C           0.8618    0.7416    0.0516 C.ar    1  UNL1        0.0391
      9 N          -0.4583    0.7565   -0.1885 N.ar    1  UNL1       -0.2350
     10 C          -1.1007   -0.1424   -0.9398 C.ar    1  UNL1        0.1632
     11 C          -2.4217   -0.3212   -1.3157 C.ar    1  UNL1        0.0467
     12 C          -3.5561    0.5201   -0.9423 C.ar    1  UNL1       -0.0022
     13 C          -3.9174    1.5974   -1.7261 C.ar    1  UNL1       -0.0351
     14 C          -4.9848    2.4193   -1.4085 C.ar    1  UNL1        0.0288
     15 N          -5.6946    2.1682   -0.3076 N.ar    1  UNL1       -0.2549
     16 C          -5.3618    1.1142    0.4832 C.ar    1  UNL1        0.0715
     17 C          -6.0932    0.8424    1.6323 C.ar    1  UNL1       -0.0357
     18 C          -5.7933   -0.2163    2.4666 C.ar    1  UNL1       -0.0597
     19 C          -4.7314   -1.0084    2.1221 C.ar    1  UNL1       -0.0611
     20 C          -3.9702   -0.7790    0.9859 C.ar    1  UNL1       -0.0520
     21 C          -4.2962    0.2806    0.1807 C.ar    1  UNL1        0.0082
     22 C          -2.4151   -1.4521   -2.1061 C.ar    1  UNL1        0.0597
     23 N          -1.1683   -1.9133   -2.1923 N.ar    1  UNL1       -0.1727
     24 N          -0.3441   -1.1341   -1.4904 N.ar    1  UNL1       -0.2206
     25 C           0.9843   -1.1982   -1.2831 C.ar    1  UNL1        0.0406
     26 C           3.5911    0.1695    0.9316 C.ar    1  UNL1       -0.0505
     27 C           4.9393    0.1554    1.2151 C.ar    1  UNL1       -0.0194
     28 H           7.2232    1.1279    1.9851 H       1  UNL1        0.0660
     29 H           8.7604    0.2802    1.7529 H       1  UNL1        0.0660
     30 H           7.4057   -0.5302    2.6344 H       1  UNL1        0.0660
     31 H           6.0282   -1.2160   -1.6351 H       1  UNL1        0.0654
     32 H           3.5725   -1.1794   -2.1263 H       1  UNL1        0.0625
     33 H           1.3563    1.4994    0.6759 H       1  UNL1        0.0837
     34 H          -3.3275    1.7907   -2.6240 H       1  UNL1        0.0639
     35 H          -5.2432    3.2562   -2.0429 H       1  UNL1        0.0830
     36 H          -6.9270    1.5183    1.8422 H       1  UNL1        0.0639
     37 H          -6.4002   -0.3794    3.3505 H       1  UNL1        0.0618
     38 H          -4.4737   -1.8419    2.7537 H       1  UNL1        0.0618
     39 H          -3.1359   -1.3942    0.7073 H       1  UNL1        0.0624
     40 H          -3.3015   -1.8658   -2.5640 H       1  UNL1        0.0855
     41 H           1.5720   -1.9903   -1.7262 H       1  UNL1        0.0837
     42 H           2.9263    0.5705    1.6841 H       1  UNL1        0.0625
     43 H           5.2782    0.5487    2.1850 H       1  UNL1        0.0654
@<TRIPOS>BOND
     1     1     2    1
     2     2     3    1
     3     3     4   ar
     4     4     5   ar
     5     5     6   ar
     6     6     7    1
     7     7     8   ar
     8     8     9   ar
     9     9    10   ar
    10    10    11   ar
    11    11    12    1
    12    12    13   ar
    13    13    14   ar
    14    14    15   ar
    15    15    16   ar
    16    16    17   ar
    17    17    18   ar
    18    18    19   ar
    19    19    20   ar
    20    20    21   ar
    21    11    22   ar
    22    22    23   ar
    23    23    24   ar
    24    24    25   ar
    25     6    26   ar
    26    26    27   ar
    27    27     3   ar
    28    25     7   ar
    29    24    10   ar
    30    21    12   ar
    31    21    16   ar
    32     1    28    1
    33     1    29    1
    34     1    30    1
    35     4    31    1
    36     5    32    1
    37     8    33    1
    38    13    34    1
    39    14    35    1
    40    17    36    1
    41    18    37    1
    42    19    38    1
    43    20    39    1
    44    22    40    1
    45    25    41    1
    46    26    42    1
    47    27    43    1
