@<TRIPOS>MOLECULE
*****
 39 43 0 0 0
SMALL
GASTEIGER

@<TRIPOS>ATOM
      1 N           3.1227   -1.6069    1.8641 N.1     1  UNL1       -0.1908
      2 C           3.3803   -1.4416    0.7150 C.1     1  UNL1        0.0999
      3 C           3.6796   -1.2459   -0.6759 C.ar    1  UNL1        0.0636
      4 C           4.8388   -1.6997   -1.2245 C.ar    1  UNL1       -0.0436
      5 C           5.1250   -1.4672   -2.5744 C.ar    1  UNL1       -0.0593
      6 C           4.2249   -0.7796   -3.3204 C.ar    1  UNL1       -0.0436
      7 C           3.0237   -0.2967   -2.7978 C.ar    1  UNL1        0.0636
      8 C           2.1651    0.3817   -3.6469 C.1     1  UNL1        0.0999
      9 N           1.3820    0.9765   -4.4041 N.1     1  UNL1       -0.1908
     10 C           2.7382   -0.5305   -1.4519 C.ar    1  UNL1        0.0519
     11 C           1.4776   -0.1178   -0.8620 C.ar    1  UNL1        0.1418
     12 N           1.0581   -0.7305    0.3075 N.ar    1  UNL1       -0.2270
     13 C          -0.1408   -0.2916    0.6616 C.ar    1  UNL1        0.0977
     14 C          -1.0110   -0.5892    1.7320 C.ar    1  UNL1        0.0102
     15 C          -0.6047   -1.5109    2.6505 C.ar    1  UNL1       -0.0519
     16 C          -1.4538   -1.8402    3.7458 C.ar    1  UNL1       -0.0611
     17 C          -2.6417   -1.1751    3.7590 C.ar    1  UNL1       -0.0611
     18 C          -3.1093   -0.2504    2.8771 C.ar    1  UNL1       -0.0534
     19 C          -2.2287    0.0371    1.8202 C.ar    1  UNL1       -0.0080
     20 C          -2.6123    0.9607    0.8753 C.ar    1  UNL1       -0.0067
     21 C          -3.8541    1.6121    0.9512 C.ar    1  UNL1       -0.0350
     22 C          -4.2362    2.5476   -0.0216 C.ar    1  UNL1        0.0416
     23 CL         -5.8124    3.3187    0.1510 Cl      1  UNL1       -0.0835
     24 C          -3.3635    2.8034   -1.0362 C.ar    1  UNL1       -0.0427
     25 C          -2.1170    2.1695   -1.1333 C.ar    1  UNL1       -0.0506
     26 C          -1.7513    1.2400   -0.1618 C.ar    1  UNL1        0.0082
     27 C          -0.4990    0.6252   -0.2962 C.ar    1  UNL1        0.0749
     28 N           0.5054    0.7071   -1.2084 N.ar    1  UNL1       -0.3373
     29 H           5.5251   -2.2414   -0.5843 H       1  UNL1        0.0631
     30 H           6.0427   -1.8289   -3.0067 H       1  UNL1        0.0618
     31 H           4.4373   -0.5938   -4.3597 H       1  UNL1        0.0631
     32 H           0.3462   -2.0040    2.5850 H       1  UNL1        0.0624
     33 H          -1.1315   -2.5704    4.4646 H       1  UNL1        0.0618
     34 H          -3.3118   -1.4169    4.6040 H       1  UNL1        0.0618
     35 H          -4.0635    0.1899    3.0162 H       1  UNL1        0.0624
     36 H          -4.5461    1.4336    1.7191 H       1  UNL1        0.0638
     37 H          -3.6566    3.5305   -1.7924 H       1  UNL1        0.0632
     38 H          -1.4229    2.3618   -1.9241 H       1  UNL1        0.0625
     39 H           0.4954    1.3339   -2.0166 H       1  UNL1        0.1674
@<TRIPOS>BOND
     1     1     2    3
     2     2     3    1
     3     3     4   ar
     4     4     5   ar
     5     5     6   ar
     6     6     7   ar
     7     7     8    1
     8     8     9    3
     9     7    10   ar
    10    10    11    1
    11    11    12   ar
    12    12    13   ar
    13    13    14   ar
    14    14    15   ar
    15    15    16   ar
    16    16    17   ar
    17    17    18   ar
    18    18    19   ar
    19    19    20   ar
    20    20    21   ar
    21    21    22   ar
    22    22    23    1
    23    22    24   ar
    24    24    25   ar
    25    25    26   ar
    26    26    27   ar
    27    27    28   ar
    28    10     3   ar
    29    28    11   ar
    30    27    13   ar
    31    19    14   ar
    32    26    20   ar
    33     4    29    1
    34     5    30    1
    35     6    31    1
    36    15    32    1
    37    16    33    1
    38    17    34    1
    39    18    35    1
    40    21    36    1
    41    24    37    1
    42    25    38    1
    43    28    39    1
