@<TRIPOS>MOLECULE
*****
 39 40 0 0 0
SMALL
GASTEIGER

@<TRIPOS>ATOM
      1 C           5.0887   -0.3718   -0.5774 C.3     1  UNL1       -0.0130
      2 N           3.9169   -0.3115    0.2669 N.3     1  UNL1       -0.3062
      3 C           3.8437   -1.3876    1.2135 C.3     1  UNL1       -0.0130
      4 C           2.7018   -0.1005   -0.4750 C.3     1  UNL1        0.0218
      5 C           1.4728   -0.0361    0.3978 C.3     1  UNL1        0.0616
      6 O           0.3181    0.1687   -0.3551 O.3     1  UNL1       -0.3646
      7 C          -0.8223    0.2318    0.4180 C.3     1  UNL1        0.1254
      8 C          -1.7409   -0.9005    0.0495 C.ar    1  UNL1       -0.0130
      9 C          -1.9713   -1.1966   -1.2717 C.ar    1  UNL1       -0.0544
     10 C          -2.8274   -2.2513   -1.5677 C.ar    1  UNL1       -0.0430
     11 C          -3.4392   -2.9931   -0.5660 C.ar    1  UNL1        0.0410
     12 CL         -4.5100   -4.3128   -0.9992 Cl      1  UNL1       -0.0835
     13 C          -3.2040   -2.6909    0.7629 C.ar    1  UNL1       -0.0430
     14 C          -2.3624   -1.6544    1.0229 C.ar    1  UNL1       -0.0544
     15 C          -1.5593    1.4982    0.2601 C.ar    1  UNL1        0.0744
     16 C          -0.8357    2.6767    0.2702 C.ar    1  UNL1       -0.0375
     17 C          -1.4536    3.9200    0.1269 C.ar    1  UNL1       -0.0585
     18 C          -2.8383    3.9939   -0.0316 C.ar    1  UNL1       -0.0436
     19 C          -3.5212    2.7949   -0.0359 C.ar    1  UNL1        0.0280
     20 N          -2.9094    1.6101    0.1031 N.ar    1  UNL1       -0.2569
     21 H           4.8600    0.2574   -1.4637 H       1  UNL1        0.0391
     22 H           6.0108   -0.0728   -0.0663 H       1  UNL1        0.0391
     23 H           5.2103   -1.4291   -0.8949 H       1  UNL1        0.0391
     24 H           3.0928   -2.1043    0.8505 H       1  UNL1        0.0391
     25 H           4.8254   -1.9216    1.1514 H       1  UNL1        0.0391
     26 H           3.7267   -1.0853    2.2637 H       1  UNL1        0.0391
     27 H           2.8403    0.8339   -1.0549 H       1  UNL1        0.0449
     28 H           2.5761   -0.9350   -1.1924 H       1  UNL1        0.0449
     29 H           1.3931   -0.8646    1.0988 H       1  UNL1        0.0573
     30 H           1.5985    0.9001    1.0156 H       1  UNL1        0.0573
     31 H          -0.5427    0.1005    1.4907 H       1  UNL1        0.0712
     32 H          -1.5217   -0.6522   -2.0729 H       1  UNL1        0.0622
     33 H          -2.9990   -2.4724   -2.6127 H       1  UNL1        0.0632
     34 H          -3.6637   -3.2476    1.5691 H       1  UNL1        0.0632
     35 H          -2.1391   -1.3697    2.0558 H       1  UNL1        0.0622
     36 H           0.2294    2.7678    0.3833 H       1  UNL1        0.0636
     37 H          -0.9152    4.8636    0.1304 H       1  UNL1        0.0619
     38 H          -3.3211    4.9433   -0.1422 H       1  UNL1        0.0633
     39 H          -4.6082    2.8009   -0.1573 H       1  UNL1        0.0829
@<TRIPOS>BOND
     1     1     2    1
     2     2     3    1
     3     2     4    1
     4     4     5    1
     5     5     6    1
     6     6     7    1
     7     7     8    1
     8     8     9   ar
     9     9    10   ar
    10    10    11   ar
    11    11    12    1
    12    11    13   ar
    13    13    14   ar
    14     7    15    1
    15    15    16   ar
    16    16    17   ar
    17    17    18   ar
    18    18    19   ar
    19    19    20   ar
    20    14     8   ar
    21    20    15   ar
    22     1    21    1
    23     1    22    1
    24     1    23    1
    25     3    24    1
    26     3    25    1
    27     3    26    1
    28     4    27    1
    29     4    28    1
    30     5    29    1
    31     5    30    1
    32     7    31    1
    33     9    32    1
    34    10    33    1
    35    13    34    1
    36    14    35    1
    37    16    36    1
    38    17    37    1
    39    18    38    1
    40    19    39    1
