
     RDKit          3D

 31 32  0  0  0  0  0  0  0  0999 V2000
   -1.8157    0.4585   -0.8528 C   0  0  1  0  0  0  0  0  0  0  0  0
   -2.5568    1.6767   -1.3056 C   0  0  0  0  0  0  0  0  0  0  0  0
   -2.1090    2.7963   -0.6279 O   0  0  0  0  0  0  0  0  0  0  0  0
   -0.4513    0.6145   -1.0979 O   0  0  0  0  0  0  0  0  0  0  0  0
    0.2294   -0.5787   -0.9956 C   0  0  1  0  0  0  0  0  0  0  0  0
    1.6405   -0.3553   -0.5320 C   0  0  0  0  0  0  0  0  0  0  0  0
    2.2734   -1.0889    0.4314 N   0  0  0  0  0  0  0  0  0  0  0  0
    3.4833   -0.6348    0.5909 N   0  0  0  0  0  0  0  0  0  0  0  0
    3.6024    0.3869   -0.2789 C   0  0  0  0  0  0  0  0  0  0  0  0
    4.8135    1.2312   -0.4725 C   0  0  0  0  0  0  0  0  0  0  0  0
    2.4815    0.5331   -0.9403 O   0  0  0  0  0  0  0  0  0  0  0  0
   -0.4115   -1.6248   -0.1667 C   0  0  2  0  0  0  0  0  0  0  0  0
   -0.9346   -2.6305   -1.0050 O   0  0  0  0  0  0  0  0  0  0  0  0
   -1.4275   -1.1953    0.8310 C   0  0  1  0  0  0  0  0  0  0  0  0
   -1.0253   -1.4126    2.1657 O   0  0  0  0  0  0  0  0  0  0  0  0
   -1.8914    0.2365    0.6452 C   0  0  2  0  0  0  0  0  0  0  0  0
   -3.1245    0.4769    1.1911 O   0  0  0  0  0  0  0  0  0  0  0  0
   -2.2366   -0.4424   -1.3459 H   0  0  0  0  0  0  0  0  0  0  0  0
   -2.2982    1.8200   -2.3769 H   0  0  0  0  0  0  0  0  0  0  0  0
   -3.6458    1.5399   -1.2640 H   0  0  0  0  0  0  0  0  0  0  0  0
   -2.0545    2.6078    0.3434 H   0  0  0  0  0  0  0  0  0  0  0  0
    0.3486   -0.9354   -2.0540 H   0  0  0  0  0  0  0  0  0  0  0  0
    5.5141    1.0500    0.3768 H   0  0  0  0  0  0  0  0  0  0  0  0
    4.5745    2.3063   -0.5042 H   0  0  0  0  0  0  0  0  0  0  0  0
    5.3967    0.9232   -1.3855 H   0  0  0  0  0  0  0  0  0  0  0  0
    0.3821   -2.1738    0.4243 H   0  0  0  0  0  0  0  0  0  0  0  0
   -0.9126   -3.4991   -0.5611 H   0  0  0  0  0  0  0  0  0  0  0  0
   -2.3538   -1.7986    0.7119 H   0  0  0  0  0  0  0  0  0  0  0  0
   -1.2042   -2.3567    2.4189 H   0  0  0  0  0  0  0  0  0  0  0  0
   -1.1624    0.9234    1.1515 H   0  0  0  0  0  0  0  0  0  0  0  0
   -3.1242    1.1457    1.9223 H   0  0  0  0  0  0  0  0  0  0  0  0
  1  2  1  0
  2  3  1  0
  1  4  1  0
  4  5  1  0
  5  6  1  0
  6  7  2  0
  7  8  1  0
  8  9  2  0
  9 10  1  0
  9 11  1  0
  5 12  1  0
 12 13  1  0
 12 14  1  0
 14 15  1  0
 14 16  1  0
 16 17  1  0
 16  1  1  0
 11  6  1  0
  1 18  1  6
  2 19  1  0
  2 20  1  0
  3 21  1  0
  5 22  1  6
 10 23  1  0
 10 24  1  0
 10 25  1  0
 12 26  1  1
 13 27  1  0
 14 28  1  6
 15 29  1  0
 16 30  1  1
 17 31  1  0
M  END
$$$$
