@<TRIPOS>MOLECULE
*****
 61 63 0 0 0
SMALL
GASTEIGER

@<TRIPOS>ATOM
      1 C           5.3025   -1.1248   -2.8361 C.3     1  UNL1        0.0790
      2 O           5.8916   -0.3508   -1.8089 O.3     1  UNL1       -0.4913
      3 C           5.1345   -0.1170   -0.6701 C.ar    1  UNL1        0.1655
      4 C           3.8655   -0.5986   -0.5094 C.ar    1  UNL1       -0.0097
      5 C           3.1065   -0.3626    0.6357 C.ar    1  UNL1       -0.0033
      6 C           1.7461   -0.9256    0.7188 C.3     1  UNL1        0.1152
      7 O           0.7750   -0.0291    0.1968 O.3     1  UNL1       -0.4804
      8 C          -0.5740   -0.3439    0.1704 C.ar    1  UNL1        0.2041
      9 C          -1.3725   -0.0132    1.2395 C.ar    1  UNL1        0.1655
     10 O          -0.7654    0.6362    2.3169 O.3     1  UNL1       -0.4913
     11 C          -1.5955    0.9713    3.4097 C.3     1  UNL1        0.0790
     12 C          -2.7033   -0.3243    1.2122 C.ar    1  UNL1       -0.0126
     13 C          -3.3263   -0.9751    0.1394 C.ar    1  UNL1       -0.0358
     14 C          -4.7834   -1.2877    0.1976 C.3     1  UNL1        0.0025
     15 C          -5.6486   -0.1534   -0.1446 C.ar    1  UNL1        0.0146
     16 C          -6.2960    0.5671    0.8729 C.ar    1  UNL1        0.0379
     17 N          -7.0744    1.6030    0.5159 N.ar    1  UNL1       -0.2227
     18 C          -7.2624    1.9802   -0.7561 C.ar    1  UNL1        0.2142
     19 N          -8.1046    3.0897   -1.0343 N.pl3   1  UNL1       -0.3274
     20 N          -6.6404    1.2865   -1.7221 N.ar    1  UNL1       -0.1999
     21 C          -5.8320    0.2208   -1.4473 C.ar    1  UNL1        0.1247
     22 N          -5.2060   -0.4816   -2.4929 N.pl3   1  UNL1       -0.3428
     23 C          -2.5065   -1.2949   -0.9160 C.ar    1  UNL1       -0.0126
     24 C          -1.1606   -0.9932   -0.9159 C.ar    1  UNL1        0.1655
     25 O          -0.3243   -1.3119   -1.9775 O.3     1  UNL1       -0.4913
     26 C          -0.9013   -1.9811   -3.1096 C.3     1  UNL1        0.0790
     27 C           3.6633    0.3854    1.6395 C.ar    1  UNL1       -0.0097
     28 C           4.9530    0.8894    1.5056 C.ar    1  UNL1        0.1655
     29 O           5.5320    1.6401    2.4958 O.3     1  UNL1       -0.4913
     30 C           4.8884    1.9624    3.7135 C.3     1  UNL1        0.0790
     31 C           5.6865    0.6436    0.3634 C.ar    1  UNL1        0.2035
     32 O           6.9815    1.1244    0.1782 O.3     1  UNL1       -0.4885
     33 C           8.0321    0.2712    0.6288 C.3     1  UNL1        0.0791
     34 H           6.0951   -1.4013   -3.5849 H       1  UNL1        0.0660
     35 H           4.8577   -2.0726   -2.4193 H       1  UNL1        0.0660
     36 H           4.5704   -0.5213   -3.3925 H       1  UNL1        0.0660
     37 H           3.4205   -1.1817   -1.2830 H       1  UNL1        0.0659
     38 H           1.7028   -1.8417    0.0936 H       1  UNL1        0.0748
     39 H           1.4781   -1.2518    1.7502 H       1  UNL1        0.0748
     40 H          -0.9601    1.2860    4.2824 H       1  UNL1        0.0660
     41 H          -2.2150    0.1260    3.7542 H       1  UNL1        0.0660
     42 H          -2.2521    1.8381    3.1908 H       1  UNL1        0.0660
     43 H          -3.3228   -0.0653    2.0469 H       1  UNL1        0.0658
     44 H          -4.9326   -2.1570   -0.4927 H       1  UNL1        0.0363
     45 H          -4.9968   -1.6863    1.2147 H       1  UNL1        0.0363
     46 H          -6.1465    0.2670    1.8893 H       1  UNL1        0.0834
     47 H          -9.0717    3.1689   -0.6093 H       1  UNL1        0.1452
     48 H          -7.8339    3.8780   -1.6586 H       1  UNL1        0.1452
     49 H          -5.2257   -1.5179   -2.4889 H       1  UNL1        0.1437
     50 H          -4.7228   -0.0002   -3.2721 H       1  UNL1        0.1437
     51 H          -2.9053   -1.7967   -1.7644 H       1  UNL1        0.0658
     52 H          -1.3665   -2.9434   -2.8125 H       1  UNL1        0.0660
     53 H          -1.7134   -1.3576   -3.5250 H       1  UNL1        0.0660
     54 H          -0.1425   -2.2142   -3.8654 H       1  UNL1        0.0660
     55 H           3.1284    0.5982    2.5398 H       1  UNL1        0.0659
     56 H           5.4292    2.7485    4.2639 H       1  UNL1        0.0660
     57 H           3.8692    2.3339    3.4939 H       1  UNL1        0.0660
     58 H           4.7760    1.0932    4.3900 H       1  UNL1        0.0660
     59 H           8.3424    0.5024    1.6579 H       1  UNL1        0.0660
     60 H           8.9320    0.3672   -0.0149 H       1  UNL1        0.0660
     61 H           7.7248   -0.8009    0.6093 H       1  UNL1        0.0660
@<TRIPOS>BOND
     1     1     2    1
     2     2     3    1
     3     3     4   ar
     4     4     5   ar
     5     5     6    1
     6     6     7    1
     7     7     8    1
     8     8     9   ar
     9     9    10    1
    10    10    11    1
    11     9    12   ar
    12    12    13   ar
    13    13    14    1
    14    14    15    1
    15    15    16   ar
    16    16    17   ar
    17    17    18   ar
    18    18    19    1
    19    18    20   ar
    20    20    21   ar
    21    21    22    1
    22    13    23   ar
    23    23    24   ar
    24    24    25    1
    25    25    26    1
    26     5    27   ar
    27    27    28   ar
    28    28    29    1
    29    29    30    1
    30    28    31   ar
    31    31    32    1
    32    32    33    1
    33    31     3   ar
    34    24     8   ar
    35    21    15   ar
    36     1    34    1
    37     1    35    1
    38     1    36    1
    39     4    37    1
    40     6    38    1
    41     6    39    1
    42    11    40    1
    43    11    41    1
    44    11    42    1
    45    12    43    1
    46    14    44    1
    47    14    45    1
    48    16    46    1
    49    19    47    1
    50    19    48    1
    51    22    49    1
    52    22    50    1
    53    23    51    1
    54    26    52    1
    55    26    53    1
    56    26    54    1
    57    27    55    1
    58    30    56    1
    59    30    57    1
    60    30    58    1
    61    33    59    1
    62    33    60    1
    63    33    61    1
