@<TRIPOS>MOLECULE
*****
 42 44 0 0 0
SMALL
GASTEIGER

@<TRIPOS>ATOM
      1 C           3.6354    1.2170    0.8204 C.3     1  UNL1       -0.0362
      2 C           2.6454    0.2448    0.3009 C.ar    1  UNL1       -0.0082
      3 C           1.3164    0.6504    0.2516 C.ar    1  UNL1       -0.0476
      4 C           0.3418   -0.1864   -0.2127 C.ar    1  UNL1        0.0111
      5 C          -1.0942    0.1797   -0.2899 C.3     1  UNL1        0.2646
      6 C          -1.8796   -0.8615    0.4387 C.ar    1  UNL1        0.0107
      7 C          -1.6796   -0.9973    1.7879 C.ar    1  UNL1       -0.0540
      8 C          -2.3952   -1.9533    2.4815 C.ar    1  UNL1       -0.0614
      9 C          -3.2907   -2.7416    1.7871 C.ar    1  UNL1       -0.0617
     10 C          -3.5065   -2.6207    0.4299 C.ar    1  UNL1       -0.0614
     11 C          -2.7737   -1.6543   -0.2326 C.ar    1  UNL1       -0.0540
     12 N          -1.5817    0.2745   -1.6113 N.2     1  UNL1       -0.0891
     13 C          -2.0554    1.4205   -1.8852 C.2     1  UNL1        0.3731
     14 N          -2.6318    1.8371   -3.1590 N.pl3   1  UNL1       -0.2512
     15 N          -1.9504    2.2540   -0.7458 N.am    1  UNL1       -0.1614
     16 C          -2.3912    3.6502   -0.6772 C.3     1  UNL1        0.0573
     17 C          -1.3529    1.5141    0.3031 C.2     1  UNL1        0.3303
     18 O          -1.1013    1.8935    1.4600 O.2     1  UNL1       -0.2520
     19 C           0.7458   -1.4363   -0.6231 C.ar    1  UNL1       -0.0506
     20 C           2.0367   -1.8569   -0.5853 C.ar    1  UNL1       -0.0191
     21 C           3.0672   -1.0011   -0.1053 C.ar    1  UNL1        0.1298
     22 O           4.3207   -1.4703   -0.0915 O.3     1  UNL1       -0.4340
     23 C           5.5840   -1.1797    0.2096 C.3     1  UNL1        0.3893
     24 F           6.3553   -1.2721   -0.9751 F       1  UNL1       -0.1663
     25 F           6.1991   -2.1356    1.0598 F       1  UNL1       -0.1663
     26 H           4.3947    1.4863    0.0892 H       1  UNL1        0.0279
     27 H           3.0876    2.1577    1.1087 H       1  UNL1        0.0279
     28 H           4.0902    0.7637    1.7214 H       1  UNL1        0.0279
     29 H           1.0246    1.6532    0.5830 H       1  UNL1        0.0625
     30 H          -0.9761   -0.3643    2.2810 H       1  UNL1        0.0622
     31 H          -2.2623   -2.0905    3.5578 H       1  UNL1        0.0618
     32 H          -3.8611   -3.4978    2.3177 H       1  UNL1        0.0618
     33 H          -4.2223   -3.2615   -0.0840 H       1  UNL1        0.0618
     34 H          -2.9040   -1.5176   -1.2959 H       1  UNL1        0.0622
     35 H          -3.5818    1.5294   -3.4518 H       1  UNL1        0.2412
     36 H          -2.1034    2.4551   -3.8082 H       1  UNL1        0.2412
     37 H          -1.9644    4.2439   -1.5138 H       1  UNL1        0.0602
     38 H          -3.4886    3.7290   -0.6305 H       1  UNL1        0.0602
     39 H          -2.0026    4.0925    0.2719 H       1  UNL1        0.0602
     40 H          -0.0334   -2.1101   -0.9961 H       1  UNL1        0.0623
     41 H           2.3683   -2.8365   -0.9047 H       1  UNL1        0.0654
     42 H           5.8711   -0.2014    0.6180 H       1  UNL1        0.1520
@<TRIPOS>BOND
     1     1     2    1
     2     2     3   ar
     3     3     4   ar
     4     5     4    1
     5     5     6    1
     6     6     7   ar
     7     7     8   ar
     8     8     9   ar
     9     9    10   ar
    10    10    11   ar
    11     5    12    1
    12    12    13    2
    13    13    14    1
    14    13    15    1
    15    15    16    1
    16    15    17   am
    17    17    18    2
    18     4    19   ar
    19    19    20   ar
    20    20    21   ar
    21    21    22    1
    22    22    23    1
    23    23    24    1
    24    23    25    1
    25    21     2   ar
    26    17     5    1
    27    11     6   ar
    28     1    26    1
    29     1    27    1
    30     1    28    1
    31     3    29    1
    32     7    30    1
    33     8    31    1
    34     9    32    1
    35    10    33    1
    36    11    34    1
    37    14    35    1
    38    14    36    1
    39    16    37    1
    40    16    38    1
    41    16    39    1
    42    19    40    1
    43    20    41    1
    44    23    42    1
