
     RDKit          3D

 42 44  0  0  0  0  0  0  0  0999 V2000
    3.6354    1.2170    0.8204 C   0  0  0  0  0  0  0  0  0  0  0  0
    2.6454    0.2448    0.3009 C   0  0  0  0  0  0  0  0  0  0  0  0
    1.3164    0.6504    0.2516 C   0  0  0  0  0  0  0  0  0  0  0  0
    0.3418   -0.1864   -0.2127 C   0  0  0  0  0  0  0  0  0  0  0  0
   -1.0942    0.1797   -0.2899 C   0  0  2  0  0  0  0  0  0  0  0  0
   -1.8796   -0.8615    0.4387 C   0  0  0  0  0  0  0  0  0  0  0  0
   -1.6796   -0.9973    1.7879 C   0  0  0  0  0  0  0  0  0  0  0  0
   -2.3952   -1.9533    2.4815 C   0  0  0  0  0  0  0  0  0  0  0  0
   -3.2907   -2.7416    1.7871 C   0  0  0  0  0  0  0  0  0  0  0  0
   -3.5065   -2.6207    0.4299 C   0  0  0  0  0  0  0  0  0  0  0  0
   -2.7737   -1.6543   -0.2326 C   0  0  0  0  0  0  0  0  0  0  0  0
   -1.5817    0.2745   -1.6113 N   0  0  0  0  0  0  0  0  0  0  0  0
   -2.0554    1.4205   -1.8852 C   0  0  0  0  0  0  0  0  0  0  0  0
   -2.6318    1.8371   -3.1590 N   0  0  0  0  0  0  0  0  0  0  0  0
   -1.9504    2.2540   -0.7458 N   0  0  0  0  0  0  0  0  0  0  0  0
   -2.3912    3.6502   -0.6772 C   0  0  0  0  0  0  0  0  0  0  0  0
   -1.3529    1.5141    0.3031 C   0  0  0  0  0  0  0  0  0  0  0  0
   -1.1013    1.8935    1.4600 O   0  0  0  0  0  0  0  0  0  0  0  0
    0.7458   -1.4363   -0.6231 C   0  0  0  0  0  0  0  0  0  0  0  0
    2.0367   -1.8569   -0.5853 C   0  0  0  0  0  0  0  0  0  0  0  0
    3.0672   -1.0011   -0.1053 C   0  0  0  0  0  0  0  0  0  0  0  0
    4.3207   -1.4703   -0.0915 O   0  0  0  0  0  0  0  0  0  0  0  0
    5.5840   -1.1797    0.2096 C   0  0  0  0  0  0  0  0  0  0  0  0
    6.3553   -1.2721   -0.9751 F   0  0  0  0  0  0  0  0  0  0  0  0
    6.1991   -2.1356    1.0598 F   0  0  0  0  0  0  0  0  0  0  0  0
    4.3947    1.4863    0.0892 H   0  0  0  0  0  0  0  0  0  0  0  0
    3.0876    2.1577    1.1087 H   0  0  0  0  0  0  0  0  0  0  0  0
    4.0902    0.7637    1.7214 H   0  0  0  0  0  0  0  0  0  0  0  0
    1.0246    1.6532    0.5830 H   0  0  0  0  0  0  0  0  0  0  0  0
   -0.9761   -0.3643    2.2810 H   0  0  0  0  0  0  0  0  0  0  0  0
   -2.2623   -2.0905    3.5578 H   0  0  0  0  0  0  0  0  0  0  0  0
   -3.8611   -3.4978    2.3177 H   0  0  0  0  0  0  0  0  0  0  0  0
   -4.2223   -3.2615   -0.0840 H   0  0  0  0  0  0  0  0  0  0  0  0
   -2.9040   -1.5176   -1.2959 H   0  0  0  0  0  0  0  0  0  0  0  0
   -3.5818    1.5294   -3.4518 H   0  0  0  0  0  0  0  0  0  0  0  0
   -2.1034    2.4551   -3.8082 H   0  0  0  0  0  0  0  0  0  0  0  0
   -1.9644    4.2439   -1.5138 H   0  0  0  0  0  0  0  0  0  0  0  0
   -3.4886    3.7290   -0.6305 H   0  0  0  0  0  0  0  0  0  0  0  0
   -2.0026    4.0925    0.2719 H   0  0  0  0  0  0  0  0  0  0  0  0
   -0.0334   -2.1101   -0.9961 H   0  0  0  0  0  0  0  0  0  0  0  0
    2.3683   -2.8365   -0.9047 H   0  0  0  0  0  0  0  0  0  0  0  0
    5.8711   -0.2014    0.6180 H   0  0  0  0  0  0  0  0  0  0  0  0
  1  2  1  0
  2  3  2  0
  3  4  1  0
  5  4  1  6
  5  6  1  0
  6  7  2  0
  7  8  1  0
  8  9  2  0
  9 10  1  0
 10 11  2  0
  5 12  1  0
 12 13  2  0
 13 14  1  0
 13 15  1  0
 15 16  1  0
 15 17  1  0
 17 18  2  0
  4 19  2  0
 19 20  1  0
 20 21  2  0
 21 22  1  0
 22 23  1  0
 23 24  1  0
 23 25  1  0
 21  2  1  0
 17  5  1  0
 11  6  1  0
  1 26  1  0
  1 27  1  0
  1 28  1  0
  3 29  1  0
  7 30  1  0
  8 31  1  0
  9 32  1  0
 10 33  1  0
 11 34  1  0
 14 35  1  0
 14 36  1  0
 16 37  1  0
 16 38  1  0
 16 39  1  0
 19 40  1  0
 20 41  1  0
 23 42  1  0
M  END
$$$$
