
     RDKit          3D

 63 68  0  0  0  0  0  0  0  0999 V2000
   -8.1397    2.9308   -2.6397 C   0  0  0  0  0  0  0  0  0  0  0  0
   -7.2887    1.8799   -2.1859 N   0  0  0  0  0  0  0  0  0  0  0  0
   -6.5526    2.1282   -0.9973 C   0  0  0  0  0  0  0  0  0  0  0  0
   -5.0713    2.2028   -1.1369 C   0  0  0  0  0  0  0  0  0  0  0  0
   -4.4968    1.3443   -2.1173 N   0  0  0  0  0  0  0  0  0  0  0  0
   -4.4316   -0.0408   -1.7823 C   0  0  0  0  0  0  0  0  0  0  0  0
   -3.6120   -0.3450   -0.5769 C   0  0  0  0  0  0  0  0  0  0  0  0
   -4.2128   -0.3725    0.6646 C   0  0  0  0  0  0  0  0  0  0  0  0
   -3.5369   -0.6508    1.8309 C   0  0  0  0  0  0  0  0  0  0  0  0
   -2.1834   -0.9152    1.7401 C   0  0  0  0  0  0  0  0  0  0  0  0
   -1.5529   -0.8955    0.5192 C   0  0  0  0  0  0  0  0  0  0  0  0
   -2.2642   -0.6097   -0.6486 C   0  0  0  0  0  0  0  0  0  0  0  0
   -0.1175   -1.2165    0.7646 C   0  0  0  0  0  0  0  0  0  0  0  0
   -0.0236   -1.4205    2.2244 C   0  0  0  0  0  0  0  0  0  0  0  0
   -1.2488   -1.2404    2.8180 C   0  0  0  0  0  0  0  0  0  0  0  0
   -1.0999   -1.4393    4.1504 N   0  0  0  0  0  0  0  0  0  0  0  0
    0.1831   -1.7325    4.3575 N   0  0  0  0  0  0  0  0  0  0  0  0
    0.8630   -1.7327    3.2360 C   0  0  0  0  0  0  0  0  0  0  0  0
    2.3357   -2.0190    3.0726 C   0  0  0  0  0  0  0  0  0  0  0  0
    3.0922   -2.3517    4.2773 C   0  0  0  0  0  0  0  0  0  0  0  0
    4.7582   -2.5930    3.5936 S   0  0  0  0  0  0  0  0  0  0  0  0
    4.3145   -2.2411    1.8223 C   0  0  0  0  0  0  0  0  0  0  0  0
    5.2560   -2.2711    0.7535 C   0  0  0  0  0  0  0  0  0  0  0  0
    6.0518   -2.3163   -0.1419 C   0  0  0  0  0  0  0  0  0  0  0  0
    7.0403   -2.3783   -1.2173 C   0  0  0  0  0  0  0  0  0  0  0  0
    8.2685   -1.7989   -0.9098 O   0  0  0  0  0  0  0  0  0  0  0  0
    8.4361   -0.4774   -0.5746 C   0  0  0  0  0  0  0  0  0  0  0  0
    7.3601    0.3638   -0.5306 C   0  0  0  0  0  0  0  0  0  0  0  0
    7.5645    1.7050   -0.1846 C   0  0  0  0  0  0  0  0  0  0  0  0
    8.8200    2.1768    0.1075 C   0  0  0  0  0  0  0  0  0  0  0  0
    9.8899    1.3194    0.0585 C   0  0  0  0  0  0  0  0  0  0  0  0
    9.6943   -0.0143   -0.2846 C   0  0  0  0  0  0  0  0  0  0  0  0
    3.0045   -1.9897    1.9399 C   0  0  0  0  0  0  0  0  0  0  0  0
   -5.2083    1.4843   -3.3702 C   0  0  0  0  0  0  0  0  0  0  0  0
   -6.6469    1.1173   -3.2008 C   0  0  0  0  0  0  0  0  0  0  0  0
   -9.0924    2.9774   -2.0716 H   0  0  0  0  0  0  0  0  0  0  0  0
   -7.6716    3.9145   -2.6904 H   0  0  0  0  0  0  0  0  0  0  0  0
   -8.4437    2.6679   -3.6938 H   0  0  0  0  0  0  0  0  0  0  0  0
   -6.8967    3.1379   -0.6186 H   0  0  0  0  0  0  0  0  0  0  0  0
   -6.8864    1.4240   -0.2059 H   0  0  0  0  0  0  0  0  0  0  0  0
   -4.7863    3.2450   -1.4006 H   0  0  0  0  0  0  0  0  0  0  0  0
   -4.6226    1.9644   -0.1403 H   0  0  0  0  0  0  0  0  0  0  0  0
   -5.4929   -0.3632   -1.5650 H   0  0  0  0  0  0  0  0  0  0  0  0
   -4.1166   -0.6651   -2.6390 H   0  0  0  0  0  0  0  0  0  0  0  0
   -5.2864   -0.1657    0.7607 H   0  0  0  0  0  0  0  0  0  0  0  0
   -4.0083   -0.6709    2.8003 H   0  0  0  0  0  0  0  0  0  0  0  0
   -1.7510   -0.5990   -1.5803 H   0  0  0  0  0  0  0  0  0  0  0  0
    0.4679   -0.3559    0.4043 H   0  0  0  0  0  0  0  0  0  0  0  0
    0.2154   -2.1018    0.1860 H   0  0  0  0  0  0  0  0  0  0  0  0
    0.5484   -1.9296    5.3139 H   0  0  0  0  0  0  0  0  0  0  0  0
    2.8069   -2.4379    5.2592 H   0  0  0  0  0  0  0  0  0  0  0  0
    6.5996   -1.8111   -2.0748 H   0  0  0  0  0  0  0  0  0  0  0  0
    7.2271   -3.4261   -1.5492 H   0  0  0  0  0  0  0  0  0  0  0  0
    6.3446    0.0320   -0.7575 H   0  0  0  0  0  0  0  0  0  0  0  0
    6.6863    2.3363   -0.1618 H   0  0  0  0  0  0  0  0  0  0  0  0
    8.9268    3.2275    0.3696 H   0  0  0  0  0  0  0  0  0  0  0  0
   10.8708    1.6711    0.2826 H   0  0  0  0  0  0  0  0  0  0  0  0
   10.5740   -0.6376   -0.3065 H   0  0  0  0  0  0  0  0  0  0  0  0
    2.4600   -1.7319    0.9536 H   0  0  0  0  0  0  0  0  0  0  0  0
   -4.7652    0.7942   -4.1111 H   0  0  0  0  0  0  0  0  0  0  0  0
   -5.1511    2.5468   -3.6937 H   0  0  0  0  0  0  0  0  0  0  0  0
   -6.8060    0.0228   -3.0619 H   0  0  0  0  0  0  0  0  0  0  0  0
   -7.1952    1.3434   -4.1614 H   0  0  0  0  0  0  0  0  0  0  0  0
  1  2  1  0
  2  3  1  0
  3  4  1  0
  4  5  1  0
  5  6  1  0
  6  7  1  0
  7  8  2  0
  8  9  1  0
  9 10  2  0
 10 11  1  0
 11 12  2  0
 11 13  1  0
 13 14  1  0
 14 15  1  0
 15 16  2  0
 16 17  1  0
 17 18  1  0
 18 19  1  0
 19 20  2  0
 20 21  1  0
 21 22  1  0
 22 23  1  0
 23 24  3  0
 24 25  1  0
 25 26  1  0
 26 27  1  0
 27 28  2  0
 28 29  1  0
 29 30  2  0
 30 31  1  0
 31 32  2  0
 22 33  2  0
  5 34  1  0
 34 35  1  0
 35  2  1  0
 12  7  1  0
 18 14  2  0
 33 19  1  0
 15 10  1  0
 32 27  1  0
  1 36  1  0
  1 37  1  0
  1 38  1  0
  3 39  1  0
  3 40  1  0
  4 41  1  0
  4 42  1  0
  6 43  1  0
  6 44  1  0
  8 45  1  0
  9 46  1  0
 12 47  1  0
 13 48  1  0
 13 49  1  0
 17 50  1  0
 20 51  1  0
 25 52  1  0
 25 53  1  0
 28 54  1  0
 29 55  1  0
 30 56  1  0
 31 57  1  0
 32 58  1  0
 33 59  1  0
 34 60  1  0
 34 61  1  0
 35 62  1  0
 35 63  1  0
M  END
$$$$
