@<TRIPOS>MOLECULE
*****
 63 68 0 0 0
SMALL
GASTEIGER

@<TRIPOS>ATOM
      1 C          -8.1397    2.9308   -2.6397 C.3     1  UNL1       -0.0127
      2 N          -7.2887    1.8799   -2.1859 N.3     1  UNL1       -0.3029
      3 C          -6.5526    2.1282   -0.9973 C.3     1  UNL1        0.0114
      4 C          -5.0713    2.2028   -1.1369 C.3     1  UNL1        0.0120
      5 N          -4.4968    1.3443   -2.1173 N.3     1  UNL1       -0.2957
      6 C          -4.4316   -0.0408   -1.7823 C.3     1  UNL1        0.0241
      7 C          -3.6120   -0.3450   -0.5769 C.ar    1  UNL1       -0.0331
      8 C          -4.2128   -0.3725    0.6646 C.ar    1  UNL1       -0.0567
      9 C          -3.5369   -0.6508    1.8309 C.ar    1  UNL1       -0.0519
     10 C          -2.1834   -0.9152    1.7401 C.ar    1  UNL1        0.0059
     11 C          -1.5529   -0.8955    0.5192 C.ar    1  UNL1       -0.0334
     12 C          -2.2642   -0.6097   -0.6486 C.ar    1  UNL1       -0.0532
     13 C          -0.1175   -1.2165    0.7646 C.3     1  UNL1        0.0023
     14 C          -0.0236   -1.4205    2.2244 C.ar    1  UNL1        0.0099
     15 C          -1.2488   -1.2404    2.8180 C.ar    1  UNL1        0.0968
     16 N          -1.0999   -1.4393    4.1504 N.ar    1  UNL1       -0.1730
     17 N           0.1831   -1.7325    4.3575 N.ar    1  UNL1       -0.2761
     18 C           0.8630   -1.7327    3.2360 C.ar    1  UNL1        0.0704
     19 C           2.3357   -2.0190    3.0726 C.ar    1  UNL1        0.0083
     20 C           3.0922   -2.3517    4.2773 C.ar    1  UNL1       -0.0140
     21 S           4.7582   -2.5930    3.5936 S.2     1  UNL1       -0.0876
     22 C           4.3145   -2.2411    1.8223 C.ar    1  UNL1        0.0627
     23 C           5.2560   -2.2711    0.7535 C.1     1  UNL1       -0.0558
     24 C           6.0518   -2.3163   -0.1419 C.1     1  UNL1       -0.0557
     25 C           7.0403   -2.3783   -1.2173 C.3     1  UNL1        0.1502
     26 O           8.2685   -1.7989   -0.9098 O.3     1  UNL1       -0.4795
     27 C           8.4361   -0.4774   -0.5746 C.ar    1  UNL1        0.1219
     28 C           7.3601    0.3638   -0.5306 C.ar    1  UNL1       -0.0199
     29 C           7.5645    1.7050   -0.1846 C.ar    1  UNL1       -0.0583
     30 C           8.8200    2.1768    0.1075 C.ar    1  UNL1       -0.0615
     31 C           9.8899    1.3194    0.0585 C.ar    1  UNL1       -0.0583
     32 C           9.6943   -0.0143   -0.2846 C.ar    1  UNL1       -0.0199
     33 C           3.0045   -1.9897    1.9399 C.ar    1  UNL1       -0.0300
     34 C          -5.2083    1.4843   -3.3702 C.3     1  UNL1        0.0120
     35 C          -6.6469    1.1173   -3.2008 C.3     1  UNL1        0.0114
     36 H          -9.0924    2.9774   -2.0716 H       1  UNL1        0.0391
     37 H          -7.6716    3.9145   -2.6904 H       1  UNL1        0.0391
     38 H          -8.4437    2.6679   -3.6938 H       1  UNL1        0.0391
     39 H          -6.8967    3.1379   -0.6186 H       1  UNL1        0.0439
     40 H          -6.8864    1.4240   -0.2059 H       1  UNL1        0.0439
     41 H          -4.7863    3.2450   -1.4006 H       1  UNL1        0.0439
     42 H          -4.6226    1.9644   -0.1403 H       1  UNL1        0.0439
     43 H          -5.4929   -0.3632   -1.5650 H       1  UNL1        0.0476
     44 H          -4.1166   -0.6651   -2.6390 H       1  UNL1        0.0476
     45 H          -5.2864   -0.1657    0.7607 H       1  UNL1        0.0621
     46 H          -4.0083   -0.6709    2.8003 H       1  UNL1        0.0624
     47 H          -1.7510   -0.5990   -1.5803 H       1  UNL1        0.0624
     48 H           0.4679   -0.3559    0.4043 H       1  UNL1        0.0363
     49 H           0.2154   -2.1018    0.1860 H       1  UNL1        0.0363
     50 H           0.5484   -1.9296    5.3139 H       1  UNL1        0.1889
     51 H           2.8069   -2.4379    5.2592 H       1  UNL1        0.0700
     52 H           6.5996   -1.8111   -2.0748 H       1  UNL1        0.0837
     53 H           7.2271   -3.4261   -1.5492 H       1  UNL1        0.0837
     54 H           6.3446    0.0320   -0.7575 H       1  UNL1        0.0654
     55 H           6.6863    2.3363   -0.1618 H       1  UNL1        0.0619
     56 H           8.9268    3.2275    0.3696 H       1  UNL1        0.0618
     57 H          10.8708    1.6711    0.2826 H       1  UNL1        0.0619
     58 H          10.5740   -0.6376   -0.3065 H       1  UNL1        0.0654
     59 H           2.4600   -1.7319    0.9536 H       1  UNL1        0.0642
     60 H          -4.7652    0.7942   -4.1111 H       1  UNL1        0.0439
     61 H          -5.1511    2.5468   -3.6937 H       1  UNL1        0.0439
     62 H          -6.8060    0.0228   -3.0619 H       1  UNL1        0.0439
     63 H          -7.1952    1.3434   -4.1614 H       1  UNL1        0.0439
@<TRIPOS>BOND
     1     1     2    1
     2     2     3    1
     3     3     4    1
     4     4     5    1
     5     5     6    1
     6     6     7    1
     7     7     8   ar
     8     8     9   ar
     9     9    10   ar
    10    10    11   ar
    11    11    12   ar
    12    11    13    1
    13    13    14    1
    14    14    15   ar
    15    15    16   ar
    16    16    17   ar
    17    17    18   ar
    18    18    19    1
    19    19    20   ar
    20    20    21   ar
    21    21    22   ar
    22    22    23    1
    23    23    24    3
    24    24    25    1
    25    25    26    1
    26    26    27    1
    27    27    28   ar
    28    28    29   ar
    29    29    30   ar
    30    30    31   ar
    31    31    32   ar
    32    22    33   ar
    33     5    34    1
    34    34    35    1
    35    35     2    1
    36    12     7   ar
    37    18    14   ar
    38    33    19   ar
    39    15    10    1
    40    32    27   ar
    41     1    36    1
    42     1    37    1
    43     1    38    1
    44     3    39    1
    45     3    40    1
    46     4    41    1
    47     4    42    1
    48     6    43    1
    49     6    44    1
    50     8    45    1
    51     9    46    1
    52    12    47    1
    53    13    48    1
    54    13    49    1
    55    17    50    1
    56    20    51    1
    57    25    52    1
    58    25    53    1
    59    28    54    1
    60    29    55    1
    61    30    56    1
    62    31    57    1
    63    32    58    1
    64    33    59    1
    65    34    60    1
    66    34    61    1
    67    35    62    1
    68    35    63    1
