@<TRIPOS>MOLECULE
*****
 54 58 0 0 0
SMALL
GASTEIGER

@<TRIPOS>ATOM
      1 C           9.1734    3.1485   -0.2189 C.3     1  UNL1        0.0302
      2 N           8.2264    2.2115    0.3888 N.ar    1  UNL1       -0.2738
      3 C           7.1047    1.6941   -0.1493 C.ar    1  UNL1        0.0343
      4 C           6.4895    0.8475    0.7417 C.ar    1  UNL1        0.0357
      5 C           5.2626    0.0738    0.5852 C.ar    1  UNL1        0.0505
      6 C           4.7038   -0.7930    1.5091 C.ar    1  UNL1       -0.0271
      7 C           3.5512   -1.3552    1.0062 C.ar    1  UNL1        0.0185
      8 C           2.6223   -2.2583    1.4634 C.ar    1  UNL1        0.0389
      9 N           1.6099   -2.5816    0.6666 N.ar    1  UNL1       -0.2395
     10 C           1.4329   -2.0760   -0.5730 C.ar    1  UNL1        0.1249
     11 N           0.3344   -2.4884   -1.3880 N.pl3   1  UNL1       -0.2982
     12 C          -1.0129   -2.1743   -1.0793 C.ar    1  UNL1        0.0510
     13 C          -1.3905   -1.4537    0.0307 C.ar    1  UNL1       -0.0384
     14 C          -2.7333   -1.1764    0.3155 C.ar    1  UNL1       -0.0478
     15 C          -3.7358   -1.6207   -0.5161 C.ar    1  UNL1        0.0384
     16 C          -5.1452   -1.3444   -0.2149 C.2     1  UNL1        0.2467
     17 O          -5.8851   -2.3516    0.0678 O.2     1  UNL1       -0.2700
     18 N          -5.7241   -0.0688   -0.2172 N.am    1  UNL1       -0.2944
     19 C          -7.1363    0.0656    0.0966 C.3     1  UNL1        0.0344
     20 C          -7.2676    0.7190    1.4543 C.3     1  UNL1        0.0815
     21 S          -6.5983    2.3734    1.2519 S.O2    1  UNL1       -0.0281
     22 O          -7.4443    3.0952    0.2441 O.2     1  UNL1       -0.1743
     23 O          -6.4726    3.0805    2.5465 O.2     1  UNL1       -0.1743
     24 C          -4.9562    2.1421    0.5810 C.3     1  UNL1        0.0815
     25 C          -4.9433    1.1131   -0.5277 C.3     1  UNL1        0.0344
     26 C          -3.3616   -2.3421   -1.6299 C.ar    1  UNL1       -0.0295
     27 C          -2.0425   -2.6152   -1.9106 C.ar    1  UNL1        0.0628
     28 CL         -1.5724   -3.5333   -3.3320 Cl      1  UNL1       -0.0816
     29 C           2.3415   -1.1767   -1.0496 C.ar    1  UNL1        0.0023
     30 C           3.4095   -0.8025   -0.2758 C.ar    1  UNL1        0.0516
     31 N           4.4504    0.0389   -0.4771 N.ar    1  UNL1       -0.3539
     32 C           7.2963    0.8694    1.8681 C.ar    1  UNL1        0.0585
     33 N           8.3205    1.7038    1.5967 N.ar    1  UNL1       -0.1792
     34 H          10.2025    2.7684   -0.0225 H       1  UNL1        0.0473
     35 H           9.0477    4.1205    0.2663 H       1  UNL1        0.0473
     36 H           8.9658    3.2343   -1.3009 H       1  UNL1        0.0473
     37 H           6.7315    1.9072   -1.1410 H       1  UNL1        0.0833
     38 H           5.1033   -1.0134    2.5000 H       1  UNL1        0.0645
     39 H           2.7169   -2.6845    2.4330 H       1  UNL1        0.0837
     40 H           0.5609   -3.0420   -2.2391 H       1  UNL1        0.1536
     41 H          -0.6061   -1.0941    0.7013 H       1  UNL1        0.0637
     42 H          -3.0007   -0.6041    1.2013 H       1  UNL1        0.0626
     43 H          -7.6266   -0.9299    0.0981 H       1  UNL1        0.0480
     44 H          -7.6638    0.6936   -0.6360 H       1  UNL1        0.0480
     45 H          -6.6883    0.2234    2.2426 H       1  UNL1        0.0515
     46 H          -8.3452    0.7489    1.6938 H       1  UNL1        0.0515
     47 H          -4.3350    1.7861    1.4435 H       1  UNL1        0.0515
     48 H          -4.5851    3.0932    0.1659 H       1  UNL1        0.0515
     49 H          -5.2937    1.5781   -1.4567 H       1  UNL1        0.0480
     50 H          -3.8760    0.8033   -0.6449 H       1  UNL1        0.0480
     51 H          -4.1374   -2.6961   -2.2925 H       1  UNL1        0.0640
     52 H           2.1950   -0.7708   -2.0496 H       1  UNL1        0.0673
     53 H           4.5862    0.5857   -1.3609 H       1  UNL1        0.1659
     54 H           7.1407    0.3282    2.7832 H       1  UNL1        0.0854
@<TRIPOS>BOND
     1     1     2    1
     2     2     3   ar
     3     3     4   ar
     4     4     5    1
     5     5     6   ar
     6     6     7   ar
     7     7     8   ar
     8     8     9   ar
     9     9    10   ar
    10    10    11    1
    11    11    12    1
    12    12    13   ar
    13    13    14   ar
    14    14    15   ar
    15    15    16    1
    16    16    17    2
    17    16    18   am
    18    18    19    1
    19    19    20    1
    20    20    21    1
    21    21    22    2
    22    21    23    2
    23    21    24    1
    24    24    25    1
    25    15    26   ar
    26    26    27   ar
    27    27    28    1
    28    10    29   ar
    29    29    30   ar
    30    30    31   ar
    31     4    32   ar
    32    32    33   ar
    33    33     2   ar
    34    31     5   ar
    35    30     7   ar
    36    27    12   ar
    37    25    18    1
    38     1    34    1
    39     1    35    1
    40     1    36    1
    41     3    37    1
    42     6    38    1
    43     8    39    1
    44    11    40    1
    45    13    41    1
    46    14    42    1
    47    19    43    1
    48    19    44    1
    49    20    45    1
    50    20    46    1
    51    24    47    1
    52    24    48    1
    53    25    49    1
    54    25    50    1
    55    26    51    1
    56    29    52    1
    57    31    53    1
    58    32    54    1
