@<TRIPOS>MOLECULE
*****
 60 65 0 0 0
SMALL
GASTEIGER

@<TRIPOS>ATOM
      1 C          -6.9790   -2.2894    0.6497 C.3     1  UNL1       -0.0200
      2 C          -6.9259   -0.9334    0.0615 C.ar    1  UNL1        0.0674
      3 N          -7.9311   -0.1520   -0.3838 N.ar    1  UNL1       -0.1780
      4 N          -7.4510    0.9979   -0.8383 N.ar    1  UNL1       -0.2767
      5 C          -6.1153    0.9592   -0.6845 C.ar    1  UNL1        0.0660
      6 C          -5.1246    1.8744   -0.9841 C.ar    1  UNL1       -0.0357
      7 C          -3.8038    1.5682   -0.7150 C.ar    1  UNL1       -0.0519
      8 C          -3.4156    0.3720   -0.1513 C.ar    1  UNL1       -0.0150
      9 C          -2.0225    0.0821    0.1175 C.ar    1  UNL1        0.0117
     10 C          -1.0895    0.0209   -0.9133 C.ar    1  UNL1       -0.0087
     11 C           0.2357   -0.2573   -0.6350 C.ar    1  UNL1        0.1392
     12 O           1.1644   -0.3171   -1.6751 O.3     1  UNL1       -0.4889
     13 C           2.5266   -0.6081   -1.3448 C.3     1  UNL1        0.1050
     14 C           3.2731   -0.6087   -2.6454 C.3     1  UNL1        0.0435
     15 N           3.1551    0.6996   -3.3020 N.3     1  UNL1       -0.3242
     16 C           4.7208   -0.9521   -2.5374 C.3     1  UNL1       -0.0073
     17 C           5.5240   -0.0638   -1.7049 C.ar    1  UNL1       -0.0208
     18 C           6.2794    0.9865   -2.2024 C.ar    1  UNL1        0.0060
     19 N           6.8510    1.5987   -1.1795 N.ar    1  UNL1       -0.3604
     20 C           6.5131    1.0054   -0.0190 C.ar    1  UNL1        0.0467
     21 C           6.8573    1.2693    1.2869 C.ar    1  UNL1       -0.0378
     22 C           6.3534    0.4652    2.2767 C.ar    1  UNL1       -0.0598
     23 C           5.5171   -0.5885    1.9657 C.ar    1  UNL1       -0.0611
     24 C           5.1697   -0.8565    0.6625 C.ar    1  UNL1       -0.0523
     25 C           5.6707   -0.0508   -0.3514 C.ar    1  UNL1        0.0029
     26 C           0.6048   -0.4703    0.6768 C.ar    1  UNL1        0.0699
     27 N          -0.2955   -0.4127    1.6848 N.ar    1  UNL1       -0.2506
     28 C          -1.5833   -0.1410    1.4013 C.ar    1  UNL1        0.0819
     29 C          -2.5630   -0.0799    2.5033 C.ar    1  UNL1        0.0386
     30 C          -3.3220    0.9796    2.9178 C.ar    1  UNL1       -0.0147
     31 C          -4.0791    0.5251    3.9868 C.ar    1  UNL1        0.0923
     32 O          -3.7662   -0.7306    4.1714 O.2     1  UNL1       -0.4704
     33 C          -2.8789   -1.1362    3.3256 C.ar    1  UNL1        0.1008
     34 C          -4.4080   -0.5449    0.1490 C.ar    1  UNL1       -0.0430
     35 C          -5.7347   -0.2430   -0.1189 C.ar    1  UNL1        0.0230
     36 H          -6.2761   -2.9208    0.0631 H       1  UNL1        0.0293
     37 H          -7.9932   -2.7105    0.6550 H       1  UNL1        0.0293
     38 H          -6.5541   -2.2450    1.6783 H       1  UNL1        0.0293
     39 H          -8.0418    1.7612   -1.2333 H       1  UNL1        0.1889
     40 H          -5.4451    2.8086   -1.4259 H       1  UNL1        0.0639
     41 H          -3.0838    2.3446   -0.9817 H       1  UNL1        0.0624
     42 H          -1.4455    0.1968   -1.9116 H       1  UNL1        0.0661
     43 H           2.8213    0.1588   -0.6304 H       1  UNL1        0.0712
     44 H           2.5666   -1.6030   -0.8448 H       1  UNL1        0.0712
     45 H           2.7316   -1.3173   -3.3372 H       1  UNL1        0.0495
     46 H           2.4043    1.2731   -2.8508 H       1  UNL1        0.1186
     47 H           3.0119    0.5955   -4.3269 H       1  UNL1        0.1186
     48 H           5.1335   -0.9741   -3.5797 H       1  UNL1        0.0330
     49 H           4.7660   -1.9922   -2.1123 H       1  UNL1        0.0330
     50 H           6.3679    1.2368   -3.2399 H       1  UNL1        0.0810
     51 H           7.4820    2.4269   -1.2148 H       1  UNL1        0.1653
     52 H           7.5128    2.0907    1.5529 H       1  UNL1        0.0638
     53 H           6.6063    0.6466    3.3217 H       1  UNL1        0.0618
     54 H           5.1010   -1.2445    2.7213 H       1  UNL1        0.0618
     55 H           4.5260   -1.6844    0.4342 H       1  UNL1        0.0624
     56 H           1.6492   -0.6845    0.8531 H       1  UNL1        0.0867
     57 H          -3.3306    1.9672    2.4994 H       1  UNL1        0.0655
     58 H          -4.8027    1.0615    4.5871 H       1  UNL1        0.1029
     59 H          -2.4608   -2.1246    3.2731 H       1  UNL1        0.1036
     60 H          -4.1747   -1.5171    0.5987 H       1  UNL1        0.0631
@<TRIPOS>BOND
     1     1     2    1
     2     2     3   ar
     3     3     4   ar
     4     4     5   ar
     5     5     6   ar
     6     6     7   ar
     7     7     8   ar
     8     8     9    1
     9     9    10   ar
    10    10    11   ar
    11    11    12    1
    12    12    13    1
    13    13    14    1
    14    14    15    1
    15    14    16    1
    16    16    17    1
    17    17    18   ar
    18    18    19   ar
    19    19    20   ar
    20    20    21   ar
    21    21    22   ar
    22    22    23   ar
    23    23    24   ar
    24    24    25   ar
    25    11    26   ar
    26    26    27   ar
    27    27    28   ar
    28    28    29    1
    29    29    30   ar
    30    30    31   ar
    31    31    32   ar
    32    32    33   ar
    33     8    34   ar
    34    34    35   ar
    35    35     2   ar
    36    35     5   ar
    37    28     9   ar
    38    33    29   ar
    39    25    17   ar
    40    25    20   ar
    41     1    36    1
    42     1    37    1
    43     1    38    1
    44     4    39    1
    45     6    40    1
    46     7    41    1
    47    10    42    1
    48    13    43    1
    49    13    44    1
    50    14    45    1
    51    15    46    1
    52    15    47    1
    53    16    48    1
    54    16    49    1
    55    18    50    1
    56    19    51    1
    57    21    52    1
    58    22    53    1
    59    23    54    1
    60    24    55    1
    61    26    56    1
    62    30    57    1
    63    31    58    1
    64    33    59    1
    65    34    60    1
