@<TRIPOS>MOLECULE
*****
 50 52 0 0 0
SMALL
GASTEIGER

@<TRIPOS>ATOM
      1 C           8.2722    1.8947    0.1225 C.3     1  UNL1        0.0366
      2 O           8.4400    0.5395    0.0771 O.3     1  UNL1       -0.3796
      3 C           7.2887   -0.2048    0.0536 C.3     1  UNL1        0.0813
      4 C           6.4742    0.0171    1.2819 C.3     1  UNL1        0.1128
      5 O           5.3016   -0.6889    1.3593 O.3     1  UNL1       -0.4896
      6 C           4.1586   -0.7020    0.6319 C.ar    1  UNL1        0.1234
      7 C           3.1600   -1.6080    1.0097 C.ar    1  UNL1       -0.0008
      8 C           1.9603   -1.6991    0.3377 C.ar    1  UNL1        0.0579
      9 CL          0.7302   -2.8317    0.9114 Cl      1  UNL1       -0.0826
     10 C           1.6864   -0.9085   -0.7346 C.ar    1  UNL1        0.0735
     11 C           0.4845   -0.9761   -1.5302 C.2     1  UNL1        0.2472
     12 O           0.2097    0.0788   -2.2153 O.2     1  UNL1       -0.2701
     13 N          -0.4259   -2.0189   -1.6725 N.am    1  UNL1       -0.3072
     14 C          -1.6307   -2.0128   -2.4846 C.3     1  UNL1        0.0371
     15 C          -2.6914   -1.2763   -1.7462 C.ar    1  UNL1       -0.0303
     16 C          -2.9246    0.0413   -2.0018 C.ar    1  UNL1       -0.0565
     17 C          -3.9057    0.6972   -1.2913 C.ar    1  UNL1       -0.0537
     18 C          -4.6629    0.0771   -0.3320 C.ar    1  UNL1       -0.0177
     19 C          -5.6816    0.8459    0.3670 C.ar    1  UNL1       -0.0114
     20 C          -6.3883    1.8810   -0.2054 C.ar    1  UNL1       -0.0378
     21 C          -7.3550    2.5884    0.4934 C.ar    1  UNL1        0.0055
     22 N          -7.6417    2.2855    1.7725 N.ar    1  UNL1       -0.3291
     23 C          -6.9555    1.2769    2.3368 C.ar    1  UNL1        0.2493
     24 O          -7.2277    0.9909    3.5481 O.2     1  UNL1       -0.2679
     25 C          -5.9835    0.5402    1.6870 C.ar    1  UNL1        0.0105
     26 C          -4.4159   -1.2461   -0.0884 C.ar    1  UNL1       -0.0537
     27 C          -3.4484   -1.9485   -0.7683 C.ar    1  UNL1       -0.0565
     28 C           2.6806    0.0139   -1.1316 C.ar    1  UNL1        0.0579
     29 CL          2.3552    1.0509   -2.5201 Cl      1  UNL1       -0.0826
     30 C           3.8575    0.0830   -0.4476 C.ar    1  UNL1       -0.0008
     31 H           7.6835    2.2422   -0.7590 H       1  UNL1        0.0524
     32 H           7.8049    2.2962    1.0251 H       1  UNL1        0.0524
     33 H           9.2741    2.4261    0.0543 H       1  UNL1        0.0524
     34 H           7.6422   -1.2959    0.0326 H       1  UNL1        0.0593
     35 H           6.7172   -0.0564   -0.8759 H       1  UNL1        0.0593
     36 H           6.2996    1.1170    1.3888 H       1  UNL1        0.0720
     37 H           7.0966   -0.2611    2.1769 H       1  UNL1        0.0720
     38 H           3.3203   -2.2633    1.8522 H       1  UNL1        0.0669
     39 H          -0.2480   -2.9183   -1.1798 H       1  UNL1        0.1493
     40 H          -1.9644   -3.0344   -2.7514 H       1  UNL1        0.0512
     41 H          -1.4504   -1.4891   -3.4632 H       1  UNL1        0.0512
     42 H          -2.3547    0.5945   -2.7714 H       1  UNL1        0.0621
     43 H          -4.0730    1.7389   -1.5083 H       1  UNL1        0.0624
     44 H          -6.1481    2.1118   -1.2302 H       1  UNL1        0.0638
     45 H          -7.8977    3.4004    0.0172 H       1  UNL1        0.0808
     46 H          -8.3701    2.8082    2.3176 H       1  UNL1        0.1683
     47 H          -5.4450   -0.2720    2.1724 H       1  UNL1        0.0678
     48 H          -4.9989   -1.7581    0.6628 H       1  UNL1        0.0624
     49 H          -3.2101   -2.9787   -0.6216 H       1  UNL1        0.0621
     50 H           4.6010    0.8113   -0.7619 H       1  UNL1        0.0669
@<TRIPOS>BOND
     1     1     2    1
     2     2     3    1
     3     3     4    1
     4     4     5    1
     5     5     6    1
     6     6     7   ar
     7     7     8   ar
     8     8     9    1
     9     8    10   ar
    10    10    11    1
    11    11    12    2
    12    11    13   am
    13    13    14    1
    14    14    15    1
    15    15    16   ar
    16    16    17   ar
    17    17    18   ar
    18    18    19    1
    19    19    20   ar
    20    20    21   ar
    21    21    22   ar
    22    22    23   ar
    23    23    24    2
    24    23    25   ar
    25    18    26   ar
    26    26    27   ar
    27    10    28   ar
    28    28    29    1
    29    28    30   ar
    30    30     6   ar
    31    27    15   ar
    32    25    19   ar
    33     1    31    1
    34     1    32    1
    35     1    33    1
    36     3    34    1
    37     3    35    1
    38     4    36    1
    39     4    37    1
    40     7    38    1
    41    13    39    1
    42    14    40    1
    43    14    41    1
    44    16    42    1
    45    17    43    1
    46    20    44    1
    47    21    45    1
    48    22    46    1
    49    25    47    1
    50    26    48    1
    51    27    49    1
    52    30    50    1
