
     RDKit          3D

 43 45  0  0  0  0  0  0  0  0999 V2000
    4.5567    2.2755   -1.1983 C   0  0  0  0  0  0  0  0  0  0  0  0
    3.4624    1.5358   -0.5146 C   0  0  0  0  0  0  0  0  0  0  0  0
    2.2211    2.0948   -0.3016 C   0  0  0  0  0  0  0  0  0  0  0  0
    1.2443    1.3435    0.3453 C   0  0  0  0  0  0  0  0  0  0  0  0
    1.5091    0.0581    0.7690 C   0  0  0  0  0  0  0  0  0  0  0  0
    0.3043   -0.9610    1.6039 S   0  0  0  0  0  0  0  0  0  0  0  0
   -0.6572   -1.9272    0.4450 C   0  0  0  0  0  0  0  0  0  0  0  0
   -0.1985   -3.1793    0.0837 C   0  0  0  0  0  0  0  0  0  0  0  0
   -0.8849   -3.9842   -0.8060 C   0  0  0  0  0  0  0  0  0  0  0  0
   -2.0530   -3.5398   -1.3514 C   0  0  0  0  0  0  0  0  0  0  0  0
   -2.5101   -2.2825   -0.9861 C   0  0  0  0  0  0  0  0  0  0  0  0
   -1.8369   -1.4670   -0.0995 C   0  0  0  0  0  0  0  0  0  0  0  0
   -2.3438   -0.1986    0.2429 N   0  0  0  0  0  0  0  0  0  0  0  0
   -2.7067    0.1861    1.5897 C   0  0  0  0  0  0  0  0  0  0  0  0
   -2.8909    1.6801    1.5919 C   0  0  0  0  0  0  0  0  0  0  0  0
   -4.0559    1.9726    0.7804 N   0  0  0  0  0  0  0  0  0  0  0  0
   -3.8906    1.5183   -0.5825 C   0  0  0  0  0  0  0  0  0  0  0  0
   -2.5376    0.8237   -0.7670 C   0  0  0  0  0  0  0  0  0  0  0  0
    2.7613   -0.4893    0.5474 C   0  0  0  0  0  0  0  0  0  0  0  0
    3.7344    0.2469   -0.0921 C   0  0  0  0  0  0  0  0  0  0  0  0
    5.0875   -0.3706   -0.3210 C   0  0  0  0  0  0  0  0  0  0  0  0
    4.6621    1.8696   -2.2300 H   0  0  0  0  0  0  0  0  0  0  0  0
    4.3101    3.3565   -1.2342 H   0  0  0  0  0  0  0  0  0  0  0  0
    5.4947    2.0977   -0.6202 H   0  0  0  0  0  0  0  0  0  0  0  0
    2.0299    3.0852   -0.6326 H   0  0  0  0  0  0  0  0  0  0  0  0
    0.2756    1.7723    0.5146 H   0  0  0  0  0  0  0  0  0  0  0  0
    0.7300   -3.5398    0.5133 H   0  0  0  0  0  0  0  0  0  0  0  0
   -0.5147   -4.9784   -1.0889 H   0  0  0  0  0  0  0  0  0  0  0  0
   -2.6068   -4.1528   -2.0498 H   0  0  0  0  0  0  0  0  0  0  0  0
   -3.4478   -1.9813   -1.4535 H   0  0  0  0  0  0  0  0  0  0  0  0
   -1.9930   -0.1629    2.3554 H   0  0  0  0  0  0  0  0  0  0  0  0
   -3.6948   -0.2497    1.8867 H   0  0  0  0  0  0  0  0  0  0  0  0
   -2.0241    2.1426    1.0769 H   0  0  0  0  0  0  0  0  0  0  0  0
   -2.9627    2.0931    2.6017 H   0  0  0  0  0  0  0  0  0  0  0  0
   -4.8682    1.4693    1.1978 H   0  0  0  0  0  0  0  0  0  0  0  0
   -3.9020    2.3785   -1.2785 H   0  0  0  0  0  0  0  0  0  0  0  0
   -4.6864    0.8209   -0.9024 H   0  0  0  0  0  0  0  0  0  0  0  0
   -2.6483    0.2765   -1.7501 H   0  0  0  0  0  0  0  0  0  0  0  0
   -1.7076    1.5363   -0.8394 H   0  0  0  0  0  0  0  0  0  0  0  0
    2.9904   -1.5052    0.8753 H   0  0  0  0  0  0  0  0  0  0  0  0
    5.4522   -0.1454   -1.3432 H   0  0  0  0  0  0  0  0  0  0  0  0
    4.9807   -1.4808   -0.2557 H   0  0  0  0  0  0  0  0  0  0  0  0
    5.8159   -0.0379    0.4327 H   0  0  0  0  0  0  0  0  0  0  0  0
  1  2  1  0
  2  3  2  0
  3  4  1  0
  4  5  2  0
  5  6  1  0
  6  7  1  0
  7  8  2  0
  8  9  1  0
  9 10  2  0
 10 11  1  0
 11 12  2  0
 12 13  1  0
 13 14  1  0
 14 15  1  0
 15 16  1  0
 16 17  1  0
 17 18  1  0
  5 19  1  0
 19 20  2  0
 20 21  1  0
 20  2  1  0
 12  7  1  0
 18 13  1  0
  1 22  1  0
  1 23  1  0
  1 24  1  0
  3 25  1  0
  4 26  1  0
  8 27  1  0
  9 28  1  0
 10 29  1  0
 11 30  1  0
 14 31  1  0
 14 32  1  0
 15 33  1  0
 15 34  1  0
 16 35  1  0
 17 36  1  0
 17 37  1  0
 18 38  1  0
 18 39  1  0
 19 40  1  0
 21 41  1  0
 21 42  1  0
 21 43  1  0
M  END
$$$$
