@<TRIPOS>MOLECULE
*****
 43 45 0 0 0
SMALL
GASTEIGER

@<TRIPOS>ATOM
      1 C           4.5567    2.2755   -1.1983 C.3     1  UNL1       -0.0395
      2 C           3.4624    1.5358   -0.5146 C.ar    1  UNL1       -0.0475
      3 C           2.2211    2.0948   -0.3016 C.ar    1  UNL1       -0.0575
      4 C           1.2443    1.3435    0.3453 C.ar    1  UNL1       -0.0477
      5 C           1.5091    0.0581    0.7690 C.ar    1  UNL1        0.0131
      6 S           0.3043   -0.9610    1.6039 S.3     1  UNL1       -0.0876
      7 C          -0.6572   -1.9272    0.4450 C.ar    1  UNL1        0.0337
      8 C          -0.1985   -3.1793    0.0837 C.ar    1  UNL1       -0.0462
      9 C          -0.8849   -3.9842   -0.8060 C.ar    1  UNL1       -0.0606
     10 C          -2.0530   -3.5398   -1.3514 C.ar    1  UNL1       -0.0599
     11 C          -2.5101   -2.2825   -0.9861 C.ar    1  UNL1       -0.0396
     12 C          -1.8369   -1.4670   -0.0995 C.ar    1  UNL1        0.0437
     13 N          -2.3438   -0.1986    0.2429 N.pl3   1  UNL1       -0.3266
     14 C          -2.7067    0.1861    1.5897 C.3     1  UNL1        0.0248
     15 C          -2.8909    1.6801    1.5919 C.3     1  UNL1        0.0117
     16 N          -4.0559    1.9726    0.7804 N.3     1  UNL1       -0.3130
     17 C          -3.8906    1.5183   -0.5825 C.3     1  UNL1        0.0117
     18 C          -2.5376    0.8237   -0.7670 C.3     1  UNL1        0.0248
     19 C           2.7613   -0.4893    0.5474 C.ar    1  UNL1       -0.0448
     20 C           3.7344    0.2469   -0.0921 C.ar    1  UNL1       -0.0465
     21 C           5.0875   -0.3706   -0.3210 C.3     1  UNL1       -0.0394
     22 H           4.6621    1.8696   -2.2300 H       1  UNL1        0.0278
     23 H           4.3101    3.3565   -1.2342 H       1  UNL1        0.0278
     24 H           5.4947    2.0977   -0.6202 H       1  UNL1        0.0278
     25 H           2.0299    3.0852   -0.6326 H       1  UNL1        0.0621
     26 H           0.2756    1.7723    0.5146 H       1  UNL1        0.0629
     27 H           0.7300   -3.5398    0.5133 H       1  UNL1        0.0629
     28 H          -0.5147   -4.9784   -1.0889 H       1  UNL1        0.0618
     29 H          -2.6068   -4.1528   -2.0498 H       1  UNL1        0.0618
     30 H          -3.4478   -1.9813   -1.4535 H       1  UNL1        0.0636
     31 H          -1.9930   -0.1629    2.3554 H       1  UNL1        0.0476
     32 H          -3.6948   -0.2497    1.8867 H       1  UNL1        0.0476
     33 H          -2.0241    2.1426    1.0769 H       1  UNL1        0.0439
     34 H          -2.9627    2.0931    2.6017 H       1  UNL1        0.0439
     35 H          -4.8682    1.4693    1.1978 H       1  UNL1        0.1220
     36 H          -3.9020    2.3785   -1.2785 H       1  UNL1        0.0439
     37 H          -4.6864    0.8209   -0.9024 H       1  UNL1        0.0439
     38 H          -2.6483    0.2765   -1.7501 H       1  UNL1        0.0476
     39 H          -1.7076    1.5363   -0.8394 H       1  UNL1        0.0476
     40 H           2.9904   -1.5052    0.8753 H       1  UNL1        0.0631
     41 H           5.4522   -0.1454   -1.3432 H       1  UNL1        0.0278
     42 H           4.9807   -1.4808   -0.2557 H       1  UNL1        0.0278
     43 H           5.8159   -0.0379    0.4327 H       1  UNL1        0.0278
@<TRIPOS>BOND
     1     1     2    1
     2     2     3   ar
     3     3     4   ar
     4     4     5   ar
     5     5     6    1
     6     6     7    1
     7     7     8   ar
     8     8     9   ar
     9     9    10   ar
    10    10    11   ar
    11    11    12   ar
    12    12    13    1
    13    13    14    1
    14    14    15    1
    15    15    16    1
    16    16    17    1
    17    17    18    1
    18     5    19   ar
    19    19    20   ar
    20    20    21    1
    21    20     2   ar
    22    12     7   ar
    23    18    13    1
    24     1    22    1
    25     1    23    1
    26     1    24    1
    27     3    25    1
    28     4    26    1
    29     8    27    1
    30     9    28    1
    31    10    29    1
    32    11    30    1
    33    14    31    1
    34    14    32    1
    35    15    33    1
    36    15    34    1
    37    16    35    1
    38    17    36    1
    39    17    37    1
    40    18    38    1
    41    18    39    1
    42    19    40    1
    43    21    41    1
    44    21    42    1
    45    21    43    1
