@<TRIPOS>MOLECULE
*****
 23 22 0 0 0
SMALL
GASTEIGER

@<TRIPOS>ATOM
      1 N          -2.8715    1.1207    0.0958 N.3     1  UNL1       -0.3300
      2 C          -2.5719   -0.1625    0.6768 C.3     1  UNL1       -0.0068
      3 C          -1.9628   -1.0780   -0.3293 C.3     1  UNL1       -0.0378
      4 C          -0.6833   -0.5995   -0.9286 C.3     1  UNL1       -0.0211
      5 C           0.4135   -0.3834    0.1003 C.3     1  UNL1        0.0647
      6 N           1.5683    0.0769   -0.6663 N.pl3   1  UNL1       -0.2761
      7 C           2.7468    0.3521    0.0957 C.cat   1  UNL1        0.3762
      8 N           3.6746    1.3947   -0.2584 N.pl3   1  UNL1       -0.2893
      9 N           3.0661   -0.3100    1.1529 N.pl3   1  UNL1       -0.1298
     10 H          -2.0525    1.4664   -0.4471 H       1  UNL1        0.1182
     11 H          -3.2049    1.8141    0.7718 H       1  UNL1        0.1182
     12 H          -3.5496   -0.6170    0.9715 H       1  UNL1        0.0422
     13 H          -2.0075   -0.0466    1.5988 H       1  UNL1        0.0422
     14 H          -2.6745   -1.2222   -1.1597 H       1  UNL1        0.0278
     15 H          -1.7925   -2.0740    0.1247 H       1  UNL1        0.0278
     16 H          -0.7770    0.2857   -1.5658 H       1  UNL1        0.0296
     17 H          -0.3030   -1.4183   -1.5791 H       1  UNL1        0.0296
     18 H           0.1063    0.3566    0.8523 H       1  UNL1        0.0655
     19 H           0.5951   -1.3799    0.5583 H       1  UNL1        0.0655
     20 H           1.6691    0.2405   -1.7123 H       1  UNL1        0.2579
     21 H           4.1749    0.9182   -1.0628 H       1  UNL1        0.2546
     22 H           4.0141    2.3416   -0.0540 H       1  UNL1        0.2546
     23 H           2.4222   -1.0760    1.4476 H       1  UNL1        0.3062
@<TRIPOS>BOND
     1     1     2    1
     2     2     3    1
     3     3     4    1
     4     4     5    1
     5     5     6    1
     6     6     7    1
     7     7     8    1
     8     7     9    2
     9     1    10    1
    10     1    11    1
    11     2    12    1
    12     2    13    1
    13     3    14    1
    14     3    15    1
    15     4    16    1
    16     4    17    1
    17     5    18    1
    18     5    19    1
    19     6    20    1
    20     8    21    1
    21     8    22    1
    22     9    23    1
