@<TRIPOS>MOLECULE
*****
 45 48 0 0 0
SMALL
GASTEIGER

@<TRIPOS>ATOM
      1 C           3.6736    0.0433   -1.3262 C.3     1  UNL1       -0.0274
      2 C           2.7433    0.6347   -0.2510 C.3     1  UNL1        0.1037
      3 O           1.5178    0.1312   -0.3192 O.3     1  UNL1       -0.4725
      4 C           0.2281    0.3131   -0.5160 C.ar    1  UNL1        0.2265
      5 N          -0.5908   -0.7867   -0.4281 N.ar    1  UNL1       -0.2106
      6 C          -1.9130   -0.7345   -0.6063 C.ar    1  UNL1        0.0968
      7 C          -2.7327   -1.9462   -0.4997 C.ar    1  UNL1        0.1110
      8 C          -2.2365   -3.1911   -0.2193 C.ar    1  UNL1       -0.0148
      9 C          -3.3076   -4.0545   -0.2054 C.ar    1  UNL1        0.0258
     10 N          -4.4302   -3.3308   -0.4748 N.ar    1  UNL1       -0.2739
     11 C          -5.7772   -3.8679   -0.5530 C.3     1  UNL1        0.0302
     12 N          -4.0575   -2.0715   -0.6469 N.ar    1  UNL1       -0.1699
     13 C          -2.5586    0.4324   -0.8931 C.ar    1  UNL1       -0.0061
     14 C          -1.7769    1.5743   -0.9932 C.ar    1  UNL1        0.0999
     15 N          -2.0980    2.8468   -1.2574 N.ar    1  UNL1       -0.1712
     16 N          -1.0100    3.5722   -1.2456 N.ar    1  UNL1       -0.2732
     17 C          -0.9942    5.0087   -1.4968 C.3     1  UNL1        0.0302
     18 C           0.0470    2.8001   -0.9750 C.ar    1  UNL1        0.0380
     19 C          -0.4127    1.5136   -0.8081 C.ar    1  UNL1        0.0812
     20 C           3.4257    0.4904    1.1147 C.3     1  UNL1        0.0196
     21 C           2.5512    1.0577    2.2083 C.3     1  UNL1        0.0182
     22 N           3.1352    0.4087    3.3939 N.am    1  UNL1       -0.3149
     23 C           3.6813   -0.8386    2.9974 C.2     1  UNL1        0.2135
     24 O           4.1444   -1.6875    3.7864 O.2     1  UNL1       -0.2758
     25 C           3.5977   -0.9327    1.5222 C.3     1  UNL1        0.0315
     26 H           4.6650    0.5446   -1.2507 H       1  UNL1        0.0265
     27 H           3.2549    0.3238   -2.3153 H       1  UNL1        0.0265
     28 H           3.8376   -1.0258   -1.1882 H       1  UNL1        0.0265
     29 H           2.7879    1.7239   -0.4439 H       1  UNL1        0.0734
     30 H          -1.1825   -3.4153   -0.0457 H       1  UNL1        0.0655
     31 H          -3.2654   -5.1070   -0.0165 H       1  UNL1        0.0826
     32 H          -6.4590   -3.0276   -0.2919 H       1  UNL1        0.0473
     33 H          -5.9923   -4.2463   -1.5705 H       1  UNL1        0.0473
     34 H          -5.8718   -4.6822    0.2046 H       1  UNL1        0.0473
     35 H          -3.6264    0.4597   -1.0344 H       1  UNL1        0.0661
     36 H          -0.8058    5.5654   -0.5596 H       1  UNL1        0.0473
     37 H          -0.1763    5.2575   -2.2351 H       1  UNL1        0.0473
     38 H          -1.9266    5.3643   -1.9319 H       1  UNL1        0.0473
     39 H           1.0770    3.1064   -0.8970 H       1  UNL1        0.0834
     40 H           4.4094    0.9924    1.1362 H       1  UNL1        0.0356
     41 H           2.6126    2.1561    2.2929 H       1  UNL1        0.0466
     42 H           1.5346    0.6649    2.1200 H       1  UNL1        0.0466
     43 H           3.1071    0.8655    4.3369 H       1  UNL1        0.1487
     44 H           2.6697   -1.4898    1.2852 H       1  UNL1        0.0363
     45 H           4.5007   -1.4154    1.0970 H       1  UNL1        0.0363
@<TRIPOS>BOND
     1     1     2    1
     2     2     3    1
     3     3     4    1
     4     4     5   ar
     5     5     6   ar
     6     6     7    1
     7     7     8   ar
     8     8     9   ar
     9     9    10   ar
    10    10    11    1
    11    10    12   ar
    12     6    13   ar
    13    13    14   ar
    14    14    15   ar
    15    15    16   ar
    16    16    17    1
    17    16    18   ar
    18    18    19   ar
    19     2    20    1
    20    20    21    1
    21    21    22    1
    22    22    23   am
    23    23    24    2
    24    23    25    1
    25    19     4   ar
    26    25    20    1
    27    12     7   ar
    28    19    14   ar
    29     1    26    1
    30     1    27    1
    31     1    28    1
    32     2    29    1
    33     8    30    1
    34     9    31    1
    35    11    32    1
    36    11    33    1
    37    11    34    1
    38    13    35    1
    39    17    36    1
    40    17    37    1
    41    17    38    1
    42    18    39    1
    43    20    40    1
    44    21    41    1
    45    21    42    1
    46    22    43    1
    47    25    44    1
    48    25    45    1
