
     RDKit          3D

 45 48  0  0  0  0  0  0  0  0999 V2000
    3.6736    0.0433   -1.3262 C   0  0  0  0  0  0  0  0  0  0  0  0
    2.7433    0.6347   -0.2510 C   0  0  1  0  0  0  0  0  0  0  0  0
    1.5178    0.1312   -0.3192 O   0  0  0  0  0  0  0  0  0  0  0  0
    0.2281    0.3131   -0.5160 C   0  0  0  0  0  0  0  0  0  0  0  0
   -0.5908   -0.7867   -0.4281 N   0  0  0  0  0  0  0  0  0  0  0  0
   -1.9130   -0.7345   -0.6063 C   0  0  0  0  0  0  0  0  0  0  0  0
   -2.7327   -1.9462   -0.4997 C   0  0  0  0  0  0  0  0  0  0  0  0
   -2.2365   -3.1911   -0.2193 C   0  0  0  0  0  0  0  0  0  0  0  0
   -3.3076   -4.0545   -0.2054 C   0  0  0  0  0  0  0  0  0  0  0  0
   -4.4302   -3.3308   -0.4748 N   0  0  0  0  0  0  0  0  0  0  0  0
   -5.7772   -3.8679   -0.5530 C   0  0  0  0  0  0  0  0  0  0  0  0
   -4.0575   -2.0715   -0.6469 N   0  0  0  0  0  0  0  0  0  0  0  0
   -2.5586    0.4324   -0.8931 C   0  0  0  0  0  0  0  0  0  0  0  0
   -1.7769    1.5743   -0.9932 C   0  0  0  0  0  0  0  0  0  0  0  0
   -2.0980    2.8468   -1.2574 N   0  0  0  0  0  0  0  0  0  0  0  0
   -1.0100    3.5722   -1.2456 N   0  0  0  0  0  0  0  0  0  0  0  0
   -0.9942    5.0087   -1.4968 C   0  0  0  0  0  0  0  0  0  0  0  0
    0.0470    2.8001   -0.9750 C   0  0  0  0  0  0  0  0  0  0  0  0
   -0.4127    1.5136   -0.8081 C   0  0  0  0  0  0  0  0  0  0  0  0
    3.4257    0.4904    1.1147 C   0  0  1  0  0  0  0  0  0  0  0  0
    2.5512    1.0577    2.2083 C   0  0  0  0  0  0  0  0  0  0  0  0
    3.1352    0.4087    3.3939 N   0  0  0  0  0  0  0  0  0  0  0  0
    3.6813   -0.8386    2.9974 C   0  0  0  0  0  0  0  0  0  0  0  0
    4.1444   -1.6875    3.7864 O   0  0  0  0  0  0  0  0  0  0  0  0
    3.5977   -0.9327    1.5222 C   0  0  0  0  0  0  0  0  0  0  0  0
    4.6650    0.5446   -1.2507 H   0  0  0  0  0  0  0  0  0  0  0  0
    3.2549    0.3238   -2.3153 H   0  0  0  0  0  0  0  0  0  0  0  0
    3.8376   -1.0258   -1.1882 H   0  0  0  0  0  0  0  0  0  0  0  0
    2.7879    1.7239   -0.4439 H   0  0  0  0  0  0  0  0  0  0  0  0
   -1.1825   -3.4153   -0.0457 H   0  0  0  0  0  0  0  0  0  0  0  0
   -3.2654   -5.1070   -0.0165 H   0  0  0  0  0  0  0  0  0  0  0  0
   -6.4590   -3.0276   -0.2919 H   0  0  0  0  0  0  0  0  0  0  0  0
   -5.9923   -4.2463   -1.5705 H   0  0  0  0  0  0  0  0  0  0  0  0
   -5.8718   -4.6822    0.2046 H   0  0  0  0  0  0  0  0  0  0  0  0
   -3.6264    0.4597   -1.0344 H   0  0  0  0  0  0  0  0  0  0  0  0
   -0.8058    5.5654   -0.5596 H   0  0  0  0  0  0  0  0  0  0  0  0
   -0.1763    5.2575   -2.2351 H   0  0  0  0  0  0  0  0  0  0  0  0
   -1.9266    5.3643   -1.9319 H   0  0  0  0  0  0  0  0  0  0  0  0
    1.0770    3.1064   -0.8970 H   0  0  0  0  0  0  0  0  0  0  0  0
    4.4094    0.9924    1.1362 H   0  0  0  0  0  0  0  0  0  0  0  0
    2.6126    2.1561    2.2929 H   0  0  0  0  0  0  0  0  0  0  0  0
    1.5346    0.6649    2.1200 H   0  0  0  0  0  0  0  0  0  0  0  0
    3.1071    0.8655    4.3369 H   0  0  0  0  0  0  0  0  0  0  0  0
    2.6697   -1.4898    1.2852 H   0  0  0  0  0  0  0  0  0  0  0  0
    4.5007   -1.4154    1.0970 H   0  0  0  0  0  0  0  0  0  0  0  0
  1  2  1  0
  2  3  1  0
  3  4  1  0
  4  5  2  0
  5  6  1  0
  6  7  1  0
  7  8  1  0
  8  9  2  0
  9 10  1  0
 10 11  1  0
 10 12  1  0
  6 13  2  0
 13 14  1  0
 14 15  2  0
 15 16  1  0
 16 17  1  0
 16 18  1  0
 18 19  2  0
  2 20  1  0
 20 21  1  0
 21 22  1  0
 22 23  1  0
 23 24  2  0
 23 25  1  0
 19  4  1  0
 25 20  1  0
 12  7  2  0
 19 14  1  0
  1 26  1  0
  1 27  1  0
  1 28  1  0
  2 29  1  6
  8 30  1  0
  9 31  1  0
 11 32  1  0
 11 33  1  0
 11 34  1  0
 13 35  1  0
 17 36  1  0
 17 37  1  0
 17 38  1  0
 18 39  1  0
 20 40  1  6
 21 41  1  0
 21 42  1  0
 22 43  1  0
 25 44  1  0
 25 45  1  0
M  END
$$$$
