@<TRIPOS>MOLECULE
*****
 45 49 0 0 0
SMALL
GASTEIGER

@<TRIPOS>ATOM
      1 C           7.7857    0.1305    1.1186 C.3     1  UNL1       -0.0159
      2 C           6.8404    0.1301   -0.1012 C.ar    1  UNL1        0.0760
      3 N           5.7289    0.1095   -0.3821 N.ar    1  UNL1       -0.2412
      4 C           5.1404    0.1201   -1.5585 C.ar    1  UNL1        0.1154
      5 C           3.6575    0.1002   -1.8005 C.ar    1  UNL1        0.1832
      6 N           3.0249    0.3068   -2.9621 N.ar    1  UNL1       -0.1275
      7 N           1.7059    0.2122   -2.7489 N.ar    1  UNL1       -0.1323
      8 C           1.4820   -0.0541   -1.4612 C.ar    1  UNL1        0.1513
      9 N           2.7083   -0.1164   -0.9034 N.ar    1  UNL1       -0.3069
     10 C           2.7672   -0.3928    0.5220 C.3     1  UNL1        0.0423
     11 C           1.7596    0.4611    1.2376 C.3     1  UNL1        0.0335
     12 N           0.4443    0.2071    0.6988 N.am    1  UNL1       -0.2885
     13 C          -0.6488    0.4507    1.5872 C.2     1  UNL1        0.2470
     14 O          -0.4540    0.8616    2.7776 O.2     1  UNL1       -0.2700
     15 C          -2.0123    0.2440    1.1756 C.ar    1  UNL1        0.0369
     16 C          -2.4379   -1.0144    0.8166 C.ar    1  UNL1       -0.0490
     17 C          -3.7670   -1.2185    0.4394 C.ar    1  UNL1       -0.0528
     18 C          -4.6486   -0.1730    0.4258 C.ar    1  UNL1       -0.0113
     19 C          -6.0249   -0.3632    0.0560 C.ar    1  UNL1        0.0193
     20 C          -7.0733    0.4800   -0.0102 C.ar    1  UNL1       -0.0469
     21 C          -8.2787    0.0391   -0.3819 C.ar    1  UNL1       -0.0541
     22 C          -8.3919   -1.3256   -0.6935 C.ar    1  UNL1       -0.0237
     23 S          -6.7163   -1.8940   -0.4240 S.2     1  UNL1       -0.0967
     24 C          -4.2255    1.0767    0.7815 C.ar    1  UNL1       -0.0528
     25 C          -2.9348    1.2826    1.1490 C.ar    1  UNL1       -0.0490
     26 C           0.2587   -0.2550   -0.6451 C.3     1  UNL1        0.0749
     27 C           6.0050    0.1625   -2.6311 C.ar    1  UNL1        0.0064
     28 S           7.6489    0.1842   -1.7907 S.2     1  UNL1       -0.0801
     29 H           8.6900   -0.4585    0.8656 H       1  UNL1        0.0298
     30 H           7.1860   -0.3139    1.9450 H       1  UNL1        0.0298
     31 H           7.9988    1.1673    1.4187 H       1  UNL1        0.0298
     32 H           3.7820   -0.3197    0.9128 H       1  UNL1        0.0508
     33 H           2.4316   -1.4609    0.6438 H       1  UNL1        0.0508
     34 H           1.8295    0.2102    2.3258 H       1  UNL1        0.0482
     35 H           2.0676    1.5239    1.0955 H       1  UNL1        0.0482
     36 H          -1.7926   -1.8777    0.8061 H       1  UNL1        0.0625
     37 H          -4.1137   -2.1985    0.1548 H       1  UNL1        0.0624
     38 H          -6.8990    1.5656    0.2594 H       1  UNL1        0.0629
     39 H          -9.1878    0.7055   -0.4499 H       1  UNL1        0.0623
     40 H          -9.2686   -1.9138   -1.0189 H       1  UNL1        0.0693
     41 H          -4.8822    1.9485    0.7875 H       1  UNL1        0.0624
     42 H          -2.5817    2.2716    1.4334 H       1  UNL1        0.0625
     43 H          -0.5954    0.1863   -1.1797 H       1  UNL1        0.0545
     44 H           0.1063   -1.3718   -0.5939 H       1  UNL1        0.0545
     45 H           5.8854    0.1829   -3.6971 H       1  UNL1        0.0716
@<TRIPOS>BOND
     1     1     2    1
     2     2     3   ar
     3     3     4   ar
     4     4     5    1
     5     5     6   ar
     6     6     7   ar
     7     7     8   ar
     8     8     9   ar
     9     9    10    1
    10    10    11    1
    11    11    12    1
    12    12    13   am
    13    13    14    2
    14    13    15    1
    15    15    16   ar
    16    16    17   ar
    17    17    18   ar
    18    18    19    1
    19    19    20   ar
    20    20    21   ar
    21    21    22   ar
    22    22    23   ar
    23    18    24   ar
    24    24    25   ar
    25    12    26    1
    26     4    27   ar
    27    27    28   ar
    28    28     2   ar
    29     9     5   ar
    30    25    15   ar
    31    26     8    1
    32    23    19   ar
    33     1    29    1
    34     1    30    1
    35     1    31    1
    36    10    32    1
    37    10    33    1
    38    11    34    1
    39    11    35    1
    40    16    36    1
    41    17    37    1
    42    20    38    1
    43    21    39    1
    44    22    40    1
    45    24    41    1
    46    25    42    1
    47    26    43    1
    48    26    44    1
    49    27    45    1
