
     RDKit          3D

 45 49  0  0  0  0  0  0  0  0999 V2000
    7.7857    0.1305    1.1186 C   0  0  0  0  0  0  0  0  0  0  0  0
    6.8404    0.1301   -0.1012 C   0  0  0  0  0  0  0  0  0  0  0  0
    5.7289    0.1095   -0.3821 N   0  0  0  0  0  0  0  0  0  0  0  0
    5.1404    0.1201   -1.5585 C   0  0  0  0  0  0  0  0  0  0  0  0
    3.6575    0.1002   -1.8005 C   0  0  0  0  0  0  0  0  0  0  0  0
    3.0249    0.3068   -2.9621 N   0  0  0  0  0  0  0  0  0  0  0  0
    1.7059    0.2122   -2.7489 N   0  0  0  0  0  0  0  0  0  0  0  0
    1.4820   -0.0541   -1.4612 C   0  0  0  0  0  0  0  0  0  0  0  0
    2.7083   -0.1164   -0.9034 N   0  0  0  0  0  0  0  0  0  0  0  0
    2.7672   -0.3928    0.5220 C   0  0  0  0  0  0  0  0  0  0  0  0
    1.7596    0.4611    1.2376 C   0  0  0  0  0  0  0  0  0  0  0  0
    0.4443    0.2071    0.6988 N   0  0  0  0  0  0  0  0  0  0  0  0
   -0.6488    0.4507    1.5872 C   0  0  0  0  0  0  0  0  0  0  0  0
   -0.4540    0.8616    2.7776 O   0  0  0  0  0  0  0  0  0  0  0  0
   -2.0123    0.2440    1.1756 C   0  0  0  0  0  0  0  0  0  0  0  0
   -2.4379   -1.0144    0.8166 C   0  0  0  0  0  0  0  0  0  0  0  0
   -3.7670   -1.2185    0.4394 C   0  0  0  0  0  0  0  0  0  0  0  0
   -4.6486   -0.1730    0.4258 C   0  0  0  0  0  0  0  0  0  0  0  0
   -6.0249   -0.3632    0.0560 C   0  0  0  0  0  0  0  0  0  0  0  0
   -7.0733    0.4800   -0.0102 C   0  0  0  0  0  0  0  0  0  0  0  0
   -8.2787    0.0391   -0.3819 C   0  0  0  0  0  0  0  0  0  0  0  0
   -8.3919   -1.3256   -0.6935 C   0  0  0  0  0  0  0  0  0  0  0  0
   -6.7163   -1.8940   -0.4240 S   0  0  0  0  0  0  0  0  0  0  0  0
   -4.2255    1.0767    0.7815 C   0  0  0  0  0  0  0  0  0  0  0  0
   -2.9348    1.2826    1.1490 C   0  0  0  0  0  0  0  0  0  0  0  0
    0.2587   -0.2550   -0.6451 C   0  0  0  0  0  0  0  0  0  0  0  0
    6.0050    0.1625   -2.6311 C   0  0  0  0  0  0  0  0  0  0  0  0
    7.6489    0.1842   -1.7907 S   0  0  0  0  0  0  0  0  0  0  0  0
    8.6900   -0.4585    0.8656 H   0  0  0  0  0  0  0  0  0  0  0  0
    7.1860   -0.3139    1.9450 H   0  0  0  0  0  0  0  0  0  0  0  0
    7.9988    1.1673    1.4187 H   0  0  0  0  0  0  0  0  0  0  0  0
    3.7820   -0.3197    0.9128 H   0  0  0  0  0  0  0  0  0  0  0  0
    2.4316   -1.4609    0.6438 H   0  0  0  0  0  0  0  0  0  0  0  0
    1.8295    0.2102    2.3258 H   0  0  0  0  0  0  0  0  0  0  0  0
    2.0676    1.5239    1.0955 H   0  0  0  0  0  0  0  0  0  0  0  0
   -1.7926   -1.8777    0.8061 H   0  0  0  0  0  0  0  0  0  0  0  0
   -4.1137   -2.1985    0.1548 H   0  0  0  0  0  0  0  0  0  0  0  0
   -6.8990    1.5656    0.2594 H   0  0  0  0  0  0  0  0  0  0  0  0
   -9.1878    0.7055   -0.4499 H   0  0  0  0  0  0  0  0  0  0  0  0
   -9.2686   -1.9138   -1.0189 H   0  0  0  0  0  0  0  0  0  0  0  0
   -4.8822    1.9485    0.7875 H   0  0  0  0  0  0  0  0  0  0  0  0
   -2.5817    2.2716    1.4334 H   0  0  0  0  0  0  0  0  0  0  0  0
   -0.5954    0.1863   -1.1797 H   0  0  0  0  0  0  0  0  0  0  0  0
    0.1063   -1.3718   -0.5939 H   0  0  0  0  0  0  0  0  0  0  0  0
    5.8854    0.1829   -3.6971 H   0  0  0  0  0  0  0  0  0  0  0  0
  1  2  1  0
  2  3  2  0
  3  4  1  0
  4  5  1  0
  5  6  2  0
  6  7  1  0
  7  8  2  0
  8  9  1  0
  9 10  1  0
 10 11  1  0
 11 12  1  0
 12 13  1  0
 13 14  2  0
 13 15  1  0
 15 16  2  0
 16 17  1  0
 17 18  2  0
 18 19  1  0
 19 20  2  0
 20 21  1  0
 21 22  2  0
 22 23  1  0
 18 24  1  0
 24 25  2  0
 12 26  1  0
  4 27  2  0
 27 28  1  0
 28  2  1  0
  9  5  1  0
 25 15  1  0
 26  8  1  0
 23 19  1  0
  1 29  1  0
  1 30  1  0
  1 31  1  0
 10 32  1  0
 10 33  1  0
 11 34  1  0
 11 35  1  0
 16 36  1  0
 17 37  1  0
 20 38  1  0
 21 39  1  0
 22 40  1  0
 24 41  1  0
 25 42  1  0
 26 43  1  0
 26 44  1  0
 27 45  1  0
M  END
$$$$
