@<TRIPOS>MOLECULE
*****
 41 44 0 0 0
SMALL
GASTEIGER

@<TRIPOS>ATOM
      1 C          -5.0507    0.3213    0.4869 C.3     1  UNL1       -0.0321
      2 C          -3.7412    0.3399   -0.2682 C.3     1  UNL1        0.0868
      3 C          -3.7996    1.5000   -1.2345 C.3     1  UNL1       -0.0321
      4 O          -3.7021   -0.8765   -0.9907 O.3     1  UNL1       -0.3845
      5 C          -2.6445    0.4324    0.6884 C.ar    1  UNL1        0.0021
      6 C          -2.8747    0.4883    2.0412 C.ar    1  UNL1        0.0335
      7 N          -1.8570    0.5751    2.9491 N.ar    1  UNL1       -0.2622
      8 C          -0.5971    0.6056    2.4821 C.ar    1  UNL1        0.0382
      9 C          -0.2769    0.5541    1.1424 C.ar    1  UNL1        0.0359
     10 C           1.0979    0.5896    0.6789 C.ar    1  UNL1        0.1436
     11 N           1.9503    1.5824    0.9370 N.ar    1  UNL1       -0.2274
     12 C           3.1185    1.3016    0.3683 C.ar    1  UNL1        0.0926
     13 C           4.3111    2.0036    0.3430 C.ar    1  UNL1        0.0039
     14 C           5.3777    1.4617   -0.3371 C.ar    1  UNL1        0.1605
     15 F           6.5370    2.1461   -0.3605 F       1  UNL1       -0.2024
     16 C           5.2484    0.2456   -0.9750 C.ar    1  UNL1        0.1605
     17 F           6.2835   -0.3163   -1.6553 F       1  UNL1       -0.2024
     18 C           4.0421   -0.4481   -0.9402 C.ar    1  UNL1        0.0021
     19 C           2.9559    0.0708   -0.2662 C.ar    1  UNL1        0.0722
     20 N           1.6972   -0.3848   -0.0795 N.ar    1  UNL1       -0.3204
     21 C           1.1078   -1.5824   -0.5480 C.3     1  UNL1        0.0366
     22 C           1.7501   -2.9432   -0.3670 C.3     1  UNL1       -0.0302
     23 C           1.3251   -2.3410   -1.7278 C.3     1  UNL1       -0.0302
     24 C          -1.3318    0.4669    0.2589 C.ar    1  UNL1       -0.0423
     25 H          -5.2119    1.2285    1.1030 H       1  UNL1        0.0260
     26 H          -5.1225   -0.5530    1.1893 H       1  UNL1        0.0260
     27 H          -5.9204    0.2674   -0.2264 H       1  UNL1        0.0260
     28 H          -3.0155    2.2475   -1.0709 H       1  UNL1        0.0260
     29 H          -3.6487    1.1052   -2.2827 H       1  UNL1        0.0260
     30 H          -4.7733    2.0325   -1.2018 H       1  UNL1        0.0260
     31 H          -3.1551   -1.5514   -0.5271 H       1  UNL1        0.2106
     32 H          -3.8964    0.4646    2.4401 H       1  UNL1        0.0833
     33 H           0.1872    0.6759    3.2523 H       1  UNL1        0.0837
     34 H           4.3707    2.9426    0.8497 H       1  UNL1        0.0669
     35 H           3.9198   -1.3907   -1.4276 H       1  UNL1        0.0668
     36 H           0.0224   -1.6649   -0.1676 H       1  UNL1        0.0528
     37 H           2.7842   -2.8990   -0.0461 H       1  UNL1        0.0286
     38 H           1.1529   -3.8269   -0.0550 H       1  UNL1        0.0286
     39 H           2.1302   -2.4252   -2.4462 H       1  UNL1        0.0286
     40 H           0.4299   -2.8666   -2.2085 H       1  UNL1        0.0286
     41 H          -1.1804    0.4209   -0.8219 H       1  UNL1        0.0629
@<TRIPOS>BOND
     1     1     2    1
     2     2     3    1
     3     2     4    1
     4     2     5    1
     5     5     6   ar
     6     6     7   ar
     7     7     8   ar
     8     8     9   ar
     9     9    10    1
    10    10    11   ar
    11    11    12   ar
    12    12    13   ar
    13    13    14   ar
    14    14    15    1
    15    14    16   ar
    16    16    17    1
    17    16    18   ar
    18    18    19   ar
    19    19    20   ar
    20    20    21    1
    21    21    22    1
    22    22    23    1
    23     9    24   ar
    24    24     5   ar
    25    20    10   ar
    26    23    21    1
    27    19    12   ar
    28     1    25    1
    29     1    26    1
    30     1    27    1
    31     3    28    1
    32     3    29    1
    33     3    30    1
    34     4    31    1
    35     6    32    1
    36     8    33    1
    37    13    34    1
    38    18    35    1
    39    21    36    1
    40    22    37    1
    41    22    38    1
    42    23    39    1
    43    23    40    1
    44    24    41    1
