@<TRIPOS>MOLECULE
*****
 42 44 0 0 0
SMALL
GASTEIGER

@<TRIPOS>ATOM
      1 O           4.9658   -1.1087   -0.5022 O.2     1  UNL1       -0.2737
      2 C           5.5993   -0.1423   -0.0355 C.2     1  UNL1        0.2354
      3 C           4.9932    0.8099    0.9011 C.3     1  UNL1        0.0259
      4 C           3.5438    0.5318    1.0847 C.3     1  UNL1       -0.0447
      5 C           2.7740    0.6877   -0.1915 C.3     1  UNL1       -0.0512
      6 C           1.3091    0.3790    0.1706 C.3     1  UNL1       -0.0366
      7 C           0.5044    0.5316   -1.1153 C.3     1  UNL1        0.0230
      8 N          -0.8607    0.2486   -0.7998 N.am    1  UNL1       -0.2341
      9 C          -1.4049   -1.0601   -0.8833 C.2     1  UNL1        0.2537
     10 O          -0.6970   -2.0414   -1.2444 O.2     1  UNL1       -0.2695
     11 C          -2.8080   -1.2891   -0.5482 C.ar    1  UNL1        0.0457
     12 C          -3.3574   -2.5694   -0.6253 C.ar    1  UNL1       -0.0490
     13 C          -4.6714   -2.8486   -0.3227 C.ar    1  UNL1       -0.0605
     14 C          -5.4817   -1.8063    0.0764 C.ar    1  UNL1       -0.0540
     15 C          -4.9739   -0.5336    0.1633 C.ar    1  UNL1       -0.0164
     16 C          -5.8132    0.4776    0.5647 C.ar    1  UNL1       -0.0540
     17 C          -5.3070    1.7564    0.6531 C.ar    1  UNL1       -0.0605
     18 C          -3.9898    2.0133    0.3458 C.ar    1  UNL1       -0.0490
     19 C          -3.1198    1.0061   -0.0631 C.ar    1  UNL1        0.0457
     20 C          -3.6598   -0.2694   -0.1419 C.ar    1  UNL1        0.0064
     21 C          -1.7241    1.2962   -0.3856 C.2     1  UNL1        0.2537
     22 O          -1.3065    2.4934   -0.2878 O.2     1  UNL1       -0.2695
     23 N           6.9588   -0.0096   -0.4643 N.am    1  UNL1       -0.1975
     24 O           7.5509   -0.8593   -1.3199 O.3     1  UNL1       -0.2952
     25 H           5.4580    0.7302    1.9341 H       1  UNL1        0.0359
     26 H           5.1768    1.8716    0.6152 H       1  UNL1        0.0359
     27 H           3.0998    1.1685    1.8997 H       1  UNL1        0.0270
     28 H           3.3713   -0.5180    1.4435 H       1  UNL1        0.0270
     29 H           3.0557   -0.0468   -0.9467 H       1  UNL1        0.0266
     30 H           2.8435    1.7295   -0.6016 H       1  UNL1        0.0266
     31 H           1.2914   -0.6885    0.4389 H       1  UNL1        0.0280
     32 H           0.9347    1.0503    0.9503 H       1  UNL1        0.0280
     33 H           0.5619    1.5715   -1.4963 H       1  UNL1        0.0470
     34 H           0.8632   -0.1566   -1.8792 H       1  UNL1        0.0470
     35 H          -2.6632   -3.3609   -0.9494 H       1  UNL1        0.0625
     36 H          -5.0333   -3.8634   -0.4035 H       1  UNL1        0.0618
     37 H          -6.5118   -2.0511    0.3090 H       1  UNL1        0.0624
     38 H          -6.8695    0.2883    0.8141 H       1  UNL1        0.0624
     39 H          -5.9673    2.5704    0.9722 H       1  UNL1        0.0618
     40 H          -3.5656    3.0126    0.4072 H       1  UNL1        0.0625
     41 H           7.4867    0.8005   -0.0718 H       1  UNL1        0.1822
     42 H           7.4433   -1.8017   -1.0133 H       1  UNL1        0.2414
@<TRIPOS>BOND
     1     1     2    2
     2     2     3    1
     3     3     4    1
     4     4     5    1
     5     5     6    1
     6     6     7    1
     7     7     8    1
     8     8     9   am
     9     9    10    2
    10     9    11    1
    11    11    12   ar
    12    12    13   ar
    13    13    14   ar
    14    14    15   ar
    15    15    16   ar
    16    16    17   ar
    17    17    18   ar
    18    18    19   ar
    19    19    20   ar
    20    19    21    1
    21    21    22    2
    22     2    23   am
    23    23    24    1
    24    21     8   am
    25    20    11   ar
    26    20    15   ar
    27     3    25    1
    28     3    26    1
    29     4    27    1
    30     4    28    1
    31     5    29    1
    32     5    30    1
    33     6    31    1
    34     6    32    1
    35     7    33    1
    36     7    34    1
    37    12    35    1
    38    13    36    1
    39    14    37    1
    40    16    38    1
    41    17    39    1
    42    18    40    1
    43    23    41    1
    44    24    42    1
