@<TRIPOS>MOLECULE
*****
 47 49 0 0 0
SMALL
GASTEIGER

@<TRIPOS>ATOM
      1 C          -7.6402    1.9114   -0.5144 C.3     1  UNL1        0.0790
      2 O          -7.7201    0.5342   -0.3117 O.3     1  UNL1       -0.4914
      3 C          -6.6324   -0.3106   -0.1480 C.ar    1  UNL1        0.1618
      4 C          -5.3246    0.1288   -0.1683 C.ar    1  UNL1       -0.0092
      5 C          -4.2498   -0.7059   -0.0065 C.ar    1  UNL1       -0.0213
      6 C          -2.8668   -0.2584   -0.0254 C.2     1  UNL1       -0.0524
      7 C          -2.4856    0.9820   -0.1972 C.2     1  UNL1       -0.0340
      8 C          -1.0698    1.4042   -0.2111 C.ar    1  UNL1        0.0860
      9 C           0.0348    0.6013   -0.0531 C.ar    1  UNL1       -0.0098
     10 C           1.1145    1.4430   -0.1413 C.ar    1  UNL1        0.0592
     11 C           2.5234    1.0484   -0.0336 C.2     1  UNL1       -0.0363
     12 C           2.8469   -0.2072    0.1649 C.2     1  UNL1       -0.0525
     13 C           4.2101   -0.6993    0.2855 C.ar    1  UNL1       -0.0213
     14 C           4.4298   -2.0674    0.4971 C.ar    1  UNL1       -0.0509
     15 C           5.6898   -2.6081    0.6214 C.ar    1  UNL1       -0.0160
     16 C           6.7629   -1.7576    0.5318 C.ar    1  UNL1        0.1585
     17 O           8.0566   -2.2980    0.6572 O.3     1  UNL1       -0.5033
     18 C           6.6028   -0.4114    0.3255 C.ar    1  UNL1        0.1618
     19 O           7.6726    0.4270    0.2375 O.3     1  UNL1       -0.4914
     20 C           7.5056    1.7954    0.0277 C.3     1  UNL1        0.0790
     21 C           5.3258    0.0932    0.2060 C.ar    1  UNL1       -0.0092
     22 N           0.6649    2.6856   -0.3422 N.ar    1  UNL1       -0.2770
     23 N          -0.6345    2.6515   -0.3821 N.ar    1  UNL1       -0.1740
     24 C          -4.5060   -2.0442    0.1843 C.ar    1  UNL1       -0.0509
     25 C          -5.8141   -2.5397    0.2129 C.ar    1  UNL1       -0.0160
     26 C          -6.8775   -1.6475    0.0430 C.ar    1  UNL1        0.1585
     27 O          -8.1693   -2.1831    0.0781 O.3     1  UNL1       -0.5033
     28 H          -6.9495    2.0979   -1.3665 H       1  UNL1        0.0660
     29 H          -8.6436    2.2676   -0.8235 H       1  UNL1        0.0660
     30 H          -7.2439    2.4676    0.3577 H       1  UNL1        0.0660
     31 H          -5.1733    1.1722   -0.3187 H       1  UNL1        0.0661
     32 H          -2.0647   -0.9851    0.1108 H       1  UNL1        0.0624
     33 H          -3.2266    1.7443   -0.3366 H       1  UNL1        0.0639
     34 H           0.0075   -0.4709    0.1059 H       1  UNL1        0.0660
     35 H           3.3009    1.7844   -0.1164 H       1  UNL1        0.0639
     36 H           2.0150   -0.9129    0.2413 H       1  UNL1        0.0624
     37 H           3.5704   -2.6985    0.5615 H       1  UNL1        0.0625
     38 H           5.8674   -3.6592    0.7843 H       1  UNL1        0.0655
     39 H           8.7252   -1.9320    1.3015 H       1  UNL1        0.2923
     40 H           7.0928    2.3497    0.8807 H       1  UNL1        0.0660
     41 H           6.8263    1.9645   -0.8532 H       1  UNL1        0.0660
     42 H           8.5052    2.2171   -0.2565 H       1  UNL1        0.0660
     43 H           5.1764    1.1631    0.0413 H       1  UNL1        0.0661
     44 H           1.3036    3.5372   -0.4471 H       1  UNL1        0.1889
     45 H          -3.6836   -2.7238    0.3141 H       1  UNL1        0.0625
     46 H          -6.0239   -3.5920    0.3626 H       1  UNL1        0.0655
     47 H          -8.8314   -1.7590   -0.5764 H       1  UNL1        0.2923
@<TRIPOS>BOND
     1     1     2    1
     2     2     3    1
     3     3     4   ar
     4     4     5   ar
     5     5     6    1
     6     6     7    2
     7     7     8    1
     8     8     9   ar
     9     9    10   ar
    10    10    11    1
    11    11    12    2
    12    12    13    1
    13    13    14   ar
    14    14    15   ar
    15    15    16   ar
    16    16    17    1
    17    16    18   ar
    18    18    19    1
    19    19    20    1
    20    18    21   ar
    21    10    22   ar
    22    22    23   ar
    23     5    24   ar
    24    24    25   ar
    25    25    26   ar
    26    26    27    1
    27    26     3   ar
    28    23     8   ar
    29    21    13   ar
    30     1    28    1
    31     1    29    1
    32     1    30    1
    33     4    31    1
    34     6    32    1
    35     7    33    1
    36     9    34    1
    37    11    35    1
    38    12    36    1
    39    14    37    1
    40    15    38    1
    41    17    39    1
    42    20    40    1
    43    20    41    1
    44    20    42    1
    45    21    43    1
    46    22    44    1
    47    24    45    1
    48    25    46    1
    49    27    47    1
