@<TRIPOS>MOLECULE
*****
 31 34 0 0 0
SMALL
GASTEIGER

@<TRIPOS>ATOM
      1 O          -1.5735   -3.2554    0.9279 O.2     1  UNL1       -0.2656
      2 C          -1.8227   -2.0548    0.6034 C.ar    1  UNL1        0.2748
      3 N          -3.0733   -1.5812    0.5001 N.ar    1  UNL1       -0.3203
      4 C          -3.2775   -0.2945    0.1510 C.ar    1  UNL1        0.0527
      5 C          -4.5922    0.1571    0.0551 C.ar    1  UNL1       -0.0193
      6 C          -4.8064    1.4722   -0.3015 C.ar    1  UNL1        0.0430
      7 CL         -6.4635    2.0581   -0.4270 Cl      1  UNL1       -0.0835
      8 C          -3.7303    2.2982   -0.5514 C.ar    1  UNL1       -0.0426
      9 C          -2.4184    1.8475   -0.4557 C.ar    1  UNL1       -0.0491
     10 C          -2.2004    0.5320   -0.0990 C.ar    1  UNL1        0.0261
     11 C          -0.9029    0.0756   -0.0014 C.ar    1  UNL1        0.1039
     12 N           0.3244    0.5886   -0.1686 N.ar    1  UNL1       -0.2269
     13 C           1.2664   -0.3428    0.0671 C.ar    1  UNL1        0.1408
     14 C           2.7152   -0.1695   -0.0115 C.ar    1  UNL1        0.0356
     15 C           3.5575   -1.2202    0.2590 C.ar    1  UNL1       -0.0497
     16 C           4.9391   -1.1041    0.1976 C.ar    1  UNL1       -0.0610
     17 C           5.4824    0.1324   -0.1537 C.ar    1  UNL1       -0.0603
     18 C           4.6531    1.2187   -0.4344 C.ar    1  UNL1       -0.0427
     19 C           3.2793    1.0366   -0.3549 C.ar    1  UNL1        0.0516
     20 CL          2.1955    2.3763   -0.6998 Cl      1  UNL1       -0.0828
     21 N           0.5923   -1.4586    0.3880 N.ar    1  UNL1       -0.3336
     22 C          -0.7258   -1.2528    0.3597 C.ar    1  UNL1        0.1322
     23 H          -3.8789   -2.2358    0.6971 H       1  UNL1        0.1690
     24 H          -5.4269   -0.4959    0.2523 H       1  UNL1        0.0653
     25 H          -3.9153    3.3279   -0.8303 H       1  UNL1        0.0632
     26 H          -1.5708    2.4716   -0.6453 H       1  UNL1        0.0625
     27 H           3.1069   -2.1770    0.5315 H       1  UNL1        0.0625
     28 H           5.5396   -1.9565    0.4189 H       1  UNL1        0.0618
     29 H           6.5587    0.2075   -0.1974 H       1  UNL1        0.0618
     30 H           5.0990    2.1701   -0.7053 H       1  UNL1        0.0632
     31 H           1.0695   -2.3714    0.6285 H       1  UNL1        0.1675
@<TRIPOS>BOND
     1     1     2    2
     2     2     3   ar
     3     3     4   ar
     4     4     5   ar
     5     5     6   ar
     6     6     7    1
     7     6     8   ar
     8     8     9   ar
     9     9    10   ar
    10    10    11   ar
    11    11    12   ar
    12    12    13   ar
    13    13    14    1
    14    14    15   ar
    15    15    16   ar
    16    16    17   ar
    17    17    18   ar
    18    18    19   ar
    19    19    20    1
    20    13    21   ar
    21    21    22   ar
    22    22     2   ar
    23    10     4   ar
    24    22    11   ar
    25    19    14   ar
    26     3    23    1
    27     5    24    1
    28     8    25    1
    29     9    26    1
    30    15    27    1
    31    16    28    1
    32    17    29    1
    33    18    30    1
    34    21    31    1
