
     RDKit          3D

 31 34  0  0  0  0  0  0  0  0999 V2000
   -1.5735   -3.2554    0.9279 O   0  0  0  0  0  0  0  0  0  0  0  0
   -1.8227   -2.0548    0.6034 C   0  0  0  0  0  0  0  0  0  0  0  0
   -3.0733   -1.5812    0.5001 N   0  0  0  0  0  0  0  0  0  0  0  0
   -3.2775   -0.2945    0.1510 C   0  0  0  0  0  0  0  0  0  0  0  0
   -4.5922    0.1571    0.0551 C   0  0  0  0  0  0  0  0  0  0  0  0
   -4.8064    1.4722   -0.3015 C   0  0  0  0  0  0  0  0  0  0  0  0
   -6.4635    2.0581   -0.4270 Cl  0  0  0  0  0  0  0  0  0  0  0  0
   -3.7303    2.2982   -0.5514 C   0  0  0  0  0  0  0  0  0  0  0  0
   -2.4184    1.8475   -0.4557 C   0  0  0  0  0  0  0  0  0  0  0  0
   -2.2004    0.5320   -0.0990 C   0  0  0  0  0  0  0  0  0  0  0  0
   -0.9029    0.0756   -0.0014 C   0  0  0  0  0  0  0  0  0  0  0  0
    0.3244    0.5886   -0.1686 N   0  0  0  0  0  0  0  0  0  0  0  0
    1.2664   -0.3428    0.0671 C   0  0  0  0  0  0  0  0  0  0  0  0
    2.7152   -0.1695   -0.0115 C   0  0  0  0  0  0  0  0  0  0  0  0
    3.5575   -1.2202    0.2590 C   0  0  0  0  0  0  0  0  0  0  0  0
    4.9391   -1.1041    0.1976 C   0  0  0  0  0  0  0  0  0  0  0  0
    5.4824    0.1324   -0.1537 C   0  0  0  0  0  0  0  0  0  0  0  0
    4.6531    1.2187   -0.4344 C   0  0  0  0  0  0  0  0  0  0  0  0
    3.2793    1.0366   -0.3549 C   0  0  0  0  0  0  0  0  0  0  0  0
    2.1955    2.3763   -0.6998 Cl  0  0  0  0  0  0  0  0  0  0  0  0
    0.5923   -1.4586    0.3880 N   0  0  0  0  0  0  0  0  0  0  0  0
   -0.7258   -1.2528    0.3597 C   0  0  0  0  0  0  0  0  0  0  0  0
   -3.8789   -2.2358    0.6971 H   0  0  0  0  0  0  0  0  0  0  0  0
   -5.4269   -0.4959    0.2523 H   0  0  0  0  0  0  0  0  0  0  0  0
   -3.9153    3.3279   -0.8303 H   0  0  0  0  0  0  0  0  0  0  0  0
   -1.5708    2.4716   -0.6453 H   0  0  0  0  0  0  0  0  0  0  0  0
    3.1069   -2.1770    0.5315 H   0  0  0  0  0  0  0  0  0  0  0  0
    5.5396   -1.9565    0.4189 H   0  0  0  0  0  0  0  0  0  0  0  0
    6.5587    0.2075   -0.1974 H   0  0  0  0  0  0  0  0  0  0  0  0
    5.0990    2.1701   -0.7053 H   0  0  0  0  0  0  0  0  0  0  0  0
    1.0695   -2.3714    0.6285 H   0  0  0  0  0  0  0  0  0  0  0  0
  1  2  2  0
  2  3  1  0
  3  4  1  0
  4  5  2  0
  5  6  1  0
  6  7  1  0
  6  8  2  0
  8  9  1  0
  9 10  2  0
 10 11  1  0
 11 12  1  0
 12 13  2  0
 13 14  1  0
 14 15  2  0
 15 16  1  0
 16 17  2  0
 17 18  1  0
 18 19  2  0
 19 20  1  0
 13 21  1  0
 21 22  1  0
 22  2  1  0
 10  4  1  0
 22 11  2  0
 19 14  1  0
  3 23  1  0
  5 24  1  0
  8 25  1  0
  9 26  1  0
 15 27  1  0
 16 28  1  0
 17 29  1  0
 18 30  1  0
 21 31  1  0
M  END
$$$$
