@<TRIPOS>MOLECULE
*****
 72 77 0 0 0
SMALL
GASTEIGER

@<TRIPOS>ATOM
      1 C          -3.0510    7.7099    0.8627 C.3     1  UNL1        0.0804
      2 O          -2.4048    6.4787    1.0575 O.3     1  UNL1       -0.4795
      3 C          -2.1505    5.6001    0.0306 C.ar    1  UNL1        0.2191
      4 C          -1.5161    4.4040    0.2533 C.ar    1  UNL1        0.0404
      5 C          -1.2659    3.5300   -0.7864 C.ar    1  UNL1        0.1364
      6 N          -0.6122    2.2838   -0.6127 N.am    1  UNL1       -0.2240
      7 C           0.8007    2.0586   -0.6908 C.2     1  UNL1        0.3219
      8 O           1.6165    2.9826   -1.0222 O.2     1  UNL1       -0.2512
      9 N           1.1323    0.7172   -0.3599 N.am    1  UNL1       -0.1905
     10 C           2.4313    0.1351   -0.3175 C.ar    1  UNL1        0.0636
     11 C           3.5762    0.8552   -0.5836 C.ar    1  UNL1       -0.0363
     12 C           4.8565    0.2761   -0.5342 C.ar    1  UNL1       -0.0339
     13 C           4.9869   -1.0478   -0.2119 C.ar    1  UNL1        0.0711
     14 C           6.2724   -1.7141   -0.1315 C.ar    1  UNL1        0.0004
     15 C           6.3084   -3.0657    0.2141 C.ar    1  UNL1       -0.0518
     16 C           7.4689   -3.7919    0.3234 C.ar    1  UNL1       -0.0472
     17 C           8.6557   -3.1429    0.0767 C.ar    1  UNL1        0.0589
     18 C           9.8928   -3.8811    0.1830 C.2     1  UNL1        0.3368
     19 O           9.8895   -5.0921    0.4915 O.2     1  UNL1       -0.2451
     20 O          11.0957   -3.2478   -0.0566 O.3     1  UNL1       -0.4771
     21 C           8.6607   -1.7972   -0.2701 C.ar    1  UNL1       -0.0472
     22 C           7.4564   -1.0942   -0.3705 C.ar    1  UNL1       -0.0518
     23 N           3.8722   -1.7481    0.0468 N.ar    1  UNL1       -0.2531
     24 C           2.6196   -1.1891    0.0002 C.ar    1  UNL1        0.0501
     25 C          -0.1199    0.0925   -0.0679 C.2     1  UNL1        0.2516
     26 O          -0.2943   -1.0779    0.3543 O.2     1  UNL1       -0.2724
     27 C          -1.2483    1.0083   -0.3249 C.3     1  UNL1        0.1240
     28 C          -2.0972    0.5478   -1.4773 C.3     1  UNL1       -0.0095
     29 C          -2.9765   -0.6127   -1.1518 C.3     1  UNL1        0.0017
     30 N          -3.0758   -0.9372    0.2082 N.3     1  UNL1       -0.2965
     31 C          -3.2360   -2.2931    0.5794 C.3     1  UNL1        0.0415
     32 C          -4.5015   -2.8211    0.0511 C.ar    1  UNL1        0.0581
     33 N          -4.4965   -3.6064   -1.0612 N.ar    1  UNL1       -0.2583
     34 C          -5.6347   -4.1016   -1.5753 C.ar    1  UNL1        0.0279
     35 C          -6.8566   -3.8358   -0.9985 C.ar    1  UNL1       -0.0433
     36 C          -6.9021   -3.0550    0.1141 C.ar    1  UNL1       -0.0557
     37 C          -5.6994   -2.5417    0.6434 C.ar    1  UNL1       -0.0279
     38 C          -5.7900   -1.6965    1.8584 C.3     1  UNL1       -0.0380
     39 C          -2.9514    0.0472    1.1943 C.3     1  UNL1        0.0017
     40 C          -2.0198    1.1718    0.9403 C.3     1  UNL1       -0.0095
     41 N          -1.6765    3.9209   -2.0027 N.ar    1  UNL1       -0.2200
     42 C          -2.2948    5.0790   -2.2398 C.ar    1  UNL1        0.1219
     43 N          -2.5302    5.9189   -1.2133 N.ar    1  UNL1       -0.2013
     44 H          -3.7141    7.5968   -0.0068 H       1  UNL1        0.0660
     45 H          -3.6150    7.9374    1.7973 H       1  UNL1        0.0660
     46 H          -2.2605    8.4667    0.6521 H       1  UNL1        0.0660
     47 H          -1.1847    4.0962    1.2542 H       1  UNL1        0.0705
     48 H           3.5348    1.8826   -0.8375 H       1  UNL1        0.0637
     49 H           5.7292    0.8648   -0.7473 H       1  UNL1        0.0639
     50 H           5.3655   -3.5726    0.4076 H       1  UNL1        0.0624
     51 H           7.4744   -4.8462    0.5954 H       1  UNL1        0.0626
     52 H          11.9628   -3.7245   -0.0669 H       1  UNL1        0.2954
     53 H           9.6078   -1.3142   -0.4577 H       1  UNL1        0.0626
     54 H           7.4787   -0.0508   -0.6414 H       1  UNL1        0.0624
     55 H           1.7630   -1.8093    0.2164 H       1  UNL1        0.0849
     56 H          -2.7636    1.4236   -1.7317 H       1  UNL1        0.0303
     57 H          -1.4932    0.3939   -2.3842 H       1  UNL1        0.0303
     58 H          -2.5399   -1.5003   -1.6879 H       1  UNL1        0.0427
     59 H          -3.9804   -0.4555   -1.6207 H       1  UNL1        0.0427
     60 H          -3.1665   -2.3961    1.6930 H       1  UNL1        0.0491
     61 H          -2.3789   -2.9424    0.2190 H       1  UNL1        0.0491
     62 H          -5.6156   -4.7207   -2.4558 H       1  UNL1        0.0829
     63 H          -7.7989   -4.2355   -1.4088 H       1  UNL1        0.0633
     64 H          -7.8525   -2.8219    0.6014 H       1  UNL1        0.0621
     65 H          -6.5680   -2.1488    2.5389 H       1  UNL1        0.0278
     66 H          -6.0580   -0.6431    1.6275 H       1  UNL1        0.0278
     67 H          -4.8663   -1.7056    2.4556 H       1  UNL1        0.0278
     68 H          -2.7745   -0.4270    2.2095 H       1  UNL1        0.0427
     69 H          -3.9858    0.5009    1.3387 H       1  UNL1        0.0427
     70 H          -2.5807    2.1346    0.9611 H       1  UNL1        0.0303
     71 H          -1.2889    1.2161    1.7839 H       1  UNL1        0.0303
     72 H          -2.6208    5.3741   -3.2448 H       1  UNL1        0.1049
@<TRIPOS>BOND
     1     1     2    1
     2     2     3    1
     3     3     4   ar
     4     4     5   ar
     5     5     6    1
     6     6     7   am
     7     7     8    2
     8     7     9   am
     9     9    10    1
    10    10    11   ar
    11    11    12   ar
    12    12    13   ar
    13    13    14    1
    14    14    15   ar
    15    15    16   ar
    16    16    17   ar
    17    17    18    1
    18    18    19    2
    19    18    20    1
    20    17    21   ar
    21    21    22   ar
    22    13    23   ar
    23    23    24   ar
    24     9    25   am
    25    25    26    2
    26    25    27    1
    27    27    28    1
    28    28    29    1
    29    29    30    1
    30    30    31    1
    31    31    32    1
    32    32    33   ar
    33    33    34   ar
    34    34    35   ar
    35    35    36   ar
    36    36    37   ar
    37    37    38    1
    38    30    39    1
    39    39    40    1
    40     5    41   ar
    41    41    42   ar
    42    42    43   ar
    43    43     3   ar
    44    27     6    1
    45    37    32   ar
    46    24    10   ar
    47    40    27    1
    48    22    14   ar
    49     1    44    1
    50     1    45    1
    51     1    46    1
    52     4    47    1
    53    11    48    1
    54    12    49    1
    55    15    50    1
    56    16    51    1
    57    20    52    1
    58    21    53    1
    59    22    54    1
    60    24    55    1
    61    28    56    1
    62    28    57    1
    63    29    58    1
    64    29    59    1
    65    31    60    1
    66    31    61    1
    67    34    62    1
    68    35    63    1
    69    36    64    1
    70    38    65    1
    71    38    66    1
    72    38    67    1
    73    39    68    1
    74    39    69    1
    75    40    70    1
    76    40    71    1
    77    42    72    1
