@<TRIPOS>MOLECULE
*****
 30 31 0 0 0
SMALL
GASTEIGER

@<TRIPOS>ATOM
      1 C          -0.2366    0.8224    0.3458 C.3     1  UNL1        0.0215
      2 C          -0.2958    2.1351   -0.4137 C.3     1  UNL1        0.0039
      3 N           0.6736    3.0819    0.0672 N.3     1  UNL1       -0.3291
      4 C           1.0893    0.2047    0.2104 C.ar    1  UNL1       -0.0388
      5 C           1.8956    0.2567   -0.9146 C.ar    1  UNL1       -0.0579
      6 C           3.1357   -0.3419   -0.9905 C.ar    1  UNL1       -0.0615
      7 C           3.6408   -1.0405    0.0873 C.ar    1  UNL1       -0.0617
      8 C           2.8558   -1.1138    1.2379 C.ar    1  UNL1       -0.0615
      9 C           1.6248   -0.5064    1.2811 C.ar    1  UNL1       -0.0579
     10 C          -1.3091   -0.0875   -0.0714 C.ar    1  UNL1       -0.0387
     11 C          -1.8478   -0.9119    0.9225 C.ar    1  UNL1       -0.0566
     12 C          -2.8574   -1.8015    0.6382 C.ar    1  UNL1       -0.0431
     13 C          -3.3532   -1.8888   -0.6461 C.ar    1  UNL1        0.0410
     14 CL         -4.6314   -2.9855   -1.1031 Cl      1  UNL1       -0.0835
     15 C          -2.8401   -1.0827   -1.6611 C.ar    1  UNL1       -0.0431
     16 C          -1.8291   -0.2048   -1.3342 C.ar    1  UNL1       -0.0566
     17 H          -0.3545    1.1008    1.4248 H       1  UNL1        0.0410
     18 H          -0.1524    1.9221   -1.4925 H       1  UNL1        0.0431
     19 H          -1.2907    2.6064   -0.2714 H       1  UNL1        0.0431
     20 H           0.4193    4.0439   -0.2233 H       1  UNL1        0.1182
     21 H           0.8444    3.0395    1.0746 H       1  UNL1        0.1182
     22 H           1.5246    0.7922   -1.7608 H       1  UNL1        0.0620
     23 H           3.7100   -0.2537   -1.9164 H       1  UNL1        0.0618
     24 H           4.6063   -1.4823   -0.0307 H       1  UNL1        0.0618
     25 H           3.2842   -1.6694    2.0621 H       1  UNL1        0.0618
     26 H           1.0903   -0.6178    2.2144 H       1  UNL1        0.0620
     27 H          -1.5239   -0.9105    1.9438 H       1  UNL1        0.0621
     28 H          -3.2926   -2.4564    1.4047 H       1  UNL1        0.0632
     29 H          -3.1711   -1.0879   -2.6924 H       1  UNL1        0.0632
     30 H          -1.4090    0.4375   -2.1071 H       1  UNL1        0.0621
@<TRIPOS>BOND
     1     1     2    1
     2     2     3    1
     3     1     4    1
     4     4     5   ar
     5     5     6   ar
     6     6     7   ar
     7     7     8   ar
     8     8     9   ar
     9     1    10    1
    10    10    11   ar
    11    11    12   ar
    12    12    13   ar
    13    13    14    1
    14    13    15   ar
    15    15    16   ar
    16     9     4   ar
    17    16    10   ar
    18     1    17    1
    19     2    18    1
    20     2    19    1
    21     3    20    1
    22     3    21    1
    23     5    22    1
    24     6    23    1
    25     7    24    1
    26     8    25    1
    27     9    26    1
    28    11    27    1
    29    12    28    1
    30    15    29    1
    31    16    30    1
