
     RDKit          3D

 59 62  0  0  0  0  0  0  0  0999 V2000
   -6.3617    2.0529    1.1725 C   0  0  0  0  0  0  0  0  0  0  0  0
   -5.4257    2.8710    0.4754 N   0  0  0  0  0  0  0  0  0  0  0  0
   -4.0744    2.4695    0.8170 C   0  0  0  0  0  0  0  0  0  0  0  0
   -3.3114    2.0194   -0.4136 C   0  0  0  0  0  0  0  0  0  0  0  0
   -4.0565    1.0990   -1.2118 N   0  0  0  0  0  0  0  0  0  0  0  0
   -4.0626   -0.2148   -0.6320 C   0  0  0  0  0  0  0  0  0  0  0  0
   -2.7186   -0.8095   -0.4572 C   0  0  0  0  0  0  0  0  0  0  0  0
   -2.1166   -1.5462   -1.4837 C   0  0  0  0  0  0  0  0  0  0  0  0
   -0.8665   -2.1033   -1.3115 C   0  0  0  0  0  0  0  0  0  0  0  0
   -0.1571   -1.9665   -0.1410 C   0  0  0  0  0  0  0  0  0  0  0  0
    1.1662   -2.5936   -0.0491 C   0  0  0  0  0  0  0  0  0  0  0  0
    1.6365   -3.2450   -1.0427 O   0  0  0  0  0  0  0  0  0  0  0  0
    1.9839   -2.5229    1.1052 N   0  0  0  0  0  0  0  0  0  0  0  0
    3.2621   -3.1687    1.0973 C   0  0  0  0  0  0  0  0  0  0  0  0
    3.3769   -4.4968    1.5090 C   0  0  0  0  0  0  0  0  0  0  0  0
    4.6300   -5.0592    1.4782 C   0  0  0  0  0  0  0  0  0  0  0  0
    5.7169   -4.3213    1.0535 C   0  0  0  0  0  0  0  0  0  0  0  0
    7.3086   -5.0469    1.0180 Cl  0  0  0  0  0  0  0  0  0  0  0  0
    5.5953   -2.9939    0.6434 C   0  0  0  0  0  0  0  0  0  0  0  0
    4.3373   -2.4190    0.6710 C   0  0  0  0  0  0  0  0  0  0  0  0
    4.1246   -1.0376    0.2608 C   0  0  0  0  0  0  0  0  0  0  0  0
    2.9653   -0.5323    0.2974 O   0  0  0  0  0  0  0  0  0  0  0  0
    5.1476   -0.1647   -0.1982 N   0  0  0  0  0  0  0  0  0  0  0  0
    4.8696    1.1858   -0.5870 C   0  0  0  0  0  0  0  0  0  0  0  0
    4.9449    2.1452    0.3828 C   0  0  0  0  0  0  0  0  0  0  0  0
    4.6885    3.4553    0.0654 C   0  0  0  0  0  0  0  0  0  0  0  0
    4.3586    3.7912   -1.2235 C   0  0  0  0  0  0  0  0  0  0  0  0
    4.0413    5.4758   -1.5759 Cl  0  0  0  0  0  0  0  0  0  0  0  0
    4.2902    2.8027   -2.1810 C   0  0  0  0  0  0  0  0  0  0  0  0
    4.5475    1.5305   -1.8342 N   0  0  0  0  0  0  0  0  0  0  0  0
   -0.7273   -1.2530    0.8689 C   0  0  0  0  0  0  0  0  0  0  0  0
   -1.9915   -0.6846    0.7066 C   0  0  0  0  0  0  0  0  0  0  0  0
   -5.3645    1.5603   -1.5591 C   0  0  0  0  0  0  0  0  0  0  0  0
   -5.6792    2.8780   -0.9282 C   0  0  0  0  0  0  0  0  0  0  0  0
   -6.5705    1.0689    0.7165 H   0  0  0  0  0  0  0  0  0  0  0  0
   -6.0138    1.8243    2.2209 H   0  0  0  0  0  0  0  0  0  0  0  0
   -7.3305    2.6025    1.2917 H   0  0  0  0  0  0  0  0  0  0  0  0
   -4.0606    1.6573    1.5676 H   0  0  0  0  0  0  0  0  0  0  0  0
   -3.4991    3.3166    1.2495 H   0  0  0  0  0  0  0  0  0  0  0  0
   -3.0657    2.9159   -1.0364 H   0  0  0  0  0  0  0  0  0  0  0  0
   -2.3392    1.6254   -0.0727 H   0  0  0  0  0  0  0  0  0  0  0  0
   -4.5254   -0.1347    0.3760 H   0  0  0  0  0  0  0  0  0  0  0  0
   -4.7427   -0.8938   -1.2094 H   0  0  0  0  0  0  0  0  0  0  0  0
   -2.6931   -1.6406   -2.3953 H   0  0  0  0  0  0  0  0  0  0  0  0
   -0.4288   -2.6748   -2.1428 H   0  0  0  0  0  0  0  0  0  0  0  0
    1.6357   -1.9998    1.9391 H   0  0  0  0  0  0  0  0  0  0  0  0
    2.4854   -5.0149    1.8290 H   0  0  0  0  0  0  0  0  0  0  0  0
    4.7560   -6.0874    1.7905 H   0  0  0  0  0  0  0  0  0  0  0  0
    6.4590   -2.4294    0.3131 H   0  0  0  0  0  0  0  0  0  0  0  0
    6.1244   -0.5364   -0.2467 H   0  0  0  0  0  0  0  0  0  0  0  0
    5.2039    1.9207    1.4202 H   0  0  0  0  0  0  0  0  0  0  0  0
    4.7520    4.2182    0.8531 H   0  0  0  0  0  0  0  0  0  0  0  0
    4.0260    3.0851   -3.2041 H   0  0  0  0  0  0  0  0  0  0  0  0
   -0.1906   -1.1333    1.7930 H   0  0  0  0  0  0  0  0  0  0  0  0
   -2.4181   -0.1249    1.5353 H   0  0  0  0  0  0  0  0  0  0  0  0
   -6.1812    0.8373   -1.2658 H   0  0  0  0  0  0  0  0  0  0  0  0
   -5.4632    1.6634   -2.6621 H   0  0  0  0  0  0  0  0  0  0  0  0
   -6.7886    3.0426   -1.0518 H   0  0  0  0  0  0  0  0  0  0  0  0
   -5.2095    3.7350   -1.4561 H   0  0  0  0  0  0  0  0  0  0  0  0
  1  2  1  0
  2  3  1  0
  3  4  1  0
  4  5  1  0
  5  6  1  0
  6  7  1  0
  7  8  2  0
  8  9  1  0
  9 10  2  0
 10 11  1  0
 11 12  2  0
 11 13  1  0
 13 14  1  0
 14 15  2  0
 15 16  1  0
 16 17  2  0
 17 18  1  0
 17 19  1  0
 19 20  2  0
 20 21  1  0
 21 22  2  0
 21 23  1  0
 23 24  1  0
 24 25  2  0
 25 26  1  0
 26 27  2  0
 27 28  1  0
 27 29  1  0
 29 30  2  0
 10 31  1  0
 31 32  2  0
  5 33  1  0
 33 34  1  0
 34  2  1  0
 32  7  1  0
 20 14  1  0
 30 24  1  0
  1 35  1  0
  1 36  1  0
  1 37  1  0
  3 38  1  0
  3 39  1  0
  4 40  1  0
  4 41  1  0
  6 42  1  0
  6 43  1  0
  8 44  1  0
  9 45  1  0
 13 46  1  0
 15 47  1  0
 16 48  1  0
 19 49  1  0
 23 50  1  0
 25 51  1  0
 26 52  1  0
 29 53  1  0
 31 54  1  0
 32 55  1  0
 33 56  1  0
 33 57  1  0
 34 58  1  0
 34 59  1  0
M  END
$$$$
