@<TRIPOS>MOLECULE
*****
 59 62 0 0 0
SMALL
GASTEIGER

@<TRIPOS>ATOM
      1 C          -6.3617    2.0529    1.1725 C.3     1  UNL1       -0.0127
      2 N          -5.4257    2.8710    0.4754 N.3     1  UNL1       -0.3029
      3 C          -4.0744    2.4695    0.8170 C.3     1  UNL1        0.0114
      4 C          -3.3114    2.0194   -0.4136 C.3     1  UNL1        0.0120
      5 N          -4.0565    1.0990   -1.2118 N.3     1  UNL1       -0.2957
      6 C          -4.0626   -0.2148   -0.6320 C.3     1  UNL1        0.0241
      7 C          -2.7186   -0.8095   -0.4572 C.ar    1  UNL1       -0.0333
      8 C          -2.1166   -1.5462   -1.4837 C.ar    1  UNL1       -0.0566
      9 C          -0.8665   -2.1033   -1.3115 C.ar    1  UNL1       -0.0493
     10 C          -0.1571   -1.9665   -0.1410 C.ar    1  UNL1        0.0370
     11 C           1.1662   -2.5936   -0.0491 C.2     1  UNL1        0.2483
     12 O           1.6365   -3.2450   -1.0427 O.2     1  UNL1       -0.2699
     13 N           1.9839   -2.5229    1.1052 N.am    1  UNL1       -0.2808
     14 C           3.2621   -3.1687    1.0973 C.ar    1  UNL1        0.0459
     15 C           3.3769   -4.4968    1.5090 C.ar    1  UNL1       -0.0384
     16 C           4.6300   -5.0592    1.4782 C.ar    1  UNL1       -0.0416
     17 C           5.7169   -4.3213    1.0535 C.ar    1  UNL1        0.0418
     18 CL          7.3086   -5.0469    1.0180 Cl      1  UNL1       -0.0835
     19 C           5.5953   -2.9939    0.6434 C.ar    1  UNL1       -0.0295
     20 C           4.3373   -2.4190    0.6710 C.ar    1  UNL1        0.0596
     21 C           4.1246   -1.0376    0.2608 C.2     1  UNL1        0.2511
     22 O           2.9653   -0.5323    0.2974 O.2     1  UNL1       -0.2697
     23 N           5.1476   -0.1647   -0.1982 N.am    1  UNL1       -0.2663
     24 C           4.8696    1.1858   -0.5870 C.ar    1  UNL1        0.1252
     25 C           4.9449    2.1452    0.3828 C.ar    1  UNL1       -0.0201
     26 C           4.6885    3.4553    0.0654 C.ar    1  UNL1       -0.0387
     27 C           4.3586    3.7912   -1.2235 C.ar    1  UNL1        0.0592
     28 CL          4.0413    5.4758   -1.5759 Cl      1  UNL1       -0.0820
     29 C           4.2902    2.8027   -2.1810 C.ar    1  UNL1        0.0480
     30 N           4.5475    1.5305   -1.8342 N.ar    1  UNL1       -0.2387
     31 C          -0.7273   -1.2530    0.8689 C.ar    1  UNL1       -0.0493
     32 C          -1.9915   -0.6846    0.7066 C.ar    1  UNL1       -0.0566
     33 C          -5.3645    1.5603   -1.5591 C.3     1  UNL1        0.0120
     34 C          -5.6792    2.8780   -0.9282 C.3     1  UNL1        0.0114
     35 H          -6.5705    1.0689    0.7165 H       1  UNL1        0.0391
     36 H          -6.0138    1.8243    2.2209 H       1  UNL1        0.0391
     37 H          -7.3305    2.6025    1.2917 H       1  UNL1        0.0391
     38 H          -4.0606    1.6573    1.5676 H       1  UNL1        0.0439
     39 H          -3.4991    3.3166    1.2495 H       1  UNL1        0.0439
     40 H          -3.0657    2.9159   -1.0364 H       1  UNL1        0.0439
     41 H          -2.3392    1.6254   -0.0727 H       1  UNL1        0.0439
     42 H          -4.5254   -0.1347    0.3760 H       1  UNL1        0.0476
     43 H          -4.7427   -0.8938   -1.2094 H       1  UNL1        0.0476
     44 H          -2.6931   -1.6406   -2.3953 H       1  UNL1        0.0621
     45 H          -0.4288   -2.6748   -2.1428 H       1  UNL1        0.0625
     46 H           1.6357   -1.9998    1.9391 H       1  UNL1        0.1552
     47 H           2.4854   -5.0149    1.8290 H       1  UNL1        0.0637
     48 H           4.7560   -6.0874    1.7905 H       1  UNL1        0.0633
     49 H           6.4590   -2.4294    0.3131 H       1  UNL1        0.0640
     50 H           6.1244   -0.5364   -0.2467 H       1  UNL1        0.1566
     51 H           5.2039    1.9207    1.4202 H       1  UNL1        0.0652
     52 H           4.7520    4.2182    0.8531 H       1  UNL1        0.0634
     53 H           4.0260    3.0851   -3.2041 H       1  UNL1        0.0845
     54 H          -0.1906   -1.1333    1.7930 H       1  UNL1        0.0625
     55 H          -2.4181   -0.1249    1.5353 H       1  UNL1        0.0621
     56 H          -6.1812    0.8373   -1.2658 H       1  UNL1        0.0439
     57 H          -5.4632    1.6634   -2.6621 H       1  UNL1        0.0439
     58 H          -6.7886    3.0426   -1.0518 H       1  UNL1        0.0439
     59 H          -5.2095    3.7350   -1.4561 H       1  UNL1        0.0439
@<TRIPOS>BOND
     1     1     2    1
     2     2     3    1
     3     3     4    1
     4     4     5    1
     5     5     6    1
     6     6     7    1
     7     7     8   ar
     8     8     9   ar
     9     9    10   ar
    10    10    11    1
    11    11    12    2
    12    11    13   am
    13    13    14    1
    14    14    15   ar
    15    15    16   ar
    16    16    17   ar
    17    17    18    1
    18    17    19   ar
    19    19    20   ar
    20    20    21    1
    21    21    22    2
    22    21    23   am
    23    23    24    1
    24    24    25   ar
    25    25    26   ar
    26    26    27   ar
    27    27    28    1
    28    27    29   ar
    29    29    30   ar
    30    10    31   ar
    31    31    32   ar
    32     5    33    1
    33    33    34    1
    34    34     2    1
    35    32     7   ar
    36    20    14   ar
    37    30    24   ar
    38     1    35    1
    39     1    36    1
    40     1    37    1
    41     3    38    1
    42     3    39    1
    43     4    40    1
    44     4    41    1
    45     6    42    1
    46     6    43    1
    47     8    44    1
    48     9    45    1
    49    13    46    1
    50    15    47    1
    51    16    48    1
    52    19    49    1
    53    23    50    1
    54    25    51    1
    55    26    52    1
    56    29    53    1
    57    31    54    1
    58    32    55    1
    59    33    56    1
    60    33    57    1
    61    34    58    1
    62    34    59    1
