@<TRIPOS>MOLECULE
*****
 57 62 0 0 0
SMALL
GASTEIGER

@<TRIPOS>ATOM
      1 O           6.1999   -0.0936   -1.7004 O.2     1  UNL1       -0.2702
      2 C           5.1417   -0.5545   -1.2109 C.2     1  UNL1        0.2443
      3 N           5.1931   -1.7967   -0.5376 N.am    1  UNL1       -0.3072
      4 C           6.3890   -2.5961   -0.3610 C.3     1  UNL1        0.0372
      5 C           7.2745   -2.0693    0.7001 C.ar    1  UNL1       -0.0275
      6 C           7.0224   -2.4665    2.0217 C.ar    1  UNL1       -0.0389
      7 C           7.8483   -1.9912    3.0127 C.ar    1  UNL1        0.0279
      8 N           8.8675   -1.1681    2.7112 N.ar    1  UNL1       -0.2632
      9 C           9.1141   -0.7845    1.4486 C.ar    1  UNL1        0.0279
     10 C           8.3152   -1.2294    0.3925 C.ar    1  UNL1       -0.0389
     11 C           3.9217    0.2378   -1.3761 C.ar    1  UNL1        0.0370
     12 C           3.9373    1.4591   -2.0321 C.ar    1  UNL1       -0.0490
     13 C           2.8391    2.2443   -2.2209 C.ar    1  UNL1       -0.0516
     14 C           1.6169    1.8217   -1.7383 C.ar    1  UNL1        0.0036
     15 C           1.5407    0.6229   -1.0815 C.ar    1  UNL1       -0.0331
     16 C           2.6909   -0.1606   -0.9045 C.ar    1  UNL1       -0.0455
     17 C           0.1207    0.3805   -0.6540 C.3     1  UNL1        0.0023
     18 C          -0.5938    1.5597   -1.1354 C.ar    1  UNL1        0.0099
     19 C          -1.8560    2.1613   -1.1930 C.ar    1  UNL1        0.0966
     20 C          -3.1073    1.6437   -0.6562 C.ar    1  UNL1        0.0024
     21 C          -4.0198    2.3888    0.0588 C.ar    1  UNL1       -0.0519
     22 C          -5.1947    1.8442    0.5451 C.ar    1  UNL1       -0.0534
     23 C          -5.5048    0.5093    0.3294 C.ar    1  UNL1       -0.0178
     24 C          -6.7356   -0.0505    0.8417 C.ar    1  UNL1       -0.0177
     25 C          -7.2644    0.4312    2.0104 C.ar    1  UNL1       -0.0506
     26 C          -8.4483   -0.0777    2.5413 C.ar    1  UNL1       -0.0196
     27 C          -9.0874   -1.0959    1.8513 C.ar    1  UNL1        0.1169
     28 O         -10.2694   -1.5854    2.4060 O.3     1  UNL1       -0.5068
     29 C          -8.5840   -1.5958    0.6845 C.ar    1  UNL1       -0.0196
     30 C          -7.4022   -1.0612    0.1893 C.ar    1  UNL1       -0.0506
     31 C          -4.5890   -0.2454   -0.3903 C.ar    1  UNL1       -0.0534
     32 C          -3.4232    0.3181   -0.8661 C.ar    1  UNL1       -0.0519
     33 N          -1.6479    3.3136   -1.8526 N.ar    1  UNL1       -0.1730
     34 N          -0.4062    3.4837   -2.2032 N.ar    1  UNL1       -0.2761
     35 C           0.2711    2.4108   -1.7713 C.ar    1  UNL1        0.0701
     36 H           4.2795   -2.1425   -0.1450 H       1  UNL1        0.1493
     37 H           6.9226   -2.6972   -1.3359 H       1  UNL1        0.0512
     38 H           6.0924   -3.6233   -0.0604 H       1  UNL1        0.0512
     39 H           6.1934   -3.1322    2.2424 H       1  UNL1        0.0636
     40 H           7.6790   -2.2815    4.0520 H       1  UNL1        0.0829
     41 H           9.9439   -0.1117    1.1872 H       1  UNL1        0.0829
     42 H           8.5342   -0.9140   -0.6239 H       1  UNL1        0.0636
     43 H           4.9273    1.7718   -2.4074 H       1  UNL1        0.0625
     44 H           2.8734    3.1863   -2.7317 H       1  UNL1        0.0624
     45 H           2.5860   -1.0969   -0.3820 H       1  UNL1        0.0628
     46 H           0.1120    0.3269    0.4501 H       1  UNL1        0.0363
     47 H          -0.2327   -0.5767   -1.0650 H       1  UNL1        0.0363
     48 H          -3.7878    3.4307    0.2326 H       1  UNL1        0.0624
     49 H          -5.9133    2.4400    1.1105 H       1  UNL1        0.0624
     50 H          -6.7406    1.2241    2.5216 H       1  UNL1        0.0625
     51 H          -8.8413    0.3172    3.4584 H       1  UNL1        0.0654
     52 H         -11.1549   -1.1536    2.1102 H       1  UNL1        0.2921
     53 H          -9.0838   -2.3921    0.1444 H       1  UNL1        0.0654
     54 H          -7.0179   -1.4696   -0.7371 H       1  UNL1        0.0625
     55 H          -4.8525   -1.2807   -0.5449 H       1  UNL1        0.0624
     56 H          -2.7283   -0.3066   -1.4273 H       1  UNL1        0.0624
     57 H           0.0392    4.2735   -2.7184 H       1  UNL1        0.1889
@<TRIPOS>BOND
     1     1     2    2
     2     2     3   am
     3     3     4    1
     4     4     5    1
     5     5     6   ar
     6     6     7   ar
     7     7     8   ar
     8     8     9   ar
     9     9    10   ar
    10     2    11    1
    11    11    12   ar
    12    12    13   ar
    13    13    14   ar
    14    14    15   ar
    15    15    16   ar
    16    15    17    1
    17    17    18    1
    18    18    19   ar
    19    19    20    1
    20    20    21   ar
    21    21    22   ar
    22    22    23   ar
    23    23    24    1
    24    24    25   ar
    25    25    26   ar
    26    26    27   ar
    27    27    28    1
    28    27    29   ar
    29    29    30   ar
    30    23    31   ar
    31    31    32   ar
    32    19    33   ar
    33    33    34   ar
    34    34    35   ar
    35    10     5   ar
    36    16    11   ar
    37    35    18   ar
    38    35    14    1
    39    32    20   ar
    40    30    24   ar
    41     3    36    1
    42     4    37    1
    43     4    38    1
    44     6    39    1
    45     7    40    1
    46     9    41    1
    47    10    42    1
    48    12    43    1
    49    13    44    1
    50    16    45    1
    51    17    46    1
    52    17    47    1
    53    21    48    1
    54    22    49    1
    55    25    50    1
    56    26    51    1
    57    28    52    1
    58    29    53    1
    59    30    54    1
    60    31    55    1
    61    32    56    1
    62    34    57    1
