
     RDKit          3D

 57 62  0  0  0  0  0  0  0  0999 V2000
    6.1999   -0.0936   -1.7004 O   0  0  0  0  0  0  0  0  0  0  0  0
    5.1417   -0.5545   -1.2109 C   0  0  0  0  0  0  0  0  0  0  0  0
    5.1931   -1.7967   -0.5376 N   0  0  0  0  0  0  0  0  0  0  0  0
    6.3890   -2.5961   -0.3610 C   0  0  0  0  0  0  0  0  0  0  0  0
    7.2745   -2.0693    0.7001 C   0  0  0  0  0  0  0  0  0  0  0  0
    7.0224   -2.4665    2.0217 C   0  0  0  0  0  0  0  0  0  0  0  0
    7.8483   -1.9912    3.0127 C   0  0  0  0  0  0  0  0  0  0  0  0
    8.8675   -1.1681    2.7112 N   0  0  0  0  0  0  0  0  0  0  0  0
    9.1141   -0.7845    1.4486 C   0  0  0  0  0  0  0  0  0  0  0  0
    8.3152   -1.2294    0.3925 C   0  0  0  0  0  0  0  0  0  0  0  0
    3.9217    0.2378   -1.3761 C   0  0  0  0  0  0  0  0  0  0  0  0
    3.9373    1.4591   -2.0321 C   0  0  0  0  0  0  0  0  0  0  0  0
    2.8391    2.2443   -2.2209 C   0  0  0  0  0  0  0  0  0  0  0  0
    1.6169    1.8217   -1.7383 C   0  0  0  0  0  0  0  0  0  0  0  0
    1.5407    0.6229   -1.0815 C   0  0  0  0  0  0  0  0  0  0  0  0
    2.6909   -0.1606   -0.9045 C   0  0  0  0  0  0  0  0  0  0  0  0
    0.1207    0.3805   -0.6540 C   0  0  0  0  0  0  0  0  0  0  0  0
   -0.5938    1.5597   -1.1354 C   0  0  0  0  0  0  0  0  0  0  0  0
   -1.8560    2.1613   -1.1930 C   0  0  0  0  0  0  0  0  0  0  0  0
   -3.1073    1.6437   -0.6562 C   0  0  0  0  0  0  0  0  0  0  0  0
   -4.0198    2.3888    0.0588 C   0  0  0  0  0  0  0  0  0  0  0  0
   -5.1947    1.8442    0.5451 C   0  0  0  0  0  0  0  0  0  0  0  0
   -5.5048    0.5093    0.3294 C   0  0  0  0  0  0  0  0  0  0  0  0
   -6.7356   -0.0505    0.8417 C   0  0  0  0  0  0  0  0  0  0  0  0
   -7.2644    0.4312    2.0104 C   0  0  0  0  0  0  0  0  0  0  0  0
   -8.4483   -0.0777    2.5413 C   0  0  0  0  0  0  0  0  0  0  0  0
   -9.0874   -1.0959    1.8513 C   0  0  0  0  0  0  0  0  0  0  0  0
  -10.2694   -1.5854    2.4060 O   0  0  0  0  0  0  0  0  0  0  0  0
   -8.5840   -1.5958    0.6845 C   0  0  0  0  0  0  0  0  0  0  0  0
   -7.4022   -1.0612    0.1893 C   0  0  0  0  0  0  0  0  0  0  0  0
   -4.5890   -0.2454   -0.3903 C   0  0  0  0  0  0  0  0  0  0  0  0
   -3.4232    0.3181   -0.8661 C   0  0  0  0  0  0  0  0  0  0  0  0
   -1.6479    3.3136   -1.8526 N   0  0  0  0  0  0  0  0  0  0  0  0
   -0.4062    3.4837   -2.2032 N   0  0  0  0  0  0  0  0  0  0  0  0
    0.2711    2.4108   -1.7713 C   0  0  0  0  0  0  0  0  0  0  0  0
    4.2795   -2.1425   -0.1450 H   0  0  0  0  0  0  0  0  0  0  0  0
    6.9226   -2.6972   -1.3359 H   0  0  0  0  0  0  0  0  0  0  0  0
    6.0924   -3.6233   -0.0604 H   0  0  0  0  0  0  0  0  0  0  0  0
    6.1934   -3.1322    2.2424 H   0  0  0  0  0  0  0  0  0  0  0  0
    7.6790   -2.2815    4.0520 H   0  0  0  0  0  0  0  0  0  0  0  0
    9.9439   -0.1117    1.1872 H   0  0  0  0  0  0  0  0  0  0  0  0
    8.5342   -0.9140   -0.6239 H   0  0  0  0  0  0  0  0  0  0  0  0
    4.9273    1.7718   -2.4074 H   0  0  0  0  0  0  0  0  0  0  0  0
    2.8734    3.1863   -2.7317 H   0  0  0  0  0  0  0  0  0  0  0  0
    2.5860   -1.0969   -0.3820 H   0  0  0  0  0  0  0  0  0  0  0  0
    0.1120    0.3269    0.4501 H   0  0  0  0  0  0  0  0  0  0  0  0
   -0.2327   -0.5767   -1.0650 H   0  0  0  0  0  0  0  0  0  0  0  0
   -3.7878    3.4307    0.2326 H   0  0  0  0  0  0  0  0  0  0  0  0
   -5.9133    2.4400    1.1105 H   0  0  0  0  0  0  0  0  0  0  0  0
   -6.7406    1.2241    2.5216 H   0  0  0  0  0  0  0  0  0  0  0  0
   -8.8413    0.3172    3.4584 H   0  0  0  0  0  0  0  0  0  0  0  0
  -11.1549   -1.1536    2.1102 H   0  0  0  0  0  0  0  0  0  0  0  0
   -9.0838   -2.3921    0.1444 H   0  0  0  0  0  0  0  0  0  0  0  0
   -7.0179   -1.4696   -0.7371 H   0  0  0  0  0  0  0  0  0  0  0  0
   -4.8525   -1.2807   -0.5449 H   0  0  0  0  0  0  0  0  0  0  0  0
   -2.7283   -0.3066   -1.4273 H   0  0  0  0  0  0  0  0  0  0  0  0
    0.0392    4.2735   -2.7184 H   0  0  0  0  0  0  0  0  0  0  0  0
  1  2  2  0
  2  3  1  0
  3  4  1  0
  4  5  1  0
  5  6  2  0
  6  7  1  0
  7  8  2  0
  8  9  1  0
  9 10  2  0
  2 11  1  0
 11 12  2  0
 12 13  1  0
 13 14  2  0
 14 15  1  0
 15 16  2  0
 15 17  1  0
 17 18  1  0
 18 19  1  0
 19 20  1  0
 20 21  2  0
 21 22  1  0
 22 23  2  0
 23 24  1  0
 24 25  2  0
 25 26  1  0
 26 27  2  0
 27 28  1  0
 27 29  1  0
 29 30  2  0
 23 31  1  0
 31 32  2  0
 19 33  2  0
 33 34  1  0
 34 35  1  0
 10  5  1  0
 16 11  1  0
 35 18  2  0
 35 14  1  0
 32 20  1  0
 30 24  1  0
  3 36  1  0
  4 37  1  0
  4 38  1  0
  6 39  1  0
  7 40  1  0
  9 41  1  0
 10 42  1  0
 12 43  1  0
 13 44  1  0
 16 45  1  0
 17 46  1  0
 17 47  1  0
 21 48  1  0
 22 49  1  0
 25 50  1  0
 26 51  1  0
 28 52  1  0
 29 53  1  0
 30 54  1  0
 31 55  1  0
 32 56  1  0
 34 57  1  0
M  END
$$$$
