@<TRIPOS>MOLECULE
*****
 65 71 0 0 0
SMALL
GASTEIGER

@<TRIPOS>ATOM
      1 C          -3.8904    2.4701    1.2216 C.3     1  UNL1       -0.0377
      2 C          -3.3901    2.4954   -0.1975 C.ar    1  UNL1       -0.0265
      3 C          -3.6037    3.6766   -0.9211 C.ar    1  UNL1       -0.0569
      4 C          -3.1761    3.6858   -2.2315 C.ar    1  UNL1       -0.0614
      5 C          -2.5663    2.6131   -2.8360 C.ar    1  UNL1       -0.0598
      6 C          -2.3771    1.4672   -2.0750 C.ar    1  UNL1       -0.0374
      7 C          -2.7867    1.4151   -0.7693 C.ar    1  UNL1        0.0541
      8 N          -2.5834    0.2261   -0.0378 N.ar    1  UNL1       -0.2626
      9 C          -1.6413    0.0161    0.8843 C.ar    1  UNL1        0.1390
     10 C          -0.6772    1.0605    1.2745 C.3     1  UNL1        0.1005
     11 N           0.6159    0.8831    0.6835 N.ar    1  UNL1       -0.2557
     12 N           1.4827   -0.0195    1.1672 N.ar    1  UNL1       -0.1696
     13 C           2.5983   -0.0391    0.4216 C.ar    1  UNL1        0.1028
     14 C           3.8003   -0.8429    0.5998 C.ar    1  UNL1        0.0119
     15 C           4.2311   -1.7687   -0.3511 C.ar    1  UNL1       -0.0518
     16 C           5.3734   -2.4893   -0.0779 C.ar    1  UNL1       -0.0592
     17 C           6.0860   -2.3206    1.0911 C.ar    1  UNL1       -0.0378
     18 C           5.6683   -1.4102    2.0326 C.ar    1  UNL1        0.0471
     19 N           6.1426   -1.0179    3.2442 N.ar    1  UNL1       -0.3606
     20 C           5.3569   -0.0683    3.7765 C.ar    1  UNL1        0.0028
     21 C           4.3499    0.1397    2.8566 C.ar    1  UNL1       -0.0360
     22 C           4.5262   -0.6877    1.7626 C.ar    1  UNL1        0.0089
     23 C           2.3855    0.9166   -0.5727 C.ar    1  UNL1        0.0482
     24 C           3.2151    1.3237   -1.5803 C.ar    1  UNL1        0.0359
     25 N           4.4825    0.7142   -1.7109 N.pl3   1  UNL1       -0.3574
     26 C           2.7907    2.3289   -2.4344 C.ar    1  UNL1       -0.0403
     27 C           1.5504    2.8911   -2.2491 C.ar    1  UNL1       -0.0580
     28 C           0.6912    2.5019   -1.2428 C.ar    1  UNL1       -0.0359
     29 C           1.1426    1.4834   -0.3937 C.ar    1  UNL1        0.0718
     30 N          -1.5514   -1.1843    1.5357 N.ar    1  UNL1       -0.2312
     31 C          -2.4083   -2.1612    1.2564 C.ar    1  UNL1        0.0785
     32 C          -2.2965   -3.3693    1.9444 C.ar    1  UNL1       -0.0355
     33 C          -3.2013   -4.3500    1.6386 C.ar    1  UNL1       -0.0595
     34 C          -4.1922   -4.1820    0.6967 C.ar    1  UNL1       -0.0580
     35 C          -4.3046   -2.9718    0.0072 C.ar    1  UNL1       -0.0361
     36 C          -5.3808   -2.8002   -1.0017 C.3     1  UNL1       -0.0389
     37 C          -3.3943   -1.9634    0.3030 C.ar    1  UNL1        0.0681
     38 C          -3.4884   -0.7679   -0.3513 C.ar    1  UNL1        0.2666
     39 O          -4.3751   -0.5716   -1.2178 O.2     1  UNL1       -0.2666
     40 H          -4.9427    2.7649    1.2775 H       1  UNL1        0.0278
     41 H          -3.1906    3.0844    1.8142 H       1  UNL1        0.0278
     42 H          -3.8142    1.4350    1.6357 H       1  UNL1        0.0278
     43 H          -4.0712    4.5479   -0.5212 H       1  UNL1        0.0621
     44 H          -3.3157    4.5855   -2.8535 H       1  UNL1        0.0618
     45 H          -2.2258    2.6025   -3.8664 H       1  UNL1        0.0618
     46 H          -1.8943    0.6124   -2.5424 H       1  UNL1        0.0638
     47 H          -1.1165    2.0558    0.9638 H       1  UNL1        0.0590
     48 H          -0.5644    1.1274    2.3821 H       1  UNL1        0.0590
     49 H           3.6677   -1.8913   -1.2502 H       1  UNL1        0.0624
     50 H           5.6812   -3.1950   -0.8381 H       1  UNL1        0.0618
     51 H           6.9798   -2.9042    1.2800 H       1  UNL1        0.0638
     52 H           6.9985   -1.4032    3.6901 H       1  UNL1        0.1653
     53 H           5.4403    0.4576    4.7168 H       1  UNL1        0.0807
     54 H           3.5439    0.8441    2.9719 H       1  UNL1        0.0639
     55 H           5.2045    0.8827   -0.9924 H       1  UNL1        0.1423
     56 H           4.6795    0.1057   -2.5193 H       1  UNL1        0.1423
     57 H           3.4586    2.6388   -3.2218 H       1  UNL1        0.0636
     58 H           1.2182    3.6772   -2.9180 H       1  UNL1        0.0619
     59 H          -0.2614    2.9302   -1.0659 H       1  UNL1        0.0639
     60 H          -1.5333   -3.5379    2.6889 H       1  UNL1        0.0639
     61 H          -3.1552   -5.3223    2.1531 H       1  UNL1        0.0618
     62 H          -4.9107   -4.9717    0.4632 H       1  UNL1        0.0620
     63 H          -6.1227   -2.0189   -0.7194 H       1  UNL1        0.0278
     64 H          -4.9759   -2.6777   -2.0157 H       1  UNL1        0.0278
     65 H          -5.9818   -3.7527   -1.0389 H       1  UNL1        0.0278
@<TRIPOS>BOND
     1     1     2    1
     2     2     3   ar
     3     3     4   ar
     4     4     5   ar
     5     5     6   ar
     6     6     7   ar
     7     7     8    1
     8     8     9   ar
     9     9    10    1
    10    10    11    1
    11    11    12   ar
    12    12    13   ar
    13    13    14    1
    14    14    15   ar
    15    15    16   ar
    16    16    17   ar
    17    17    18   ar
    18    18    19   ar
    19    19    20   ar
    20    20    21   ar
    21    21    22   ar
    22    13    23   ar
    23    23    24   ar
    24    24    25    1
    25    24    26   ar
    26    26    27   ar
    27    27    28   ar
    28    28    29   ar
    29     9    30   ar
    30    30    31   ar
    31    31    32   ar
    32    32    33   ar
    33    33    34   ar
    34    34    35   ar
    35    35    36    1
    36    35    37   ar
    37    37    38   ar
    38    38    39    2
    39     7     2   ar
    40    38     8   ar
    41    29    11   ar
    42    37    31   ar
    43    22    14   ar
    44    29    23   ar
    45    22    18   ar
    46     1    40    1
    47     1    41    1
    48     1    42    1
    49     3    43    1
    50     4    44    1
    51     5    45    1
    52     6    46    1
    53    10    47    1
    54    10    48    1
    55    15    49    1
    56    16    50    1
    57    17    51    1
    58    19    52    1
    59    20    53    1
    60    21    54    1
    61    25    55    1
    62    25    56    1
    63    26    57    1
    64    27    58    1
    65    28    59    1
    66    32    60    1
    67    33    61    1
    68    34    62    1
    69    36    63    1
    70    36    64    1
    71    36    65    1
