
     RDKit          3D

 65 71  0  0  0  0  0  0  0  0999 V2000
   -3.8904    2.4701    1.2216 C   0  0  0  0  0  0  0  0  0  0  0  0
   -3.3901    2.4954   -0.1975 C   0  0  0  0  0  0  0  0  0  0  0  0
   -3.6037    3.6766   -0.9211 C   0  0  0  0  0  0  0  0  0  0  0  0
   -3.1761    3.6858   -2.2315 C   0  0  0  0  0  0  0  0  0  0  0  0
   -2.5663    2.6131   -2.8360 C   0  0  0  0  0  0  0  0  0  0  0  0
   -2.3771    1.4672   -2.0750 C   0  0  0  0  0  0  0  0  0  0  0  0
   -2.7867    1.4151   -0.7693 C   0  0  0  0  0  0  0  0  0  0  0  0
   -2.5834    0.2261   -0.0378 N   0  0  0  0  0  0  0  0  0  0  0  0
   -1.6413    0.0161    0.8843 C   0  0  0  0  0  0  0  0  0  0  0  0
   -0.6772    1.0605    1.2745 C   0  0  0  0  0  0  0  0  0  0  0  0
    0.6159    0.8831    0.6835 N   0  0  0  0  0  0  0  0  0  0  0  0
    1.4827   -0.0195    1.1672 N   0  0  0  0  0  0  0  0  0  0  0  0
    2.5983   -0.0391    0.4216 C   0  0  0  0  0  0  0  0  0  0  0  0
    3.8003   -0.8429    0.5998 C   0  0  0  0  0  0  0  0  0  0  0  0
    4.2311   -1.7687   -0.3511 C   0  0  0  0  0  0  0  0  0  0  0  0
    5.3734   -2.4893   -0.0779 C   0  0  0  0  0  0  0  0  0  0  0  0
    6.0860   -2.3206    1.0911 C   0  0  0  0  0  0  0  0  0  0  0  0
    5.6683   -1.4102    2.0326 C   0  0  0  0  0  0  0  0  0  0  0  0
    6.1426   -1.0179    3.2442 N   0  0  0  0  0  0  0  0  0  0  0  0
    5.3569   -0.0683    3.7765 C   0  0  0  0  0  0  0  0  0  0  0  0
    4.3499    0.1397    2.8566 C   0  0  0  0  0  0  0  0  0  0  0  0
    4.5262   -0.6877    1.7626 C   0  0  0  0  0  0  0  0  0  0  0  0
    2.3855    0.9166   -0.5727 C   0  0  0  0  0  0  0  0  0  0  0  0
    3.2151    1.3237   -1.5803 C   0  0  0  0  0  0  0  0  0  0  0  0
    4.4825    0.7142   -1.7109 N   0  0  0  0  0  0  0  0  0  0  0  0
    2.7907    2.3289   -2.4344 C   0  0  0  0  0  0  0  0  0  0  0  0
    1.5504    2.8911   -2.2491 C   0  0  0  0  0  0  0  0  0  0  0  0
    0.6912    2.5019   -1.2428 C   0  0  0  0  0  0  0  0  0  0  0  0
    1.1426    1.4834   -0.3937 C   0  0  0  0  0  0  0  0  0  0  0  0
   -1.5514   -1.1843    1.5357 N   0  0  0  0  0  0  0  0  0  0  0  0
   -2.4083   -2.1612    1.2564 C   0  0  0  0  0  0  0  0  0  0  0  0
   -2.2965   -3.3693    1.9444 C   0  0  0  0  0  0  0  0  0  0  0  0
   -3.2013   -4.3500    1.6386 C   0  0  0  0  0  0  0  0  0  0  0  0
   -4.1922   -4.1820    0.6967 C   0  0  0  0  0  0  0  0  0  0  0  0
   -4.3046   -2.9718    0.0072 C   0  0  0  0  0  0  0  0  0  0  0  0
   -5.3808   -2.8002   -1.0017 C   0  0  0  0  0  0  0  0  0  0  0  0
   -3.3943   -1.9634    0.3030 C   0  0  0  0  0  0  0  0  0  0  0  0
   -3.4884   -0.7679   -0.3513 C   0  0  0  0  0  0  0  0  0  0  0  0
   -4.3751   -0.5716   -1.2178 O   0  0  0  0  0  0  0  0  0  0  0  0
   -4.9427    2.7649    1.2775 H   0  0  0  0  0  0  0  0  0  0  0  0
   -3.1906    3.0844    1.8142 H   0  0  0  0  0  0  0  0  0  0  0  0
   -3.8142    1.4350    1.6357 H   0  0  0  0  0  0  0  0  0  0  0  0
   -4.0712    4.5479   -0.5212 H   0  0  0  0  0  0  0  0  0  0  0  0
   -3.3157    4.5855   -2.8535 H   0  0  0  0  0  0  0  0  0  0  0  0
   -2.2258    2.6025   -3.8664 H   0  0  0  0  0  0  0  0  0  0  0  0
   -1.8943    0.6124   -2.5424 H   0  0  0  0  0  0  0  0  0  0  0  0
   -1.1165    2.0558    0.9638 H   0  0  0  0  0  0  0  0  0  0  0  0
   -0.5644    1.1274    2.3821 H   0  0  0  0  0  0  0  0  0  0  0  0
    3.6677   -1.8913   -1.2502 H   0  0  0  0  0  0  0  0  0  0  0  0
    5.6812   -3.1950   -0.8381 H   0  0  0  0  0  0  0  0  0  0  0  0
    6.9798   -2.9042    1.2800 H   0  0  0  0  0  0  0  0  0  0  0  0
    6.9985   -1.4032    3.6901 H   0  0  0  0  0  0  0  0  0  0  0  0
    5.4403    0.4576    4.7168 H   0  0  0  0  0  0  0  0  0  0  0  0
    3.5439    0.8441    2.9719 H   0  0  0  0  0  0  0  0  0  0  0  0
    5.2045    0.8827   -0.9924 H   0  0  0  0  0  0  0  0  0  0  0  0
    4.6795    0.1057   -2.5193 H   0  0  0  0  0  0  0  0  0  0  0  0
    3.4586    2.6388   -3.2218 H   0  0  0  0  0  0  0  0  0  0  0  0
    1.2182    3.6772   -2.9180 H   0  0  0  0  0  0  0  0  0  0  0  0
   -0.2614    2.9302   -1.0659 H   0  0  0  0  0  0  0  0  0  0  0  0
   -1.5333   -3.5379    2.6889 H   0  0  0  0  0  0  0  0  0  0  0  0
   -3.1552   -5.3223    2.1531 H   0  0  0  0  0  0  0  0  0  0  0  0
   -4.9107   -4.9717    0.4632 H   0  0  0  0  0  0  0  0  0  0  0  0
   -6.1227   -2.0189   -0.7194 H   0  0  0  0  0  0  0  0  0  0  0  0
   -4.9759   -2.6777   -2.0157 H   0  0  0  0  0  0  0  0  0  0  0  0
   -5.9818   -3.7527   -1.0389 H   0  0  0  0  0  0  0  0  0  0  0  0
  1  2  1  0
  2  3  2  0
  3  4  1  0
  4  5  2  0
  5  6  1  0
  6  7  2  0
  7  8  1  0
  8  9  1  0
  9 10  1  0
 10 11  1  0
 11 12  1  0
 12 13  2  0
 13 14  1  0
 14 15  2  0
 15 16  1  0
 16 17  2  0
 17 18  1  0
 18 19  1  0
 19 20  1  0
 20 21  2  0
 21 22  1  0
 13 23  1  0
 23 24  2  0
 24 25  1  0
 24 26  1  0
 26 27  2  0
 27 28  1  0
 28 29  2  0
  9 30  2  0
 30 31  1  0
 31 32  2  0
 32 33  1  0
 33 34  2  0
 34 35  1  0
 35 36  1  0
 35 37  2  0
 37 38  1  0
 38 39  2  0
  7  2  1  0
 38  8  1  0
 29 11  1  0
 37 31  1  0
 22 14  1  0
 29 23  1  0
 22 18  2  0
  1 40  1  0
  1 41  1  0
  1 42  1  0
  3 43  1  0
  4 44  1  0
  5 45  1  0
  6 46  1  0
 10 47  1  0
 10 48  1  0
 15 49  1  0
 16 50  1  0
 17 51  1  0
 19 52  1  0
 20 53  1  0
 21 54  1  0
 25 55  1  0
 25 56  1  0
 26 57  1  0
 27 58  1  0
 28 59  1  0
 32 60  1  0
 33 61  1  0
 34 62  1  0
 36 63  1  0
 36 64  1  0
 36 65  1  0
M  END
$$$$
