
     RDKit          3D

 22 22  0  0  0  0  0  0  0  0999 V2000
   -3.7459   -0.3742   -0.8227 N   0  0  0  0  0  0  0  0  0  0  0  0
   -2.8230   -0.2410    0.6493 S   0  0  0  0  0  0  0  0  0  0  0  0
   -2.8097   -1.5823    1.3135 O   0  0  0  0  0  0  0  0  0  0  0  0
   -3.5172    0.7452    1.5400 O   0  0  0  0  0  0  0  0  0  0  0  0
   -1.1926    0.3085    0.2871 C   0  0  0  0  0  0  0  0  0  0  0  0
   -0.1818   -0.5931    0.0215 C   0  0  0  0  0  0  0  0  0  0  0  0
    1.1298   -0.2297   -0.2725 C   0  0  0  0  0  0  0  0  0  0  0  0
    1.3912    1.1432   -0.2881 C   0  0  0  0  0  0  0  0  0  0  0  0
    3.0245    1.6798   -0.6514 Cl  0  0  0  0  0  0  0  0  0  0  0  0
    0.4150    2.1085   -0.0285 C   0  0  0  0  0  0  0  0  0  0  0  0
    0.8176    3.8133   -0.0660 Cl  0  0  0  0  0  0  0  0  0  0  0  0
   -0.8659    1.6543    0.2553 C   0  0  0  0  0  0  0  0  0  0  0  0
    2.3922   -1.3733   -0.6047 S   0  0  0  0  0  0  0  0  0  0  0  0
    3.7071   -1.2764    0.4907 N   0  0  0  0  0  0  0  0  0  0  0  0
    2.9003   -1.3115   -2.0041 O   0  0  0  0  0  0  0  0  0  0  0  0
    1.7833   -2.7499   -0.4057 O   0  0  0  0  0  0  0  0  0  0  0  0
   -4.1127    0.5552   -1.1046 H   0  0  0  0  0  0  0  0  0  0  0  0
   -4.4411   -1.1285   -0.7655 H   0  0  0  0  0  0  0  0  0  0  0  0
   -0.4164   -1.6632    0.0409 H   0  0  0  0  0  0  0  0  0  0  0  0
   -1.6260    2.3965    0.4572 H   0  0  0  0  0  0  0  0  0  0  0  0
    3.5438   -0.7124    1.3285 H   0  0  0  0  0  0  0  0  0  0  0  0
    4.6274   -1.1691    0.0259 H   0  0  0  0  0  0  0  0  0  0  0  0
  1  2  1  0
  2  3  2  0
  2  4  2  0
  2  5  1  0
  5  6  2  0
  6  7  1  0
  7  8  2  0
  8  9  1  0
  8 10  1  0
 10 11  1  0
 10 12  2  0
  7 13  1  0
 13 14  1  0
 13 15  2  0
 13 16  2  0
 12  5  1  0
  1 17  1  0
  1 18  1  0
  6 19  1  0
 12 20  1  0
 14 21  1  0
 14 22  1  0
M  END
$$$$
