@<TRIPOS>MOLECULE
*****
 25 25 0 0 0
SMALL
GASTEIGER

@<TRIPOS>ATOM
      1 C          -2.5105   -1.3967   -0.3548 C.3     1  UNL1       -0.0115
      2 N          -1.3163   -0.5567   -0.4017 N.3     1  UNL1       -0.2904
      3 C          -1.5719    0.5310    0.5449 C.3     1  UNL1        0.0607
      4 C          -2.6544    1.3718    0.0020 C.1     1  UNL1       -0.0900
      5 C          -3.5664    2.0618   -0.4349 C.1     1  UNL1       -0.1179
      6 C          -0.1326   -1.3030   -0.0521 C.3     1  UNL1        0.0246
      7 C           1.1077   -0.4913   -0.0705 C.ar    1  UNL1       -0.0333
      8 C           1.8265   -0.4049   -1.2685 C.ar    1  UNL1       -0.0573
      9 C           2.9898    0.3358   -1.3519 C.ar    1  UNL1       -0.0615
     10 C           3.4814    1.0216   -0.2348 C.ar    1  UNL1       -0.0617
     11 C           2.7827    0.9418    0.9449 C.ar    1  UNL1       -0.0615
     12 C           1.6236    0.1982    1.0099 C.ar    1  UNL1       -0.0573
     13 H          -2.1856   -2.4104   -0.0633 H       1  UNL1        0.0391
     14 H          -2.9753   -1.4924   -1.3620 H       1  UNL1        0.0391
     15 H          -3.2504   -1.0547    0.3952 H       1  UNL1        0.0391
     16 H          -1.9366    0.1081    1.5022 H       1  UNL1        0.0563
     17 H          -0.6967    1.1655    0.7140 H       1  UNL1        0.0563
     18 H          -4.3611    2.6467   -0.8258 H       1  UNL1        0.1228
     19 H          -0.2412   -1.8217    0.9299 H       1  UNL1        0.0476
     20 H          -0.0405   -2.1189   -0.8122 H       1  UNL1        0.0476
     21 H           1.5076   -0.9130   -2.1783 H       1  UNL1        0.0621
     22 H           3.5457    0.3974   -2.2935 H       1  UNL1        0.0618
     23 H           4.4007    1.6032   -0.3048 H       1  UNL1        0.0618
     24 H           3.1009    1.4440    1.8509 H       1  UNL1        0.0618
     25 H           1.0729    0.1368    1.9531 H       1  UNL1        0.0621
@<TRIPOS>BOND
     1     1     2    1
     2     2     3    1
     3     3     4    1
     4     4     5    3
     5     2     6    1
     6     6     7    1
     7     7     8   ar
     8     8     9   ar
     9     9    10   ar
    10    10    11   ar
    11    11    12   ar
    12    12     7   ar
    13     1    13    1
    14     1    14    1
    15     1    15    1
    16     3    16    1
    17     3    17    1
    18     5    18    1
    19     6    19    1
    20     6    20    1
    21     8    21    1
    22     9    22    1
    23    10    23    1
    24    11    24    1
    25    12    25    1
