
     RDKit          3D

 50 54  0  0  0  0  0  0  0  0999 V2000
   -7.5258    0.8097    0.4893 C   0  0  0  0  0  0  0  0  0  0  0  0
   -6.2802    0.1397    0.1053 N   0  0  0  0  0  0  0  0  0  0  0  0
   -5.0720    0.6934    0.2551 C   0  0  0  0  0  0  0  0  0  0  0  0
   -4.1594   -0.2543   -0.2239 C   0  0  0  0  0  0  0  0  0  0  0  0
   -2.7133   -0.0333   -0.2820 C   0  0  0  0  0  0  0  0  0  0  0  0
   -2.2471    0.9716   -1.1470 C   0  0  0  0  0  0  0  0  0  0  0  0
   -0.9068    1.1937   -1.2435 C   0  0  0  0  0  0  0  0  0  0  0  0
    0.0121    0.4376   -0.4961 C   0  0  0  0  0  0  0  0  0  0  0  0
   -0.4607   -0.5365    0.3423 C   0  0  0  0  0  0  0  0  0  0  0  0
   -1.8372   -0.7876    0.4624 C   0  0  0  0  0  0  0  0  0  0  0  0
   -2.2516   -1.8504    1.4124 C   0  0  0  0  0  0  0  0  0  0  0  0
   -3.1038   -1.4091    2.3931 F   0  0  0  0  0  0  0  0  0  0  0  0
   -2.8640   -2.9189    0.7583 F   0  0  0  0  0  0  0  0  0  0  0  0
    1.3900    0.6787   -0.6184 N   0  0  0  0  0  0  0  0  0  0  0  0
    2.3589   -0.3744   -0.4244 C   0  0  0  0  0  0  0  0  0  0  0  0
    1.9487   -1.6515   -0.7419 C   0  0  0  0  0  0  0  0  0  0  0  0
    2.8795   -2.6611   -0.5313 C   0  0  0  0  0  0  0  0  0  0  0  0
    4.1343   -2.3508   -0.0296 C   0  0  0  0  0  0  0  0  0  0  0  0
    5.5640   -3.3824    0.3631 S   0  0  0  0  0  0  0  0  0  0  0  0
    6.5917   -1.9581    0.9268 C   0  0  0  0  0  0  0  0  0  0  0  0
    7.7684   -2.0743    1.3452 O   0  0  0  0  0  0  0  0  0  0  0  0
    5.7708   -0.9095    0.7605 N   0  0  0  0  0  0  0  0  0  0  0  0
    6.3543    0.4394    1.1527 C   0  0  0  0  0  0  0  0  0  0  0  0
    4.5682   -1.0887    0.2941 C   0  0  0  0  0  0  0  0  0  0  0  0
    3.6006   -0.0742    0.0706 C   0  0  0  0  0  0  0  0  0  0  0  0
    1.8516    1.9962   -0.9704 C   0  0  0  0  0  0  0  0  0  0  0  0
    0.7406    2.9288   -1.3190 C   0  0  0  0  0  0  0  0  0  0  0  0
   -0.3174    2.2358   -2.1119 C   0  0  0  0  0  0  0  0  0  0  0  0
   -4.8717   -1.3431   -0.6439 C   0  0  0  0  0  0  0  0  0  0  0  0
   -6.1795   -1.0622   -0.4237 N   0  0  0  0  0  0  0  0  0  0  0  0
   -7.3187    1.3451    1.4325 H   0  0  0  0  0  0  0  0  0  0  0  0
   -7.8558    1.5347   -0.2764 H   0  0  0  0  0  0  0  0  0  0  0  0
   -8.3536    0.0767    0.6136 H   0  0  0  0  0  0  0  0  0  0  0  0
   -4.8309    1.6828    0.6661 H   0  0  0  0  0  0  0  0  0  0  0  0
   -2.9949    1.5187   -1.6947 H   0  0  0  0  0  0  0  0  0  0  0  0
    0.2603   -1.1218    0.9356 H   0  0  0  0  0  0  0  0  0  0  0  0
   -1.3410   -2.2564    1.9296 H   0  0  0  0  0  0  0  0  0  0  0  0
    1.0056   -1.9339   -1.1346 H   0  0  0  0  0  0  0  0  0  0  0  0
    2.6686   -3.6964   -0.7436 H   0  0  0  0  0  0  0  0  0  0  0  0
    5.5041    1.1099    1.3683 H   0  0  0  0  0  0  0  0  0  0  0  0
    6.9138    0.3298    2.0765 H   0  0  0  0  0  0  0  0  0  0  0  0
    6.9795    0.8133    0.3334 H   0  0  0  0  0  0  0  0  0  0  0  0
    3.7902    0.9624    0.2753 H   0  0  0  0  0  0  0  0  0  0  0  0
    2.4794    2.4270   -0.1558 H   0  0  0  0  0  0  0  0  0  0  0  0
    2.4660    1.8637   -1.9061 H   0  0  0  0  0  0  0  0  0  0  0  0
    1.1364    3.8052   -1.8745 H   0  0  0  0  0  0  0  0  0  0  0  0
    0.2604    3.3435   -0.4086 H   0  0  0  0  0  0  0  0  0  0  0  0
   -1.0790    2.9498   -2.4864 H   0  0  0  0  0  0  0  0  0  0  0  0
    0.0878    1.7228   -3.0118 H   0  0  0  0  0  0  0  0  0  0  0  0
   -4.5215   -2.2809   -1.0961 H   0  0  0  0  0  0  0  0  0  0  0  0
  1  2  1  0
  2  3  1  0
  3  4  2  0
  4  5  1  0
  5  6  2  0
  6  7  1  0
  7  8  2  0
  8  9  1  0
  9 10  2  0
 10 11  1  0
 11 12  1  0
 11 13  1  0
  8 14  1  0
 14 15  1  0
 15 16  2  0
 16 17  1  0
 17 18  2  0
 18 19  1  0
 19 20  1  0
 20 21  2  0
 20 22  1  0
 22 23  1  0
 22 24  1  0
 24 25  2  0
 14 26  1  0
 26 27  1  0
 27 28  1  0
  4 29  1  0
 29 30  2  0
 30  2  1  0
 10  5  1  0
 25 15  1  0
 28  7  1  0
 24 18  1  0
  1 31  1  0
  1 32  1  0
  1 33  1  0
  3 34  1  0
  6 35  1  0
  9 36  1  0
 11 37  1  0
 16 38  1  0
 17 39  1  0
 23 40  1  0
 23 41  1  0
 23 42  1  0
 25 43  1  0
 26 44  1  0
 26 45  1  0
 27 46  1  0
 27 47  1  0
 28 48  1  0
 28 49  1  0
 29 50  1  0
M  END
$$$$
