@<TRIPOS>MOLECULE
*****
 50 54 0 0 0
SMALL
GASTEIGER

@<TRIPOS>ATOM
      1 C          -7.5258    0.8097    0.4893 C.3     1  UNL1        0.0302
      2 N          -6.2802    0.1397    0.1053 N.ar    1  UNL1       -0.2739
      3 C          -5.0720    0.6934    0.2551 C.ar    1  UNL1        0.0329
      4 C          -4.1594   -0.2543   -0.2239 C.ar    1  UNL1        0.0200
      5 C          -2.7133   -0.0333   -0.2820 C.ar    1  UNL1       -0.0061
      6 C          -2.2471    0.9716   -1.1470 C.ar    1  UNL1       -0.0486
      7 C          -0.9068    1.1937   -1.2435 C.ar    1  UNL1       -0.0254
      8 C           0.0121    0.4376   -0.4961 C.ar    1  UNL1        0.0376
      9 C          -0.4607   -0.5365    0.3423 C.ar    1  UNL1       -0.0310
     10 C          -1.8372   -0.7876    0.4624 C.ar    1  UNL1        0.0270
     11 C          -2.2516   -1.8504    1.4124 C.3     1  UNL1        0.2650
     12 F          -3.1038   -1.4091    2.3931 F       1  UNL1       -0.2039
     13 F          -2.8640   -2.9189    0.7583 F       1  UNL1       -0.2039
     14 N           1.3900    0.6787   -0.6184 N.pl3   1  UNL1       -0.2998
     15 C           2.3589   -0.3744   -0.4244 C.ar    1  UNL1        0.0360
     16 C           1.9487   -1.6515   -0.7419 C.ar    1  UNL1       -0.0392
     17 C           2.8795   -2.6611   -0.5313 C.ar    1  UNL1       -0.0441
     18 C           4.1343   -2.3508   -0.0296 C.ar    1  UNL1        0.0408
     19 S           5.5640   -3.3824    0.3631 S.2     1  UNL1       -0.0267
     20 C           6.5917   -1.9581    0.9268 C.ar    1  UNL1        0.2913
     21 O           7.7684   -2.0743    1.3452 O.2     1  UNL1       -0.2594
     22 N           5.7708   -0.9095    0.7605 N.ar    1  UNL1       -0.3049
     23 C           6.3543    0.4394    1.1527 C.3     1  UNL1        0.0158
     24 C           4.5682   -1.0887    0.2941 C.ar    1  UNL1        0.0607
     25 C           3.6006   -0.0742    0.0706 C.ar    1  UNL1       -0.0156
     26 C           1.8516    1.9962   -0.9704 C.3     1  UNL1        0.0176
     27 C           0.7406    2.9288   -1.3190 C.3     1  UNL1       -0.0328
     28 C          -0.3174    2.2358   -2.1119 C.3     1  UNL1       -0.0245
     29 C          -4.8717   -1.3431   -0.6439 C.ar    1  UNL1        0.0571
     30 N          -6.1795   -1.0622   -0.4237 N.ar    1  UNL1       -0.1793
     31 H          -7.3187    1.3451    1.4325 H       1  UNL1        0.0473
     32 H          -7.8558    1.5347   -0.2764 H       1  UNL1        0.0473
     33 H          -8.3536    0.0767    0.6136 H       1  UNL1        0.0473
     34 H          -4.8309    1.6828    0.6661 H       1  UNL1        0.0832
     35 H          -2.9949    1.5187   -1.6947 H       1  UNL1        0.0627
     36 H           0.2603   -1.1218    0.9356 H       1  UNL1        0.0641
     37 H          -1.3410   -2.2564    1.9296 H       1  UNL1        0.1072
     38 H           1.0056   -1.9339   -1.1346 H       1  UNL1        0.0636
     39 H           2.6686   -3.6964   -0.7436 H       1  UNL1        0.0630
     40 H           5.5041    1.1099    1.3683 H       1  UNL1        0.0457
     41 H           6.9138    0.3298    2.0765 H       1  UNL1        0.0457
     42 H           6.9795    0.8133    0.3334 H       1  UNL1        0.0457
     43 H           3.7902    0.9624    0.2753 H       1  UNL1        0.0657
     44 H           2.4794    2.4270   -0.1558 H       1  UNL1        0.0468
     45 H           2.4660    1.8637   -1.9061 H       1  UNL1        0.0468
     46 H           1.1364    3.8052   -1.8745 H       1  UNL1        0.0284
     47 H           0.2604    3.3435   -0.4086 H       1  UNL1        0.0284
     48 H          -1.0790    2.9498   -2.4864 H       1  UNL1        0.0314
     49 H           0.0878    1.7228   -3.0118 H       1  UNL1        0.0314
     50 H          -4.5215   -2.2809   -1.0961 H       1  UNL1        0.0854
@<TRIPOS>BOND
     1     1     2    1
     2     2     3   ar
     3     3     4   ar
     4     4     5    1
     5     5     6   ar
     6     6     7   ar
     7     7     8   ar
     8     8     9   ar
     9     9    10   ar
    10    10    11    1
    11    11    12    1
    12    11    13    1
    13     8    14    1
    14    14    15    1
    15    15    16   ar
    16    16    17   ar
    17    17    18   ar
    18    18    19   ar
    19    19    20   ar
    20    20    21    2
    21    20    22   ar
    22    22    23    1
    23    22    24   ar
    24    24    25   ar
    25    14    26    1
    26    26    27    1
    27    27    28    1
    28     4    29   ar
    29    29    30   ar
    30    30     2   ar
    31    10     5   ar
    32    25    15   ar
    33    28     7    1
    34    24    18   ar
    35     1    31    1
    36     1    32    1
    37     1    33    1
    38     3    34    1
    39     6    35    1
    40     9    36    1
    41    11    37    1
    42    16    38    1
    43    17    39    1
    44    23    40    1
    45    23    41    1
    46    23    42    1
    47    25    43    1
    48    26    44    1
    49    26    45    1
    50    27    46    1
    51    27    47    1
    52    28    48    1
    53    28    49    1
    54    29    50    1
