@<TRIPOS>MOLECULE
*****
 61 66 0 0 0
SMALL
GASTEIGER

@<TRIPOS>ATOM
      1 O           3.9932    0.2101    3.4099 O.2     1  UNL1       -0.2918
      2 C           3.3611    0.2426    2.3124 C.2     1  UNL1        0.1705
      3 C           1.9166    0.5235    2.2105 C.3     1  UNL1        0.0506
      4 C           1.3135   -0.0428    0.9796 C.3     1  UNL1        0.1205
      5 C           0.9005    1.0513    0.0187 C.3     1  UNL1        0.0034
      6 C          -0.5385    1.5014    0.2837 C.3     1  UNL1        0.0198
      7 N          -1.3790    0.3661   -0.0758 N.am    1  UNL1       -0.2854
      8 C          -2.7216    0.5306   -0.4912 C.2     1  UNL1        0.3024
      9 O          -3.1812    1.7060   -0.5399 O.2     1  UNL1       -0.2526
     10 N          -3.6005   -0.5160   -0.8594 N.am    1  UNL1       -0.2958
     11 C          -4.9852   -0.2500   -1.2784 C.3     1  UNL1        0.0320
     12 C          -5.6032   -1.0536   -2.3555 C.3     1  UNL1       -0.0254
     13 C          -5.9725   -1.3055   -0.9447 C.3     1  UNL1        0.0043
     14 C          -7.2580   -0.7952   -0.3862 C.ar    1  UNL1       -0.0425
     15 C          -7.8192    0.3757   -0.8489 C.ar    1  UNL1       -0.0582
     16 C          -9.0066    0.8646   -0.3459 C.ar    1  UNL1       -0.0615
     17 C          -9.6635    0.1766    0.6469 C.ar    1  UNL1       -0.0617
     18 C          -9.1011   -0.9982    1.1119 C.ar    1  UNL1       -0.0615
     19 C          -7.9033   -1.4853    0.5998 C.ar    1  UNL1       -0.0582
     20 C          -0.7396   -0.9293    0.0257 C.3     1  UNL1        0.0198
     21 C           0.0688   -0.8731    1.3306 C.3     1  UNL1        0.0034
     22 O           2.1399   -0.9268    0.2475 O.3     1  UNL1       -0.4845
     23 C           3.4858   -0.6228    0.0412 C.ar    1  UNL1        0.1318
     24 C           4.1174   -0.9130   -1.1458 C.ar    1  UNL1       -0.0186
     25 C           5.4602   -0.5614   -1.2286 C.ar    1  UNL1       -0.0505
     26 C           6.1325    0.0437   -0.1889 C.ar    1  UNL1       -0.0169
     27 C           7.5419    0.3995   -0.3105 C.ar    1  UNL1       -0.0150
     28 C           8.0637    0.7604   -1.5146 C.ar    1  UNL1       -0.0359
     29 C           9.4075    1.0888   -1.5747 C.ar    1  UNL1        0.0281
     30 N          10.1661    1.0517   -0.4832 N.ar    1  UNL1       -0.2632
     31 C           9.6490    0.6944    0.7084 C.ar    1  UNL1        0.0281
     32 C           8.3086    0.3558    0.8247 C.ar    1  UNL1       -0.0359
     33 C           5.4623    0.3175    0.9840 C.ar    1  UNL1       -0.0400
     34 C           4.1296   -0.0145    1.1087 C.ar    1  UNL1        0.0597
     35 H           1.8365    1.6522    2.1509 H       1  UNL1        0.0384
     36 H           1.3654    0.2281    3.1333 H       1  UNL1        0.0384
     37 H           0.9245    0.7137   -1.0383 H       1  UNL1        0.0319
     38 H           1.6159    1.8908    0.1053 H       1  UNL1        0.0319
     39 H          -0.7216    2.3398   -0.4125 H       1  UNL1        0.0466
     40 H          -0.6619    1.8008    1.3265 H       1  UNL1        0.0466
     41 H          -3.2473   -1.4861   -0.8291 H       1  UNL1        0.1505
     42 H          -5.2328    0.8245   -1.2610 H       1  UNL1        0.0505
     43 H          -6.3158   -0.5325   -3.0492 H       1  UNL1        0.0290
     44 H          -4.9368   -1.7779   -2.8567 H       1  UNL1        0.0290
     45 H          -5.6016   -2.2500   -0.5081 H       1  UNL1        0.0367
     46 H          -7.2998    0.9161   -1.6315 H       1  UNL1        0.0620
     47 H          -9.4358    1.7853   -0.7189 H       1  UNL1        0.0618
     48 H         -10.6026    0.5132    1.0822 H       1  UNL1        0.0618
     49 H          -9.5906   -1.5637    1.8909 H       1  UNL1        0.0618
     50 H          -7.4503   -2.4060    0.9551 H       1  UNL1        0.0620
     51 H          -1.4843   -1.7405    0.1234 H       1  UNL1        0.0466
     52 H          -0.0364   -1.1114   -0.8175 H       1  UNL1        0.0466
     53 H           0.3396   -1.9156    1.5699 H       1  UNL1        0.0319
     54 H          -0.5207   -0.3637    2.1069 H       1  UNL1        0.0319
     55 H           3.5948   -1.3839   -1.9550 H       1  UNL1        0.0654
     56 H           5.9742   -0.7812   -2.1531 H       1  UNL1        0.0625
     57 H           7.4224    0.7812   -2.3844 H       1  UNL1        0.0639
     58 H           9.8674    1.3815   -2.5077 H       1  UNL1        0.0830
     59 H          10.2504    0.6569    1.6145 H       1  UNL1        0.0830
     60 H           7.8626    0.0651    1.7636 H       1  UNL1        0.0639
     61 H           5.9394    0.7905    1.8367 H       1  UNL1        0.0632
@<TRIPOS>BOND
     1     1     2    2
     2     2     3    1
     3     3     4    1
     4     4     5    1
     5     5     6    1
     6     6     7    1
     7     7     8   am
     8     8     9    2
     9     8    10   am
    10    10    11    1
    11    11    12    1
    12    12    13    1
    13    13    14    1
    14    14    15   ar
    15    15    16   ar
    16    16    17   ar
    17    17    18   ar
    18    18    19   ar
    19     7    20    1
    20    20    21    1
    21     4    22    1
    22    22    23    1
    23    23    24   ar
    24    24    25   ar
    25    25    26   ar
    26    26    27    1
    27    27    28   ar
    28    28    29   ar
    29    29    30   ar
    30    30    31   ar
    31    31    32   ar
    32    26    33   ar
    33    33    34   ar
    34    34     2    1
    35    21     4    1
    36    34    23   ar
    37    13    11    1
    38    19    14   ar
    39    32    27   ar
    40     3    35    1
    41     3    36    1
    42     5    37    1
    43     5    38    1
    44     6    39    1
    45     6    40    1
    46    10    41    1
    47    11    42    1
    48    12    43    1
    49    12    44    1
    50    13    45    1
    51    15    46    1
    52    16    47    1
    53    17    48    1
    54    18    49    1
    55    19    50    1
    56    20    51    1
    57    20    52    1
    58    21    53    1
    59    21    54    1
    60    24    55    1
    61    25    56    1
    62    28    57    1
    63    29    58    1
    64    31    59    1
    65    32    60    1
    66    33    61    1
