
     RDKit          3D

 61 66  0  0  0  0  0  0  0  0999 V2000
    3.9932    0.2101    3.4099 O   0  0  0  0  0  0  0  0  0  0  0  0
    3.3611    0.2426    2.3124 C   0  0  0  0  0  0  0  0  0  0  0  0
    1.9166    0.5235    2.2105 C   0  0  0  0  0  0  0  0  0  0  0  0
    1.3135   -0.0428    0.9796 C   0  0  0  0  0  0  0  0  0  0  0  0
    0.9005    1.0513    0.0187 C   0  0  0  0  0  0  0  0  0  0  0  0
   -0.5385    1.5014    0.2837 C   0  0  0  0  0  0  0  0  0  0  0  0
   -1.3790    0.3661   -0.0758 N   0  0  0  0  0  0  0  0  0  0  0  0
   -2.7216    0.5306   -0.4912 C   0  0  0  0  0  0  0  0  0  0  0  0
   -3.1812    1.7060   -0.5399 O   0  0  0  0  0  0  0  0  0  0  0  0
   -3.6005   -0.5160   -0.8594 N   0  0  0  0  0  0  0  0  0  0  0  0
   -4.9852   -0.2500   -1.2784 C   0  0  1  0  0  0  0  0  0  0  0  0
   -5.6032   -1.0536   -2.3555 C   0  0  0  0  0  0  0  0  0  0  0  0
   -5.9725   -1.3055   -0.9447 C   0  0  2  0  0  0  0  0  0  0  0  0
   -7.2580   -0.7952   -0.3862 C   0  0  0  0  0  0  0  0  0  0  0  0
   -7.8192    0.3757   -0.8489 C   0  0  0  0  0  0  0  0  0  0  0  0
   -9.0066    0.8646   -0.3459 C   0  0  0  0  0  0  0  0  0  0  0  0
   -9.6635    0.1766    0.6469 C   0  0  0  0  0  0  0  0  0  0  0  0
   -9.1011   -0.9982    1.1119 C   0  0  0  0  0  0  0  0  0  0  0  0
   -7.9033   -1.4853    0.5998 C   0  0  0  0  0  0  0  0  0  0  0  0
   -0.7396   -0.9293    0.0257 C   0  0  0  0  0  0  0  0  0  0  0  0
    0.0688   -0.8731    1.3306 C   0  0  0  0  0  0  0  0  0  0  0  0
    2.1399   -0.9268    0.2475 O   0  0  0  0  0  0  0  0  0  0  0  0
    3.4858   -0.6228    0.0412 C   0  0  0  0  0  0  0  0  0  0  0  0
    4.1174   -0.9130   -1.1458 C   0  0  0  0  0  0  0  0  0  0  0  0
    5.4602   -0.5614   -1.2286 C   0  0  0  0  0  0  0  0  0  0  0  0
    6.1325    0.0437   -0.1889 C   0  0  0  0  0  0  0  0  0  0  0  0
    7.5419    0.3995   -0.3105 C   0  0  0  0  0  0  0  0  0  0  0  0
    8.0637    0.7604   -1.5146 C   0  0  0  0  0  0  0  0  0  0  0  0
    9.4075    1.0888   -1.5747 C   0  0  0  0  0  0  0  0  0  0  0  0
   10.1661    1.0517   -0.4832 N   0  0  0  0  0  0  0  0  0  0  0  0
    9.6490    0.6944    0.7084 C   0  0  0  0  0  0  0  0  0  0  0  0
    8.3086    0.3558    0.8247 C   0  0  0  0  0  0  0  0  0  0  0  0
    5.4623    0.3175    0.9840 C   0  0  0  0  0  0  0  0  0  0  0  0
    4.1296   -0.0145    1.1087 C   0  0  0  0  0  0  0  0  0  0  0  0
    1.8365    1.6522    2.1509 H   0  0  0  0  0  0  0  0  0  0  0  0
    1.3654    0.2281    3.1333 H   0  0  0  0  0  0  0  0  0  0  0  0
    0.9245    0.7137   -1.0383 H   0  0  0  0  0  0  0  0  0  0  0  0
    1.6159    1.8908    0.1053 H   0  0  0  0  0  0  0  0  0  0  0  0
   -0.7216    2.3398   -0.4125 H   0  0  0  0  0  0  0  0  0  0  0  0
   -0.6619    1.8008    1.3265 H   0  0  0  0  0  0  0  0  0  0  0  0
   -3.2473   -1.4861   -0.8291 H   0  0  0  0  0  0  0  0  0  0  0  0
   -5.2328    0.8245   -1.2610 H   0  0  0  0  0  0  0  0  0  0  0  0
   -6.3158   -0.5325   -3.0492 H   0  0  0  0  0  0  0  0  0  0  0  0
   -4.9368   -1.7779   -2.8567 H   0  0  0  0  0  0  0  0  0  0  0  0
   -5.6016   -2.2500   -0.5081 H   0  0  0  0  0  0  0  0  0  0  0  0
   -7.2998    0.9161   -1.6315 H   0  0  0  0  0  0  0  0  0  0  0  0
   -9.4358    1.7853   -0.7189 H   0  0  0  0  0  0  0  0  0  0  0  0
  -10.6026    0.5132    1.0822 H   0  0  0  0  0  0  0  0  0  0  0  0
   -9.5906   -1.5637    1.8909 H   0  0  0  0  0  0  0  0  0  0  0  0
   -7.4503   -2.4060    0.9551 H   0  0  0  0  0  0  0  0  0  0  0  0
   -1.4843   -1.7405    0.1234 H   0  0  0  0  0  0  0  0  0  0  0  0
   -0.0364   -1.1114   -0.8175 H   0  0  0  0  0  0  0  0  0  0  0  0
    0.3396   -1.9156    1.5699 H   0  0  0  0  0  0  0  0  0  0  0  0
   -0.5207   -0.3637    2.1069 H   0  0  0  0  0  0  0  0  0  0  0  0
    3.5948   -1.3839   -1.9550 H   0  0  0  0  0  0  0  0  0  0  0  0
    5.9742   -0.7812   -2.1531 H   0  0  0  0  0  0  0  0  0  0  0  0
    7.4224    0.7812   -2.3844 H   0  0  0  0  0  0  0  0  0  0  0  0
    9.8674    1.3815   -2.5077 H   0  0  0  0  0  0  0  0  0  0  0  0
   10.2504    0.6569    1.6145 H   0  0  0  0  0  0  0  0  0  0  0  0
    7.8626    0.0651    1.7636 H   0  0  0  0  0  0  0  0  0  0  0  0
    5.9394    0.7905    1.8367 H   0  0  0  0  0  0  0  0  0  0  0  0
  1  2  2  0
  2  3  1  0
  3  4  1  0
  4  5  1  0
  5  6  1  0
  6  7  1  0
  7  8  1  0
  8  9  2  0
  8 10  1  0
 10 11  1  0
 11 12  1  0
 12 13  1  0
 13 14  1  0
 14 15  2  0
 15 16  1  0
 16 17  2  0
 17 18  1  0
 18 19  2  0
  7 20  1  0
 20 21  1  0
  4 22  1  0
 22 23  1  0
 23 24  2  0
 24 25  1  0
 25 26  2  0
 26 27  1  0
 27 28  2  0
 28 29  1  0
 29 30  2  0
 30 31  1  0
 31 32  2  0
 26 33  1  0
 33 34  2  0
 34  2  1  0
 21  4  1  0
 34 23  1  0
 13 11  1  0
 19 14  1  0
 32 27  1  0
  3 35  1  0
  3 36  1  0
  5 37  1  0
  5 38  1  0
  6 39  1  0
  6 40  1  0
 10 41  1  0
 11 42  1  6
 12 43  1  0
 12 44  1  0
 13 45  1  1
 15 46  1  0
 16 47  1  0
 17 48  1  0
 18 49  1  0
 19 50  1  0
 20 51  1  0
 20 52  1  0
 21 53  1  0
 21 54  1  0
 24 55  1  0
 25 56  1  0
 28 57  1  0
 29 58  1  0
 31 59  1  0
 32 60  1  0
 33 61  1  0
M  END
$$$$
