@<TRIPOS>MOLECULE
*****
 60 64 0 0 0
SMALL
GASTEIGER

@<TRIPOS>ATOM
      1 C          -2.3534    4.3122   -1.0153 C.3     1  UNL1       -0.0397
      2 C          -2.5942    3.1090   -0.1960 C.ar    1  UNL1       -0.0496
      3 C          -2.8493    3.2498    1.1457 C.ar    1  UNL1       -0.0567
      4 C          -3.0802    2.1298    1.9415 C.ar    1  UNL1       -0.0336
      5 C          -3.0436    0.8682    1.3319 C.ar    1  UNL1        0.0982
      6 N          -3.2787   -0.3124    2.0986 N.ar    1  UNL1       -0.1496
      7 N          -2.8253   -0.6472    3.2936 N.ar    1  UNL1       -0.1556
      8 C          -3.2893   -1.8608    3.6649 C.ar    1  UNL1        0.0697
      9 C          -4.0764   -2.2825    2.6180 C.ar    1  UNL1        0.0697
     10 N          -4.0426   -1.3189    1.6942 N.ar    1  UNL1       -0.1556
     11 C          -2.7895    0.7100   -0.0097 C.ar    1  UNL1        0.0642
     12 C          -2.7860   -0.6200   -0.5941 C.2     1  UNL1        0.2491
     13 O          -3.9786   -0.9526   -1.0364 O.2     1  UNL1       -0.2699
     14 N          -1.7429   -1.5172   -0.7305 N.am    1  UNL1       -0.2895
     15 C          -2.0186   -2.8031   -1.3727 C.3     1  UNL1        0.0414
     16 C          -0.7575   -3.0453   -2.2197 C.3     1  UNL1        0.0717
     17 C          -1.2365   -3.7285   -3.4865 C.3     1  UNL1       -0.0372
     18 O          -0.1716   -1.8495   -2.6046 O.3     1  UNL1       -0.3734
     19 C           0.4045   -1.1226   -1.5935 C.3     1  UNL1        0.0669
     20 C          -0.4099   -1.3438   -0.3152 C.3     1  UNL1        0.0538
     21 C          -0.0849   -0.3485    0.7318 C.3     1  UNL1       -0.0041
     22 C           1.4074   -0.4347    0.9469 C.ar    1  UNL1       -0.0097
     23 C           2.2741    0.5139    0.4413 C.ar    1  UNL1       -0.0451
     24 C           3.6406    0.4316    0.6378 C.ar    1  UNL1        0.0195
     25 C           4.5581    1.4318    0.1034 C.ar    1  UNL1        0.1597
     26 N           5.8747    1.2805    0.3389 N.ar    1  UNL1       -0.2357
     27 C           6.8129    2.1163   -0.0904 C.ar    1  UNL1        0.0314
     28 C           6.4340    3.2220   -0.8303 C.ar    1  UNL1       -0.0254
     29 C           5.0809    3.3617   -1.0623 C.ar    1  UNL1        0.0314
     30 N           4.1635    2.4864   -0.6058 N.ar    1  UNL1       -0.2357
     31 C           4.0963   -0.6466    1.3651 C.ar    1  UNL1       -0.0483
     32 C           3.2241   -1.6047    1.8762 C.ar    1  UNL1       -0.0255
     33 C           1.8627   -1.5125    1.6740 C.ar    1  UNL1        0.1267
     34 F           0.9946   -2.4410    2.1671 F       1  UNL1       -0.2052
     35 C          -2.5623    1.8604   -0.7768 C.ar    1  UNL1       -0.0446
     36 H          -3.3013    4.7816   -1.3620 H       1  UNL1        0.0278
     37 H          -1.7763    4.0916   -1.9408 H       1  UNL1        0.0278
     38 H          -1.7772    5.0885   -0.4740 H       1  UNL1        0.0278
     39 H          -2.8872    4.2020    1.6585 H       1  UNL1        0.0621
     40 H          -3.2827    2.2167    2.9982 H       1  UNL1        0.0640
     41 H          -3.0896   -2.4041    4.5960 H       1  UNL1        0.0864
     42 H          -4.5977   -3.2233    2.6024 H       1  UNL1        0.0864
     43 H          -2.9231   -2.7771   -1.9778 H       1  UNL1        0.0490
     44 H          -2.0841   -3.6186   -0.6454 H       1  UNL1        0.0490
     45 H          -0.0572   -3.7256   -1.7134 H       1  UNL1        0.0609
     46 H          -0.7255   -3.3317   -4.3889 H       1  UNL1        0.0255
     47 H          -1.0509   -4.8212   -3.4593 H       1  UNL1        0.0255
     48 H          -2.3288   -3.5274   -3.6605 H       1  UNL1        0.0255
     49 H           0.3041   -0.0442   -1.8357 H       1  UNL1        0.0578
     50 H           1.4696   -1.3250   -1.4333 H       1  UNL1        0.0578
     51 H           0.0335   -2.3331    0.0705 H       1  UNL1        0.0526
     52 H          -0.5393   -0.6637    1.6877 H       1  UNL1        0.0333
     53 H          -0.3311    0.7080    0.4690 H       1  UNL1        0.0333
     54 H           1.8774    1.3606   -0.1338 H       1  UNL1        0.0628
     55 H           7.8561    1.9563    0.1216 H       1  UNL1        0.0831
     56 H           7.1662    3.9328   -1.2025 H       1  UNL1        0.0648
     57 H           4.7642    4.2187   -1.6381 H       1  UNL1        0.0831
     58 H           5.1726   -0.7193    1.5246 H       1  UNL1        0.0625
     59 H           3.6150   -2.4388    2.4429 H       1  UNL1        0.0646
     60 H          -2.3637    1.7051   -1.8370 H       1  UNL1        0.0628
@<TRIPOS>BOND
     1     1     2    1
     2     2     3   ar
     3     3     4   ar
     4     4     5   ar
     5     5     6    1
     6     6     7   ar
     7     7     8   ar
     8     8     9   ar
     9     9    10   ar
    10     5    11   ar
    11    11    12    1
    12    12    13    2
    13    12    14   am
    14    14    15    1
    15    15    16    1
    16    16    17    1
    17    16    18    1
    18    18    19    1
    19    19    20    1
    20    20    21    1
    21    21    22    1
    22    22    23   ar
    23    23    24   ar
    24    24    25    1
    25    25    26   ar
    26    26    27   ar
    27    27    28   ar
    28    28    29   ar
    29    29    30   ar
    30    24    31   ar
    31    31    32   ar
    32    32    33   ar
    33    33    34    1
    34    11    35   ar
    35    35     2   ar
    36    10     6   ar
    37    20    14    1
    38    33    22   ar
    39    30    25   ar
    40     1    36    1
    41     1    37    1
    42     1    38    1
    43     3    39    1
    44     4    40    1
    45     8    41    1
    46     9    42    1
    47    15    43    1
    48    15    44    1
    49    16    45    1
    50    17    46    1
    51    17    47    1
    52    17    48    1
    53    19    49    1
    54    19    50    1
    55    20    51    1
    56    21    52    1
    57    21    53    1
    58    23    54    1
    59    27    55    1
    60    28    56    1
    61    29    57    1
    62    31    58    1
    63    32    59    1
    64    35    60    1
