
     RDKit          3D

 52 56  0  0  0  0  0  0  0  0999 V2000
   -3.5845    2.1810   -0.9358 O   0  0  0  0  0  0  0  0  0  0  0  0
   -2.7062    1.4421   -0.4243 C   0  0  0  0  0  0  0  0  0  0  0  0
   -2.9999    0.7758    0.8380 C   0  0  0  0  0  0  0  0  0  0  0  0
   -2.7200    1.3849    2.0356 C   0  0  0  0  0  0  0  0  0  0  0  0
   -2.9878    0.7876    3.2500 C   0  0  0  0  0  0  0  0  0  0  0  0
   -3.5594   -0.4715    3.2204 C   0  0  0  0  0  0  0  0  0  0  0  0
   -3.8417   -1.0858    2.0163 C   0  0  0  0  0  0  0  0  0  0  0  0
   -3.5725   -0.4853    0.8040 C   0  0  0  0  0  0  0  0  0  0  0  0
   -3.8545   -1.0989   -0.4392 N   0  0  0  0  0  0  0  0  0  0  0  0
   -3.2545   -2.1839   -0.8908 N   0  0  0  0  0  0  0  0  0  0  0  0
   -3.7373   -2.5191   -2.0924 C   0  0  0  0  0  0  0  0  0  0  0  0
   -4.6954   -1.5842   -2.4044 C   0  0  0  0  0  0  0  0  0  0  0  0
   -4.7305   -0.7306   -1.3546 N   0  0  0  0  0  0  0  0  0  0  0  0
   -1.4686    1.2893   -1.0996 N   0  0  0  0  0  0  0  0  0  0  0  0
   -1.2693    1.9885   -2.3502 C   0  0  0  0  0  0  0  0  0  0  0  0
    0.1639    2.1477   -2.7523 C   0  0  0  0  0  0  0  0  0  0  0  0
    0.9945    1.1141   -2.4142 O   0  0  0  0  0  0  0  0  0  0  0  0
    0.4071    0.0288   -1.8172 C   0  0  0  0  0  0  0  0  0  0  0  0
   -0.4008    0.4631   -0.6001 C   0  0  1  0  0  0  0  0  0  0  0  0
    0.5134    1.2070    0.3208 C   0  0  0  0  0  0  0  0  0  0  0  0
    1.5934    0.3534    0.8302 C   0  0  0  0  0  0  0  0  0  0  0  0
    1.3506   -0.3511    2.0013 C   0  0  0  0  0  0  0  0  0  0  0  0
    2.2976   -1.1777    2.5653 C   0  0  0  0  0  0  0  0  0  0  0  0
    3.5188   -1.2989    1.9362 C   0  0  0  0  0  0  0  0  0  0  0  0
    3.8207   -0.6262    0.7721 C   0  0  0  0  0  0  0  0  0  0  0  0
    5.0801   -0.7494    0.1206 N   0  0  0  0  0  0  0  0  0  0  0  0
    5.2760   -1.3181   -1.0479 N   0  0  0  0  0  0  0  0  0  0  0  0
    6.5884   -1.2675   -1.3794 C   0  0  0  0  0  0  0  0  0  0  0  0
    7.2159   -0.6197   -0.3271 C   0  0  0  0  0  0  0  0  0  0  0  0
    6.2311   -0.3278    0.5621 N   0  0  0  0  0  0  0  0  0  0  0  0
    2.8297    0.1937    0.2467 C   0  0  0  0  0  0  0  0  0  0  0  0
   -2.2687    2.3788    2.0695 H   0  0  0  0  0  0  0  0  0  0  0  0
   -2.7737    1.2531    4.2026 H   0  0  0  0  0  0  0  0  0  0  0  0
   -3.7763   -0.9550    4.1683 H   0  0  0  0  0  0  0  0  0  0  0  0
   -4.2879   -2.0685    1.9911 H   0  0  0  0  0  0  0  0  0  0  0  0
   -3.4599   -3.3437   -2.7196 H   0  0  0  0  0  0  0  0  0  0  0  0
   -5.3149   -1.5096   -3.2926 H   0  0  0  0  0  0  0  0  0  0  0  0
   -1.7423    2.9933   -2.3442 H   0  0  0  0  0  0  0  0  0  0  0  0
   -1.7839    1.4138   -3.1776 H   0  0  0  0  0  0  0  0  0  0  0  0
    0.1513    2.3190   -3.8714 H   0  0  0  0  0  0  0  0  0  0  0  0
    0.5093    3.1394   -2.3371 H   0  0  0  0  0  0  0  0  0  0  0  0
   -0.2450   -0.5548   -2.5046 H   0  0  0  0  0  0  0  0  0  0  0  0
    1.2170   -0.6239   -1.4284 H   0  0  0  0  0  0  0  0  0  0  0  0
   -0.8600   -0.4286   -0.1263 H   0  0  0  0  0  0  0  0  0  0  0  0
    1.0211    1.9970   -0.3068 H   0  0  0  0  0  0  0  0  0  0  0  0
   -0.0172    1.7644    1.1106 H   0  0  0  0  0  0  0  0  0  0  0  0
    0.3952   -0.2565    2.4938 H   0  0  0  0  0  0  0  0  0  0  0  0
    2.0580   -1.7109    3.4883 H   0  0  0  0  0  0  0  0  0  0  0  0
    4.2855   -1.9467    2.3619 H   0  0  0  0  0  0  0  0  0  0  0  0
    7.0769   -1.6430   -2.2686 H   0  0  0  0  0  0  0  0  0  0  0  0
    8.2730   -0.4034   -0.2533 H   0  0  0  0  0  0  0  0  0  0  0  0
    3.0444    0.7245   -0.6525 H   0  0  0  0  0  0  0  0  0  0  0  0
  1  2  2  0
  2  3  1  0
  3  4  2  0
  4  5  1  0
  5  6  2  0
  6  7  1  0
  7  8  2  0
  8  9  1  0
  9 10  1  0
 10 11  2  0
 11 12  1  0
 12 13  2  0
  2 14  1  0
 14 15  1  0
 15 16  1  0
 16 17  1  0
 17 18  1  0
 18 19  1  0
 19 20  1  0
 20 21  1  0
 21 22  2  0
 22 23  1  0
 23 24  2  0
 24 25  1  0
 25 26  1  0
 26 27  1  0
 27 28  2  0
 28 29  1  0
 29 30  2  0
 25 31  2  0
  8  3  1  0
 13  9  1  0
 19 14  1  0
 31 21  1  0
 30 26  1  0
  4 32  1  0
  5 33  1  0
  6 34  1  0
  7 35  1  0
 11 36  1  0
 12 37  1  0
 15 38  1  0
 15 39  1  0
 16 40  1  0
 16 41  1  0
 18 42  1  0
 18 43  1  0
 19 44  1  1
 20 45  1  0
 20 46  1  0
 22 47  1  0
 23 48  1  0
 24 49  1  0
 28 50  1  0
 29 51  1  0
 31 52  1  0
M  END
$$$$
