@<TRIPOS>MOLECULE
*****
 52 56 0 0 0
SMALL
GASTEIGER

@<TRIPOS>ATOM
      1 O          -3.5845    2.1810   -0.9358 O.2     1  UNL1       -0.2699
      2 C          -2.7062    1.4421   -0.4243 C.2     1  UNL1        0.2491
      3 C          -2.9999    0.7758    0.8380 C.ar    1  UNL1        0.0640
      4 C          -2.7200    1.3849    2.0356 C.ar    1  UNL1       -0.0475
      5 C          -2.9878    0.7876    3.2500 C.ar    1  UNL1       -0.0609
      6 C          -3.5594   -0.4715    3.2204 C.ar    1  UNL1       -0.0597
      7 C          -3.8417   -1.0858    2.0163 C.ar    1  UNL1       -0.0338
      8 C          -3.5725   -0.4853    0.8040 C.ar    1  UNL1        0.0982
      9 N          -3.8545   -1.0989   -0.4392 N.ar    1  UNL1       -0.1496
     10 N          -3.2545   -2.1839   -0.8908 N.ar    1  UNL1       -0.1556
     11 C          -3.7373   -2.5191   -2.0924 C.ar    1  UNL1        0.0697
     12 C          -4.6954   -1.5842   -2.4044 C.ar    1  UNL1        0.0697
     13 N          -4.7305   -0.7306   -1.3546 N.ar    1  UNL1       -0.1556
     14 N          -1.4686    1.2893   -1.0996 N.am    1  UNL1       -0.2897
     15 C          -1.2693    1.9885   -2.3502 C.3     1  UNL1        0.0388
     16 C           0.1639    2.1477   -2.7523 C.3     1  UNL1        0.0635
     17 O           0.9945    1.1141   -2.4142 O.3     1  UNL1       -0.3764
     18 C           0.4071    0.0288   -1.8172 C.3     1  UNL1        0.0666
     19 C          -0.4008    0.4631   -0.6001 C.3     1  UNL1        0.0537
     20 C           0.5134    1.2070    0.3208 C.3     1  UNL1       -0.0068
     21 C           1.5934    0.3534    0.8302 C.ar    1  UNL1       -0.0435
     22 C           1.3506   -0.3511    2.0013 C.ar    1  UNL1       -0.0584
     23 C           2.2976   -1.1777    2.5653 C.ar    1  UNL1       -0.0594
     24 C           3.5188   -1.2989    1.9362 C.ar    1  UNL1       -0.0345
     25 C           3.8207   -0.6262    0.7721 C.ar    1  UNL1        0.0864
     26 N           5.0801   -0.7494    0.1206 N.ar    1  UNL1       -0.1503
     27 N           5.2760   -1.3181   -1.0479 N.ar    1  UNL1       -0.1556
     28 C           6.5884   -1.2675   -1.3794 C.ar    1  UNL1        0.0697
     29 C           7.2159   -0.6197   -0.3271 C.ar    1  UNL1        0.0697
     30 N           6.2311   -0.3278    0.5621 N.ar    1  UNL1       -0.1556
     31 C           2.8297    0.1937    0.2467 C.ar    1  UNL1       -0.0313
     32 H          -2.2687    2.3788    2.0695 H       1  UNL1        0.0626
     33 H          -2.7737    1.2531    4.2026 H       1  UNL1        0.0618
     34 H          -3.7763   -0.9550    4.1683 H       1  UNL1        0.0618
     35 H          -4.2879   -2.0685    1.9911 H       1  UNL1        0.0639
     36 H          -3.4599   -3.3437   -2.7196 H       1  UNL1        0.0864
     37 H          -5.3149   -1.5096   -3.2926 H       1  UNL1        0.0864
     38 H          -1.7423    2.9933   -2.3442 H       1  UNL1        0.0487
     39 H          -1.7839    1.4138   -3.1776 H       1  UNL1        0.0487
     40 H           0.1513    2.3190   -3.8714 H       1  UNL1        0.0575
     41 H           0.5093    3.1394   -2.3371 H       1  UNL1        0.0575
     42 H          -0.2450   -0.5548   -2.5046 H       1  UNL1        0.0578
     43 H           1.2170   -0.6239   -1.4284 H       1  UNL1        0.0578
     44 H          -0.8600   -0.4286   -0.1263 H       1  UNL1        0.0526
     45 H           1.0211    1.9970   -0.3068 H       1  UNL1        0.0332
     46 H          -0.0172    1.7644    1.1106 H       1  UNL1        0.0332
     47 H           0.3952   -0.2565    2.4938 H       1  UNL1        0.0620
     48 H           2.0580   -1.7109    3.4883 H       1  UNL1        0.0618
     49 H           4.2855   -1.9467    2.3619 H       1  UNL1        0.0639
     50 H           7.0769   -1.6430   -2.2686 H       1  UNL1        0.0864
     51 H           8.2730   -0.4034   -0.2533 H       1  UNL1        0.0864
     52 H           3.0444    0.7245   -0.6525 H       1  UNL1        0.0642
@<TRIPOS>BOND
     1     1     2    2
     2     2     3    1
     3     3     4   ar
     4     4     5   ar
     5     5     6   ar
     6     6     7   ar
     7     7     8   ar
     8     8     9    1
     9     9    10   ar
    10    10    11   ar
    11    11    12   ar
    12    12    13   ar
    13     2    14   am
    14    14    15    1
    15    15    16    1
    16    16    17    1
    17    17    18    1
    18    18    19    1
    19    19    20    1
    20    20    21    1
    21    21    22   ar
    22    22    23   ar
    23    23    24   ar
    24    24    25   ar
    25    25    26    1
    26    26    27   ar
    27    27    28   ar
    28    28    29   ar
    29    29    30   ar
    30    25    31   ar
    31     8     3   ar
    32    13     9   ar
    33    19    14    1
    34    31    21   ar
    35    30    26   ar
    36     4    32    1
    37     5    33    1
    38     6    34    1
    39     7    35    1
    40    11    36    1
    41    12    37    1
    42    15    38    1
    43    15    39    1
    44    16    40    1
    45    16    41    1
    46    18    42    1
    47    18    43    1
    48    19    44    1
    49    20    45    1
    50    20    46    1
    51    22    47    1
    52    23    48    1
    53    24    49    1
    54    28    50    1
    55    29    51    1
    56    31    52    1
