@<TRIPOS>MOLECULE
*****
 43 46 0 0 0
SMALL
GASTEIGER

@<TRIPOS>ATOM
      1 N          -6.5371    4.7593   -4.2654 N.1     1  UNL1       -0.1908
      2 C          -5.9878    3.8893   -3.6975 C.1     1  UNL1        0.1007
      3 C          -5.3065    2.8451   -2.9903 C.ar    1  UNL1        0.0699
      4 C          -5.9578    1.7373   -2.4922 C.ar    1  UNL1       -0.0407
      5 C          -5.2558    0.7470   -1.8018 C.ar    1  UNL1       -0.0300
      6 C          -3.8940    0.8440   -1.5968 C.ar    1  UNL1        0.1257
      7 C          -3.1353   -0.1833   -0.8650 C.2     1  UNL1        0.2666
      8 O          -3.7720   -1.1535   -0.4352 O.2     1  UNL1       -0.2682
      9 N          -1.7612   -0.0634   -0.6667 N.am    1  UNL1       -0.2802
     10 C          -0.9148   -0.9501    0.0085 C.ar    1  UNL1        0.0341
     11 C          -1.3631   -2.1047    0.5925 C.ar    1  UNL1       -0.0391
     12 C          -0.4622   -2.9275    1.2558 C.ar    1  UNL1       -0.0413
     13 C           0.8946   -2.5974    1.3380 C.ar    1  UNL1        0.0466
     14 CL          1.8912   -3.7374    2.1925 Cl      1  UNL1       -0.0832
     15 C           1.3545   -1.4445    0.7578 C.ar    1  UNL1        0.0030
     16 C           2.8079   -1.0627    0.8568 C.3     1  UNL1        0.1271
     17 C           3.5667   -2.1092    0.0262 C.3     1  UNL1        0.1199
     18 F           3.1336   -2.0834   -1.2846 F       1  UNL1       -0.2462
     19 N           2.9967    0.1724    0.1388 N.2     1  UNL1       -0.2225
     20 C           3.4010    1.2633    0.6185 C.2     1  UNL1        0.2763
     21 N           3.5577    2.4480   -0.1821 N.pl3   1  UNL1       -0.3134
     22 O           3.7119    1.3442    1.9635 O.2     1  UNL1       -0.4622
     23 C           3.7371    0.2615    2.8118 C.3     1  UNL1        0.1090
     24 C           4.6924   -0.9022    2.6138 C.3     1  UNL1       -0.0065
     25 C           3.2473   -1.0182    2.2725 C.3     1  UNL1        0.0314
     26 C           0.4548   -0.6591    0.1159 C.ar    1  UNL1       -0.0335
     27 N          -3.2799    1.9342   -2.0929 N.ar    1  UNL1       -0.2491
     28 C          -3.9412    2.8998   -2.7612 C.ar    1  UNL1        0.0458
     29 H          -7.0219    1.6676   -2.6563 H       1  UNL1        0.0631
     30 H          -5.7695   -0.1284   -1.4082 H       1  UNL1        0.0641
     31 H          -1.3147    0.8103   -1.0810 H       1  UNL1        0.1552
     32 H          -2.4176   -2.4282    0.5671 H       1  UNL1        0.0636
     33 H          -0.8399   -3.8287    1.7067 H       1  UNL1        0.0633
     34 H           3.4635   -3.1265    0.3984 H       1  UNL1        0.0643
     35 H           4.6440   -1.8275   -0.0168 H       1  UNL1        0.0643
     36 H           3.4085    3.3755    0.2565 H       1  UNL1        0.1466
     37 H           3.8163    2.4254   -1.1887 H       1  UNL1        0.1466
     38 H           3.5594    0.5230    3.8858 H       1  UNL1        0.0737
     39 H           5.0926   -1.4103    3.4952 H       1  UNL1        0.0306
     40 H           5.4563   -0.6646    1.8422 H       1  UNL1        0.0306
     41 H           2.6331   -1.5831    3.0238 H       1  UNL1        0.0365
     42 H           0.8295    0.2652   -0.3492 H       1  UNL1        0.0640
     43 H          -3.4187    3.7814   -3.1574 H       1  UNL1        0.0843
@<TRIPOS>BOND
     1     1     2    3
     2     2     3    1
     3     3     4   ar
     4     4     5   ar
     5     5     6   ar
     6     6     7    1
     7     7     8    2
     8     7     9   am
     9     9    10    1
    10    10    11   ar
    11    11    12   ar
    12    12    13   ar
    13    13    14    1
    14    13    15   ar
    15    15    16    1
    16    16    17    1
    17    17    18    1
    18    16    19    1
    19    19    20    2
    20    20    21    1
    21    20    22    1
    22    22    23    1
    23    23    24    1
    24    24    25    1
    25    15    26   ar
    26     6    27   ar
    27    27    28   ar
    28    28     3   ar
    29    26    10   ar
    30    25    16    1
    31    25    23    1
    32     4    29    1
    33     5    30    1
    34     9    31    1
    35    11    32    1
    36    12    33    1
    37    17    34    1
    38    17    35    1
    39    21    36    1
    40    21    37    1
    41    23    38    1
    42    24    39    1
    43    24    40    1
    44    25    41    1
    45    26    42    1
    46    28    43    1
