
     RDKit          3D

 54 53  0  0  0  0  0  0  0  0999 V2000
    6.3781    1.2762   -1.9652 C   0  0  0  0  0  0  0  0  0  0  0  0
    4.8677    1.3700   -2.1202 C   0  0  0  0  0  0  0  0  0  0  0  0
    4.2652    0.6072   -0.9206 C   0  0  0  0  0  0  0  0  0  0  0  0
    2.7993    0.7027   -1.0784 C   0  0  0  0  0  0  0  0  0  0  0  0
    1.9773    0.0214    0.0180 C   0  0  2  0  0  0  0  0  0  0  0  0
    2.3453   -1.4185   -0.0080 C   0  0  0  0  0  0  0  0  0  0  0  0
    1.7098   -2.2804    0.9300 N   0  0  0  0  0  0  0  0  0  0  0  0
    0.5750   -2.9738    0.7007 O   0  0  0  0  0  0  0  0  0  0  0  0
    2.3125   -2.4567    2.2048 C   0  0  0  0  0  0  0  0  0  0  0  0
    1.8025   -3.2015    3.0737 O   0  0  0  0  0  0  0  0  0  0  0  0
    0.5679    0.3287   -0.3250 C   0  0  0  0  0  0  0  0  0  0  0  0
    0.2545    0.9559   -1.4030 O   0  0  0  0  0  0  0  0  0  0  0  0
   -0.5061   -0.0504    0.5210 N   0  0  0  0  0  0  0  0  0  0  0  0
   -1.8971    0.3048    0.1041 C   0  0  2  0  0  0  0  0  0  0  0  0
   -2.4969    1.1505    1.1438 C   0  0  0  0  0  0  0  0  0  0  0  0
   -1.9300    1.1117    2.2888 O   0  0  0  0  0  0  0  0  0  0  0  0
   -3.6096    1.9988    1.0378 N   0  0  0  0  0  0  0  0  0  0  0  0
   -4.1360    2.7257    2.1929 C   0  0  0  0  0  0  0  0  0  0  0  0
   -4.2480    2.2368   -0.2305 C   0  0  0  0  0  0  0  0  0  0  0  0
   -2.6397   -1.0101   -0.0687 C   0  0  0  0  0  0  0  0  0  0  0  0
   -2.6317   -1.7536    1.2433 C   0  0  0  0  0  0  0  0  0  0  0  0
   -1.8817   -1.8874   -1.0855 C   0  0  0  0  0  0  0  0  0  0  0  0
   -4.0652   -0.8706   -0.5238 C   0  0  0  0  0  0  0  0  0  0  0  0
    6.6762    2.1290   -1.3153 H   0  0  0  0  0  0  0  0  0  0  0  0
    6.8921    1.3342   -2.9520 H   0  0  0  0  0  0  0  0  0  0  0  0
    6.6019    0.3235   -1.4812 H   0  0  0  0  0  0  0  0  0  0  0  0
    4.5273    2.4255   -2.1011 H   0  0  0  0  0  0  0  0  0  0  0  0
    4.5199    0.9352   -3.0754 H   0  0  0  0  0  0  0  0  0  0  0  0
    4.6762   -0.4006   -0.8735 H   0  0  0  0  0  0  0  0  0  0  0  0
    4.6197    1.1883   -0.0317 H   0  0  0  0  0  0  0  0  0  0  0  0
    2.5188    1.7966   -1.0784 H   0  0  0  0  0  0  0  0  0  0  0  0
    2.4190    0.3089   -2.0297 H   0  0  0  0  0  0  0  0  0  0  0  0
    2.2411    0.5229    0.9812 H   0  0  0  0  0  0  0  0  0  0  0  0
    3.4499   -1.5597    0.1505 H   0  0  0  0  0  0  0  0  0  0  0  0
    2.2058   -1.7743   -1.0748 H   0  0  0  0  0  0  0  0  0  0  0  0
    0.1487   -3.3066    1.5038 H   0  0  0  0  0  0  0  0  0  0  0  0
    3.2293   -1.9543    2.4651 H   0  0  0  0  0  0  0  0  0  0  0  0
   -0.3578   -0.5518    1.4139 H   0  0  0  0  0  0  0  0  0  0  0  0
   -1.8720    0.8136   -0.8614 H   0  0  0  0  0  0  0  0  0  0  0  0
   -3.7210    3.7645    2.1998 H   0  0  0  0  0  0  0  0  0  0  0  0
   -5.2419    2.7192    2.1134 H   0  0  0  0  0  0  0  0  0  0  0  0
   -3.8030    2.2299    3.1134 H   0  0  0  0  0  0  0  0  0  0  0  0
   -3.5704    1.9375   -1.0460 H   0  0  0  0  0  0  0  0  0  0  0  0
   -4.4007    3.3513   -0.3232 H   0  0  0  0  0  0  0  0  0  0  0  0
   -5.2287    1.7505   -0.2309 H   0  0  0  0  0  0  0  0  0  0  0  0
   -2.1496   -2.7461    1.1108 H   0  0  0  0  0  0  0  0  0  0  0  0
   -2.1690   -1.1755    2.0650 H   0  0  0  0  0  0  0  0  0  0  0  0
   -3.6911   -1.9803    1.5233 H   0  0  0  0  0  0  0  0  0  0  0  0
   -1.9065   -2.9365   -0.7606 H   0  0  0  0  0  0  0  0  0  0  0  0
   -0.8453   -1.5183   -1.1257 H   0  0  0  0  0  0  0  0  0  0  0  0
   -2.3077   -1.7660   -2.0974 H   0  0  0  0  0  0  0  0  0  0  0  0
   -4.4124   -1.9280   -0.7667 H   0  0  0  0  0  0  0  0  0  0  0  0
   -4.6739   -0.5048    0.3103 H   0  0  0  0  0  0  0  0  0  0  0  0
   -4.1879   -0.3154   -1.4554 H   0  0  0  0  0  0  0  0  0  0  0  0
  1  2  1  0
  2  3  1  0
  3  4  1  0
  4  5  1  0
  5  6  1  0
  6  7  1  0
  7  8  1  0
  7  9  1  0
  9 10  2  0
  5 11  1  0
 11 12  2  0
 11 13  1  0
 13 14  1  0
 14 15  1  0
 15 16  2  0
 15 17  1  0
 17 18  1  0
 17 19  1  0
 14 20  1  0
 20 21  1  0
 20 22  1  0
 20 23  1  0
  1 24  1  0
  1 25  1  0
  1 26  1  0
  2 27  1  0
  2 28  1  0
  3 29  1  0
  3 30  1  0
  4 31  1  0
  4 32  1  0
  5 33  1  1
  6 34  1  0
  6 35  1  0
  8 36  1  0
  9 37  1  0
 13 38  1  0
 14 39  1  6
 18 40  1  0
 18 41  1  0
 18 42  1  0
 19 43  1  0
 19 44  1  0
 19 45  1  0
 21 46  1  0
 21 47  1  0
 21 48  1  0
 22 49  1  0
 22 50  1  0
 22 51  1  0
 23 52  1  0
 23 53  1  0
 23 54  1  0
M  END
$$$$
