@<TRIPOS>MOLECULE
*****
 54 53 0 0 0
SMALL
GASTEIGER

@<TRIPOS>ATOM
      1 C           6.3781    1.2762   -1.9652 C.3     1  UNL1       -0.0653
      2 C           4.8677    1.3700   -2.1202 C.3     1  UNL1       -0.0559
      3 C           4.2652    0.6072   -0.9206 C.3     1  UNL1       -0.0526
      4 C           2.7993    0.7027   -1.0784 C.3     1  UNL1       -0.0404
      5 C           1.9773    0.0214    0.0180 C.3     1  UNL1        0.0536
      6 C           2.3453   -1.4185   -0.0080 C.3     1  UNL1        0.0525
      7 N           1.7098   -2.2804    0.9300 N.am    1  UNL1       -0.1857
      8 O           0.5750   -2.9738    0.7007 O.3     1  UNL1       -0.2927
      9 C           2.3125   -2.4567    2.2048 C.2     1  UNL1        0.2250
     10 O           1.8025   -3.2015    3.0737 O.2     1  UNL1       -0.2772
     11 C           0.5679    0.3287   -0.3250 C.2     1  UNL1        0.2183
     12 O           0.2545    0.9559   -1.4030 O.2     1  UNL1       -0.2754
     13 N          -0.5061   -0.0504    0.5210 N.am    1  UNL1       -0.3032
     14 C          -1.8971    0.3048    0.1041 C.3     1  UNL1        0.1044
     15 C          -2.4969    1.1505    1.1438 C.2     1  UNL1        0.2359
     16 O          -1.9300    1.1117    2.2888 O.2     1  UNL1       -0.2736
     17 N          -3.6096    1.9988    1.0378 N.am    1  UNL1       -0.3061
     18 C          -4.1360    2.7257    2.1929 C.3     1  UNL1        0.0029
     19 C          -4.2480    2.2368   -0.2305 C.3     1  UNL1        0.0029
     20 C          -2.6397   -1.0101   -0.0687 C.3     1  UNL1       -0.0108
     21 C          -2.6317   -1.7536    1.2433 C.3     1  UNL1       -0.0579
     22 C          -1.8817   -1.8874   -1.0855 C.3     1  UNL1       -0.0579
     23 C          -4.0652   -0.8706   -0.5238 C.3     1  UNL1       -0.0579
     24 H           6.6762    2.1290   -1.3153 H       1  UNL1        0.0230
     25 H           6.8921    1.3342   -2.9520 H       1  UNL1        0.0230
     26 H           6.6019    0.3235   -1.4812 H       1  UNL1        0.0230
     27 H           4.5273    2.4255   -2.1011 H       1  UNL1        0.0263
     28 H           4.5199    0.9352   -3.0754 H       1  UNL1        0.0263
     29 H           4.6762   -0.4006   -0.8735 H       1  UNL1        0.0265
     30 H           4.6197    1.1883   -0.0317 H       1  UNL1        0.0265
     31 H           2.5188    1.7966   -1.0784 H       1  UNL1        0.0273
     32 H           2.4190    0.3089   -2.0297 H       1  UNL1        0.0273
     33 H           2.2411    0.5229    0.9812 H       1  UNL1        0.0410
     34 H           3.4499   -1.5597    0.1505 H       1  UNL1        0.0496
     35 H           2.2058   -1.7743   -1.0748 H       1  UNL1        0.0496
     36 H           0.1487   -3.3066    1.5038 H       1  UNL1        0.2416
     37 H           3.2293   -1.9543    2.4651 H       1  UNL1        0.1274
     38 H          -0.3578   -0.5518    1.4139 H       1  UNL1        0.1495
     39 H          -1.8720    0.8136   -0.8614 H       1  UNL1        0.0600
     40 H          -3.7210    3.7645    2.1998 H       1  UNL1        0.0428
     41 H          -5.2419    2.7192    2.1134 H       1  UNL1        0.0428
     42 H          -3.8030    2.2299    3.1134 H       1  UNL1        0.0428
     43 H          -3.5704    1.9375   -1.0460 H       1  UNL1        0.0428
     44 H          -4.4007    3.3513   -0.3232 H       1  UNL1        0.0428
     45 H          -5.2287    1.7505   -0.2309 H       1  UNL1        0.0428
     46 H          -2.1496   -2.7461    1.1108 H       1  UNL1        0.0236
     47 H          -2.1690   -1.1755    2.0650 H       1  UNL1        0.0236
     48 H          -3.6911   -1.9803    1.5233 H       1  UNL1        0.0236
     49 H          -1.9065   -2.9365   -0.7606 H       1  UNL1        0.0236
     50 H          -0.8453   -1.5183   -1.1257 H       1  UNL1        0.0236
     51 H          -2.3077   -1.7660   -2.0974 H       1  UNL1        0.0236
     52 H          -4.4124   -1.9280   -0.7667 H       1  UNL1        0.0236
     53 H          -4.6739   -0.5048    0.3103 H       1  UNL1        0.0236
     54 H          -4.1879   -0.3154   -1.4554 H       1  UNL1        0.0236
@<TRIPOS>BOND
     1     1     2    1
     2     2     3    1
     3     3     4    1
     4     4     5    1
     5     5     6    1
     6     6     7    1
     7     7     8    1
     8     7     9   am
     9     9    10    2
    10     5    11    1
    11    11    12    2
    12    11    13   am
    13    13    14    1
    14    14    15    1
    15    15    16    2
    16    15    17   am
    17    17    18    1
    18    17    19    1
    19    14    20    1
    20    20    21    1
    21    20    22    1
    22    20    23    1
    23     1    24    1
    24     1    25    1
    25     1    26    1
    26     2    27    1
    27     2    28    1
    28     3    29    1
    29     3    30    1
    30     4    31    1
    31     4    32    1
    32     5    33    1
    33     6    34    1
    34     6    35    1
    35     8    36    1
    36     9    37    1
    37    13    38    1
    38    14    39    1
    39    18    40    1
    40    18    41    1
    41    18    42    1
    42    19    43    1
    43    19    44    1
    44    19    45    1
    45    21    46    1
    46    21    47    1
    47    21    48    1
    48    22    49    1
    49    22    50    1
    50    22    51    1
    51    23    52    1
    52    23    53    1
    53    23    54    1
