@<TRIPOS>MOLECULE
*****
 25 26 0 0 0
SMALL
GASTEIGER

@<TRIPOS>ATOM
      1 N           4.9766    0.6862    0.4931 N.am    1  UNL1       -0.3240
      2 C           3.8445    0.7882   -0.3718 C.2     1  UNL1        0.2632
      3 O           3.8415    1.6241   -1.3106 O.2     1  UNL1       -0.2686
      4 C           2.6837   -0.0691   -0.1824 C.ar    1  UNL1        0.1666
      5 C           1.5652   -0.0402   -0.9909 C.ar    1  UNL1        0.0582
      6 N           0.7044   -0.9596   -0.5247 N.ar    1  UNL1       -0.2464
      7 C          -0.5903   -1.3956   -0.9372 C.3     1  UNL1        0.0736
      8 C          -1.6796   -0.6193   -0.2992 C.ar    1  UNL1        0.0442
      9 C          -1.9213    0.6626   -0.8028 C.ar    1  UNL1        0.1311
     10 F          -1.2413    1.2505   -1.8156 F       1  UNL1       -0.2050
     11 C          -2.9155    1.4771   -0.2910 C.ar    1  UNL1       -0.0259
     12 C          -3.7217    1.0398    0.7598 C.ar    1  UNL1       -0.0563
     13 C          -3.4851   -0.2226    1.2567 C.ar    1  UNL1       -0.0259
     14 C          -2.4849   -1.0591    0.7521 C.ar    1  UNL1        0.1311
     15 F          -2.2397   -2.2988    1.2256 F       1  UNL1       -0.2050
     16 N           1.2863   -1.5084    0.5139 N.ar    1  UNL1       -0.0647
     17 N           2.4800   -1.0075    0.7612 N.ar    1  UNL1       -0.1248
     18 H           5.0486   -0.1584    1.1363 H       1  UNL1        0.1453
     19 H           5.7155    1.4181    0.4973 H       1  UNL1        0.1453
     20 H           1.3695    0.5719   -1.8361 H       1  UNL1        0.0850
     21 H          -0.7568   -2.4805   -0.7448 H       1  UNL1        0.0561
     22 H          -0.7310   -1.2495   -2.0519 H       1  UNL1        0.0561
     23 H          -3.1431    2.4723   -0.6444 H       1  UNL1        0.0646
     24 H          -4.5053    1.6590    1.1752 H       1  UNL1        0.0619
     25 H          -4.1002   -0.5812    2.0701 H       1  UNL1        0.0646
@<TRIPOS>BOND
     1     1     2   am
     2     2     3    2
     3     2     4    1
     4     4     5   ar
     5     5     6   ar
     6     6     7    1
     7     7     8    1
     8     8     9   ar
     9     9    10    1
    10     9    11   ar
    11    11    12   ar
    12    12    13   ar
    13    13    14   ar
    14    14    15    1
    15     6    16   ar
    16    16    17   ar
    17    17     4   ar
    18    14     8   ar
    19     1    18    1
    20     1    19    1
    21     5    20    1
    22     7    21    1
    23     7    22    1
    24    11    23    1
    25    12    24    1
    26    13    25    1
