
     RDKit          3D

 35 37  0  0  0  0  0  0  0  0999 V2000
   -5.7949   -1.4427   -0.9282 O   0  0  0  0  0  0  0  0  0  0  0  0
   -5.1570   -1.1009    0.1092 C   0  0  0  0  0  0  0  0  0  0  0  0
   -5.8487   -1.1882    1.3396 N   0  0  0  0  0  0  0  0  0  0  0  0
   -7.1460   -1.6219    1.4041 O   0  0  0  0  0  0  0  0  0  0  0  0
   -3.7897   -0.6566   -0.0642 C   0  0  0  0  0  0  0  0  0  0  0  0
   -3.0500   -0.2824    1.0235 C   0  0  0  0  0  0  0  0  0  0  0  0
   -1.7420    0.1476    0.8933 C   0  0  0  0  0  0  0  0  0  0  0  0
   -1.1222    0.2199   -0.3322 C   0  0  0  0  0  0  0  0  0  0  0  0
    0.2185    0.6666   -0.4216 N   0  0  0  0  0  0  0  0  0  0  0  0
    0.9161    1.0403    0.7582 C   0  0  0  0  0  0  0  0  0  0  0  0
    2.3344    1.4913    0.4405 C   0  0  0  0  0  0  0  0  0  0  0  0
    2.5802    2.8486    0.4395 C   0  0  0  0  0  0  0  0  0  0  0  0
    4.3450    2.9821    0.0157 S   0  0  0  0  0  0  0  0  0  0  0  0
    4.5847    1.1862   -0.1206 C   0  0  0  0  0  0  0  0  0  0  0  0
    5.7333    0.4934   -0.4297 C   0  0  0  0  0  0  0  0  0  0  0  0
    5.6827   -0.8828   -0.4763 C   0  0  0  0  0  0  0  0  0  0  0  0
    4.4670   -1.4649   -0.2055 C   0  0  0  0  0  0  0  0  0  0  0  0
    4.4373   -3.3877   -0.2802 Br  0  0  0  0  0  0  0  0  0  0  0  0
    3.3424   -0.7510    0.0986 C   0  0  0  0  0  0  0  0  0  0  0  0
    3.3792    0.6771    0.1508 C   0  0  0  0  0  0  0  0  0  0  0  0
   -1.8836   -0.1627   -1.4280 C   0  0  0  0  0  0  0  0  0  0  0  0
   -3.1831   -0.5907   -1.3065 C   0  0  0  0  0  0  0  0  0  0  0  0
   -5.3674   -0.9196    2.2090 H   0  0  0  0  0  0  0  0  0  0  0  0
   -7.6399   -1.2184    0.6716 H   0  0  0  0  0  0  0  0  0  0  0  0
   -3.4798   -0.3179    2.0054 H   0  0  0  0  0  0  0  0  0  0  0  0
   -1.1950    0.4333    1.7785 H   0  0  0  0  0  0  0  0  0  0  0  0
    0.6450    0.7024   -1.3732 H   0  0  0  0  0  0  0  0  0  0  0  0
    0.9527    0.2158    1.5037 H   0  0  0  0  0  0  0  0  0  0  0  0
    0.4044    1.8681    1.2561 H   0  0  0  0  0  0  0  0  0  0  0  0
    1.9560    3.6929    0.6276 H   0  0  0  0  0  0  0  0  0  0  0  0
    6.6261    1.0620   -0.6225 H   0  0  0  0  0  0  0  0  0  0  0  0
    6.5816   -1.4217   -0.7182 H   0  0  0  0  0  0  0  0  0  0  0  0
    2.4430   -1.3010    0.2938 H   0  0  0  0  0  0  0  0  0  0  0  0
   -1.4439   -0.1230   -2.3986 H   0  0  0  0  0  0  0  0  0  0  0  0
   -3.7861   -0.8935   -2.1735 H   0  0  0  0  0  0  0  0  0  0  0  0
  1  2  2  0
  2  3  1  0
  3  4  1  0
  2  5  1  0
  5  6  2  0
  6  7  1  0
  7  8  2  0
  8  9  1  0
  9 10  1  0
 10 11  1  0
 11 12  2  0
 12 13  1  0
 13 14  1  0
 14 15  2  0
 15 16  1  0
 16 17  2  0
 17 18  1  0
 17 19  1  0
 19 20  2  0
  8 21  1  0
 21 22  2  0
 22  5  1  0
 20 11  1  0
 20 14  1  0
  3 23  1  0
  4 24  1  0
  6 25  1  0
  7 26  1  0
  9 27  1  0
 10 28  1  0
 10 29  1  0
 12 30  1  0
 15 31  1  0
 16 32  1  0
 19 33  1  0
 21 34  1  0
 22 35  1  0
M  END
$$$$
