@<TRIPOS>MOLECULE
*****
 35 37 0 0 0
SMALL
GASTEIGER

@<TRIPOS>ATOM
      1 O          -5.7949   -1.4427   -0.9282 O.2     1  UNL1       -0.2681
      2 C          -5.1570   -1.1009    0.1092 C.2     1  UNL1        0.2665
      3 N          -5.8487   -1.1882    1.3396 N.am    1  UNL1       -0.1935
      4 O          -7.1460   -1.6219    1.4041 O.3     1  UNL1       -0.2949
      5 C          -3.7897   -0.6566   -0.0642 C.ar    1  UNL1        0.0388
      6 C          -3.0500   -0.2824    1.0235 C.ar    1  UNL1       -0.0478
      7 C          -1.7420    0.1476    0.8933 C.ar    1  UNL1       -0.0401
      8 C          -1.1222    0.2199   -0.3322 C.ar    1  UNL1        0.0274
      9 N           0.2185    0.6666   -0.4216 N.pl3   1  UNL1       -0.3397
     10 C           0.9161    1.0403    0.7582 C.3     1  UNL1        0.0354
     11 C           2.3344    1.4913    0.4405 C.ar    1  UNL1       -0.0157
     12 C           2.5802    2.8486    0.4395 C.ar    1  UNL1       -0.0185
     13 S           4.3450    2.9821    0.0157 S.2     1  UNL1       -0.0963
     14 C           4.5847    1.1862   -0.1206 C.ar    1  UNL1        0.0197
     15 C           5.7333    0.4934   -0.4297 C.ar    1  UNL1       -0.0464
     16 C           5.6827   -0.8828   -0.4763 C.ar    1  UNL1       -0.0467
     17 C           4.4670   -1.4649   -0.2055 C.ar    1  UNL1        0.0185
     18 BR          4.4373   -3.3877   -0.2802 Br      1  UNL1       -0.0503
     19 C           3.3424   -0.7510    0.0986 C.ar    1  UNL1       -0.0392
     20 C           3.3792    0.6771    0.1508 C.ar    1  UNL1       -0.0051
     21 C          -1.8836   -0.1627   -1.4280 C.ar    1  UNL1       -0.0401
     22 C          -3.1831   -0.5907   -1.3065 C.ar    1  UNL1       -0.0478
     23 H          -5.3674   -0.9196    2.2090 H       1  UNL1        0.1825
     24 H          -7.6399   -1.2184    0.6716 H       1  UNL1        0.2414
     25 H          -3.4798   -0.3179    2.0054 H       1  UNL1        0.0626
     26 H          -1.1950    0.4333    1.7785 H       1  UNL1        0.0636
     27 H           0.6450    0.7024   -1.3732 H       1  UNL1        0.1464
     28 H           0.9527    0.2158    1.5037 H       1  UNL1        0.0511
     29 H           0.4044    1.8681    1.2561 H       1  UNL1        0.0511
     30 H           1.9560    3.6929    0.6276 H       1  UNL1        0.0697
     31 H           6.6261    1.0620   -0.6225 H       1  UNL1        0.0629
     32 H           6.5816   -1.4217   -0.7182 H       1  UNL1        0.0629
     33 H           2.4430   -1.3010    0.2938 H       1  UNL1        0.0635
     34 H          -1.4439   -0.1230   -2.3986 H       1  UNL1        0.0636
     35 H          -3.7861   -0.8935   -2.1735 H       1  UNL1        0.0626
@<TRIPOS>BOND
     1     1     2    2
     2     2     3   am
     3     3     4    1
     4     2     5    1
     5     5     6   ar
     6     6     7   ar
     7     7     8   ar
     8     8     9    1
     9     9    10    1
    10    10    11    1
    11    11    12   ar
    12    12    13   ar
    13    13    14   ar
    14    14    15   ar
    15    15    16   ar
    16    16    17   ar
    17    17    18    1
    18    17    19   ar
    19    19    20   ar
    20     8    21   ar
    21    21    22   ar
    22    22     5   ar
    23    20    11   ar
    24    20    14   ar
    25     3    23    1
    26     4    24    1
    27     6    25    1
    28     7    26    1
    29     9    27    1
    30    10    28    1
    31    10    29    1
    32    12    30    1
    33    15    31    1
    34    16    32    1
    35    19    33    1
    36    21    34    1
    37    22    35    1
