@<TRIPOS>MOLECULE
*****
 31 32 0 0 0
SMALL
GASTEIGER

@<TRIPOS>ATOM
      1 C           5.7263    0.7884   -0.4492 C.3     1  UNL1       -0.0397
      2 C           4.2924    0.4181   -0.4747 C.ar    1  UNL1       -0.0503
      3 C           3.5002    0.5741   -1.5755 C.ar    1  UNL1       -0.0570
      4 C           2.1718    0.2345   -1.6096 C.ar    1  UNL1       -0.0366
      5 C           1.6255   -0.2926   -0.4563 C.ar    1  UNL1        0.0887
      6 S          -0.0702   -0.7533   -0.4180 S.O2    1  UNL1        0.0039
      7 O          -0.4952   -1.2512   -1.7516 O.2     1  UNL1       -0.1689
      8 O          -0.1934   -1.8621    0.5875 O.2     1  UNL1       -0.1689
      9 C          -1.0554    0.6516    0.1129 C.3     1  UNL1        0.1285
     10 C          -2.4654    0.1891    0.1205 C.ar    1  UNL1        0.1273
     11 C          -3.1186   -0.3874    1.1938 C.ar    1  UNL1       -0.0182
     12 C          -4.3939   -0.6618    0.7757 C.ar    1  UNL1       -0.0090
     13 C          -4.4878   -0.2513   -0.5268 C.ar    1  UNL1        0.2115
     14 C          -5.6556   -0.3433   -1.3798 C.2     1  UNL1        0.3725
     15 O          -6.7279   -0.8359   -0.9578 O.2     1  UNL1       -0.2417
     16 O          -5.6254    0.1087   -2.6853 O.3     1  UNL1       -0.4750
     17 O          -3.3189    0.2556   -0.8978 O.2     1  UNL1       -0.4515
     18 C           2.3998   -0.4620    0.6708 C.ar    1  UNL1       -0.0366
     19 C           3.7471   -0.1069    0.6734 C.ar    1  UNL1       -0.0570
     20 H           6.2730    0.1074    0.2116 H       1  UNL1        0.0278
     21 H           5.8804    1.8338   -0.1309 H       1  UNL1        0.0278
     22 H           6.1795    0.6686   -1.4701 H       1  UNL1        0.0278
     23 H           3.9313    0.9849   -2.4702 H       1  UNL1        0.0621
     24 H           1.5275    0.3472   -2.4622 H       1  UNL1        0.0637
     25 H          -0.7236    0.8644    1.1638 H       1  UNL1        0.0585
     26 H          -0.9195    1.5019   -0.5536 H       1  UNL1        0.0585
     27 H          -2.6689   -0.5661    2.1544 H       1  UNL1        0.0652
     28 H          -5.1641   -1.1100    1.3574 H       1  UNL1        0.0658
     29 H          -6.4659    0.4836   -3.1200 H       1  UNL1        0.2955
     30 H           1.9672   -0.8765    1.5752 H       1  UNL1        0.0637
     31 H           4.3278   -0.2514    1.5709 H       1  UNL1        0.0621
@<TRIPOS>BOND
     1     1     2    1
     2     2     3   ar
     3     3     4   ar
     4     4     5   ar
     5     5     6    1
     6     6     7    2
     7     6     8    2
     8     6     9    1
     9     9    10    1
    10    10    11   ar
    11    11    12   ar
    12    12    13   ar
    13    13    14    1
    14    14    15    2
    15    14    16    1
    16    13    17   ar
    17     5    18   ar
    18    18    19   ar
    19    19     2   ar
    20    17    10   ar
    21     1    20    1
    22     1    21    1
    23     1    22    1
    24     3    23    1
    25     4    24    1
    26     9    25    1
    27     9    26    1
    28    11    27    1
    29    12    28    1
    30    16    29    1
    31    18    30    1
    32    19    31    1
