
     RDKit          3D

 31 32  0  0  0  0  0  0  0  0999 V2000
    5.7263    0.7884   -0.4492 C   0  0  0  0  0  0  0  0  0  0  0  0
    4.2924    0.4181   -0.4747 C   0  0  0  0  0  0  0  0  0  0  0  0
    3.5002    0.5741   -1.5755 C   0  0  0  0  0  0  0  0  0  0  0  0
    2.1718    0.2345   -1.6096 C   0  0  0  0  0  0  0  0  0  0  0  0
    1.6255   -0.2926   -0.4563 C   0  0  0  0  0  0  0  0  0  0  0  0
   -0.0702   -0.7533   -0.4180 S   0  0  0  0  0  6  0  0  0  0  0  0
   -0.4952   -1.2512   -1.7516 O   0  0  0  0  0  0  0  0  0  0  0  0
   -0.1934   -1.8621    0.5875 O   0  0  0  0  0  0  0  0  0  0  0  0
   -1.0554    0.6516    0.1129 C   0  0  0  0  0  0  0  0  0  0  0  0
   -2.4654    0.1891    0.1205 C   0  0  0  0  0  0  0  0  0  0  0  0
   -3.1186   -0.3874    1.1938 C   0  0  0  0  0  0  0  0  0  0  0  0
   -4.3939   -0.6618    0.7757 C   0  0  0  0  0  0  0  0  0  0  0  0
   -4.4878   -0.2513   -0.5268 C   0  0  0  0  0  0  0  0  0  0  0  0
   -5.6556   -0.3433   -1.3798 C   0  0  0  0  0  0  0  0  0  0  0  0
   -6.7279   -0.8359   -0.9578 O   0  0  0  0  0  0  0  0  0  0  0  0
   -5.6254    0.1087   -2.6853 O   0  0  0  0  0  0  0  0  0  0  0  0
   -3.3189    0.2556   -0.8978 O   0  0  0  0  0  0  0  0  0  0  0  0
    2.3998   -0.4620    0.6708 C   0  0  0  0  0  0  0  0  0  0  0  0
    3.7471   -0.1069    0.6734 C   0  0  0  0  0  0  0  0  0  0  0  0
    6.2730    0.1074    0.2116 H   0  0  0  0  0  0  0  0  0  0  0  0
    5.8804    1.8338   -0.1309 H   0  0  0  0  0  0  0  0  0  0  0  0
    6.1795    0.6686   -1.4701 H   0  0  0  0  0  0  0  0  0  0  0  0
    3.9313    0.9849   -2.4702 H   0  0  0  0  0  0  0  0  0  0  0  0
    1.5275    0.3472   -2.4622 H   0  0  0  0  0  0  0  0  0  0  0  0
   -0.7236    0.8644    1.1638 H   0  0  0  0  0  0  0  0  0  0  0  0
   -0.9195    1.5019   -0.5536 H   0  0  0  0  0  0  0  0  0  0  0  0
   -2.6689   -0.5661    2.1544 H   0  0  0  0  0  0  0  0  0  0  0  0
   -5.1641   -1.1100    1.3574 H   0  0  0  0  0  0  0  0  0  0  0  0
   -6.4659    0.4836   -3.1200 H   0  0  0  0  0  0  0  0  0  0  0  0
    1.9672   -0.8765    1.5752 H   0  0  0  0  0  0  0  0  0  0  0  0
    4.3278   -0.2514    1.5709 H   0  0  0  0  0  0  0  0  0  0  0  0
  1  2  1  0
  2  3  2  0
  3  4  1  0
  4  5  2  0
  5  6  1  0
  6  7  2  0
  6  8  2  0
  6  9  1  0
  9 10  1  0
 10 11  2  0
 11 12  1  0
 12 13  2  0
 13 14  1  0
 14 15  2  0
 14 16  1  0
 13 17  1  0
  5 18  1  0
 18 19  2  0
 19  2  1  0
 17 10  1  0
  1 20  1  0
  1 21  1  0
  1 22  1  0
  3 23  1  0
  4 24  1  0
  9 25  1  0
  9 26  1  0
 11 27  1  0
 12 28  1  0
 16 29  1  0
 18 30  1  0
 19 31  1  0
M  END
$$$$
