@<TRIPOS>MOLECULE
*****
 22 23 0 0 0
SMALL
GASTEIGER

@<TRIPOS>ATOM
      1 O          -3.6040    0.0125    1.1496 O.3     1  UNL1       -0.4804
      2 C          -3.1528   -0.5681   -0.0285 C.2     1  UNL1        0.3091
      3 O          -4.1370   -0.9755   -0.7424 O.2     1  UNL1       -0.2507
      4 C          -1.8215   -0.8031   -0.6076 C.3     1  UNL1        0.0718
      5 C          -0.7792    0.1632   -0.1539 C.ar    1  UNL1       -0.0118
      6 C          -0.8735    1.4539    0.3198 C.ar    1  UNL1        0.0064
      7 N           0.3739    1.9233    0.6127 N.ar    1  UNL1       -0.3604
      8 C           1.2417    0.9172    0.3170 C.ar    1  UNL1        0.0467
      9 C           2.6229    0.9140    0.4376 C.ar    1  UNL1       -0.0378
     10 C           3.3467   -0.2238    0.0726 C.ar    1  UNL1       -0.0598
     11 C           2.6385   -1.3285   -0.4069 C.ar    1  UNL1       -0.0611
     12 C           1.2422   -1.3250   -0.5296 C.ar    1  UNL1       -0.0523
     13 C           0.5663   -0.1774   -0.1557 C.ar    1  UNL1        0.0033
     14 H          -4.4322    0.6273    1.0564 H       1  UNL1        0.2951
     15 H          -1.9302   -0.6770   -1.7305 H       1  UNL1        0.0427
     16 H          -1.5260   -1.8413   -0.3630 H       1  UNL1        0.0427
     17 H          -1.8041    1.9906    0.4290 H       1  UNL1        0.0810
     18 H           0.6221    2.8653    0.9897 H       1  UNL1        0.1653
     19 H           3.1489    1.7800    0.8128 H       1  UNL1        0.0638
     20 H           4.4211   -0.2954    0.1353 H       1  UNL1        0.0618
     21 H           3.1414   -2.2600   -0.7154 H       1  UNL1        0.0618
     22 H           0.6948   -2.1724   -0.8990 H       1  UNL1        0.0624
@<TRIPOS>BOND
     1     1     2    1
     2     2     3    2
     3     2     4    1
     4     4     5    1
     5     5     6   ar
     6     6     7   ar
     7     7     8   ar
     8     8     9   ar
     9     9    10   ar
    10    10    11   ar
    11    11    12   ar
    12    12    13   ar
    13    13     5   ar
    14    13     8   ar
    15     1    14    1
    16     4    15    1
    17     4    16    1
    18     6    17    1
    19     7    18    1
    20     9    19    1
    21    10    20    1
    22    11    21    1
    23    12    22    1
