@<TRIPOS>MOLECULE
*****
 50 53 0 0 0
SMALL
GASTEIGER

@<TRIPOS>ATOM
      1 C          -1.9352    0.0430   -2.1548 C.3     1  UNL1       -0.0112
      2 C          -1.4232   -0.3345   -0.7894 C.3     1  UNL1        0.1959
      3 C          -0.0937   -0.9647   -0.9997 C.ar    1  UNL1        0.0420
      4 C           1.0942   -0.4625   -0.5105 C.ar    1  UNL1       -0.0301
      5 C           2.2854   -1.0952   -0.7532 C.ar    1  UNL1        0.0343
      6 N           3.5462   -0.6670   -0.3007 N.am    1  UNL1       -0.2802
      7 C           3.7941    0.4720    0.4732 C.2     1  UNL1        0.2666
      8 O           2.8749    1.2180    0.8305 O.2     1  UNL1       -0.2682
      9 C           5.1734    0.8375    0.9012 C.ar    1  UNL1        0.1257
     10 C           5.4216    1.9416    1.6524 C.ar    1  UNL1       -0.0298
     11 C           6.7393    2.2168    2.0133 C.ar    1  UNL1       -0.0397
     12 C           7.7473    1.3796    1.6090 C.ar    1  UNL1        0.0591
     13 CL          9.4121    1.6929    2.0426 Cl      1  UNL1       -0.0820
     14 C           7.4493    0.2667    0.8452 C.ar    1  UNL1        0.0467
     15 N           6.1682    0.0296    0.5141 N.ar    1  UNL1       -0.2489
     16 C           2.2411   -2.2718   -1.5190 C.ar    1  UNL1       -0.0377
     17 C           1.0860   -2.8051   -2.0241 C.ar    1  UNL1       -0.0243
     18 C          -0.0903   -2.1449   -1.7614 C.ar    1  UNL1        0.1311
     19 F          -1.2549   -2.6418   -2.2442 F       1  UNL1       -0.2050
     20 C          -1.2321    0.8749    0.1016 C.3     1  UNL1        0.1184
     21 S          -2.8352    1.4940    0.5163 S.O2    1  UNL1       -0.0091
     22 O          -3.1858    2.7079   -0.3078 O.2     1  UNL1       -0.1731
     23 O          -2.7908    1.8989    1.9820 O.2     1  UNL1       -0.1731
     24 C          -4.0174    0.2055    0.2934 C.3     1  UNL1        0.1993
     25 C          -4.8678    0.4349   -0.9415 C.3     1  UNL1        0.0474
     26 C          -6.0161    0.8000   -0.0318 C.3     1  UNL1        0.2541
     27 F          -6.2433    2.1681   -0.0539 F       1  UNL1       -0.2055
     28 F          -7.1173    0.0296   -0.3400 F       1  UNL1       -0.2055
     29 C          -5.2421    0.3555    1.1829 C.3     1  UNL1        0.0474
     30 C          -3.3777   -1.1073    0.3718 C.2     1  UNL1        0.3076
     31 N          -4.0708   -2.1712    1.0161 N.pl3   1  UNL1       -0.2488
     32 N          -2.2425   -1.3208   -0.1097 N.2     1  UNL1       -0.0727
     33 H          -2.7169   -0.6213   -2.5377 H       1  UNL1        0.0279
     34 H          -1.1149   -0.0038   -2.9354 H       1  UNL1        0.0279
     35 H          -2.2206    1.1351   -2.1783 H       1  UNL1        0.0279
     36 H           1.0209    0.4474    0.0581 H       1  UNL1        0.0641
     37 H           4.4154   -1.2361   -0.5500 H       1  UNL1        0.1552
     38 H           4.5973    2.5713    1.9473 H       1  UNL1        0.0641
     39 H           6.9315    3.1049    2.6165 H       1  UNL1        0.0633
     40 H           8.2504   -0.3809    0.5355 H       1  UNL1        0.0844
     41 H           3.1617   -2.8152   -1.7417 H       1  UNL1        0.0637
     42 H           1.0632   -3.7098   -2.6114 H       1  UNL1        0.0647
     43 H          -0.7034    1.6584   -0.4793 H       1  UNL1        0.0550
     44 H          -0.6832    0.6040    1.0337 H       1  UNL1        0.0550
     45 H          -5.0015   -0.4805   -1.5404 H       1  UNL1        0.0350
     46 H          -4.5223    1.2559   -1.5948 H       1  UNL1        0.0350
     47 H          -5.1416    1.1499    1.9523 H       1  UNL1        0.0350
     48 H          -5.6462   -0.5709    1.5907 H       1  UNL1        0.0350
     49 H          -4.9870   -2.5392    0.6670 H       1  UNL1        0.2881
     50 H          -3.6995   -2.6492    1.8828 H       1  UNL1        0.2881
@<TRIPOS>BOND
     1     2     1    1
     2     2     3    1
     3     3     4   ar
     4     4     5   ar
     5     5     6    1
     6     6     7   am
     7     7     8    2
     8     7     9    1
     9     9    10   ar
    10    10    11   ar
    11    11    12   ar
    12    12    13    1
    13    12    14   ar
    14    14    15   ar
    15     5    16   ar
    16    16    17   ar
    17    17    18   ar
    18    18    19    1
    19     2    20    1
    20    20    21    1
    21    21    22    2
    22    21    23    2
    23    21    24    1
    24    24    25    1
    25    25    26    1
    26    26    27    1
    27    26    28    1
    28    26    29    1
    29    24    30    1
    30    30    31    1
    31    30    32    2
    32    32     2    1
    33    18     3   ar
    34    29    24    1
    35    15     9   ar
    36     1    33    1
    37     1    34    1
    38     1    35    1
    39     4    36    1
    40     6    37    1
    41    10    38    1
    42    11    39    1
    43    14    40    1
    44    16    41    1
    45    17    42    1
    46    20    43    1
    47    20    44    1
    48    25    45    1
    49    25    46    1
    50    29    47    1
    51    29    48    1
    52    31    49    1
    53    31    50    1
