
     RDKit          3D

 50 53  0  0  0  0  0  0  0  0999 V2000
   -1.9352    0.0430   -2.1548 C   0  0  0  0  0  0  0  0  0  0  0  0
   -1.4232   -0.3345   -0.7894 C   0  0  1  0  0  0  0  0  0  0  0  0
   -0.0937   -0.9647   -0.9997 C   0  0  0  0  0  0  0  0  0  0  0  0
    1.0942   -0.4625   -0.5105 C   0  0  0  0  0  0  0  0  0  0  0  0
    2.2854   -1.0952   -0.7532 C   0  0  0  0  0  0  0  0  0  0  0  0
    3.5462   -0.6670   -0.3007 N   0  0  0  0  0  0  0  0  0  0  0  0
    3.7941    0.4720    0.4732 C   0  0  0  0  0  0  0  0  0  0  0  0
    2.8749    1.2180    0.8305 O   0  0  0  0  0  0  0  0  0  0  0  0
    5.1734    0.8375    0.9012 C   0  0  0  0  0  0  0  0  0  0  0  0
    5.4216    1.9416    1.6524 C   0  0  0  0  0  0  0  0  0  0  0  0
    6.7393    2.2168    2.0133 C   0  0  0  0  0  0  0  0  0  0  0  0
    7.7473    1.3796    1.6090 C   0  0  0  0  0  0  0  0  0  0  0  0
    9.4121    1.6929    2.0426 Cl  0  0  0  0  0  0  0  0  0  0  0  0
    7.4493    0.2667    0.8452 C   0  0  0  0  0  0  0  0  0  0  0  0
    6.1682    0.0296    0.5141 N   0  0  0  0  0  0  0  0  0  0  0  0
    2.2411   -2.2718   -1.5190 C   0  0  0  0  0  0  0  0  0  0  0  0
    1.0860   -2.8051   -2.0241 C   0  0  0  0  0  0  0  0  0  0  0  0
   -0.0903   -2.1449   -1.7614 C   0  0  0  0  0  0  0  0  0  0  0  0
   -1.2549   -2.6418   -2.2442 F   0  0  0  0  0  0  0  0  0  0  0  0
   -1.2321    0.8749    0.1016 C   0  0  0  0  0  0  0  0  0  0  0  0
   -2.8352    1.4940    0.5163 S   0  0  0  0  0  6  0  0  0  0  0  0
   -3.1858    2.7079   -0.3078 O   0  0  0  0  0  0  0  0  0  0  0  0
   -2.7908    1.8989    1.9820 O   0  0  0  0  0  0  0  0  0  0  0  0
   -4.0174    0.2055    0.2934 C   0  0  0  0  0  0  0  0  0  0  0  0
   -4.8678    0.4349   -0.9415 C   0  0  0  0  0  0  0  0  0  0  0  0
   -6.0161    0.8000   -0.0318 C   0  0  0  0  0  0  0  0  0  0  0  0
   -6.2433    2.1681   -0.0539 F   0  0  0  0  0  0  0  0  0  0  0  0
   -7.1173    0.0296   -0.3400 F   0  0  0  0  0  0  0  0  0  0  0  0
   -5.2421    0.3555    1.1829 C   0  0  0  0  0  0  0  0  0  0  0  0
   -3.3777   -1.1073    0.3718 C   0  0  0  0  0  0  0  0  0  0  0  0
   -4.0708   -2.1712    1.0161 N   0  0  0  0  0  0  0  0  0  0  0  0
   -2.2425   -1.3208   -0.1097 N   0  0  0  0  0  0  0  0  0  0  0  0
   -2.7169   -0.6213   -2.5377 H   0  0  0  0  0  0  0  0  0  0  0  0
   -1.1149   -0.0038   -2.9354 H   0  0  0  0  0  0  0  0  0  0  0  0
   -2.2206    1.1351   -2.1783 H   0  0  0  0  0  0  0  0  0  0  0  0
    1.0209    0.4474    0.0581 H   0  0  0  0  0  0  0  0  0  0  0  0
    4.4154   -1.2361   -0.5500 H   0  0  0  0  0  0  0  0  0  0  0  0
    4.5973    2.5713    1.9473 H   0  0  0  0  0  0  0  0  0  0  0  0
    6.9315    3.1049    2.6165 H   0  0  0  0  0  0  0  0  0  0  0  0
    8.2504   -0.3809    0.5355 H   0  0  0  0  0  0  0  0  0  0  0  0
    3.1617   -2.8152   -1.7417 H   0  0  0  0  0  0  0  0  0  0  0  0
    1.0632   -3.7098   -2.6114 H   0  0  0  0  0  0  0  0  0  0  0  0
   -0.7034    1.6584   -0.4793 H   0  0  0  0  0  0  0  0  0  0  0  0
   -0.6832    0.6040    1.0337 H   0  0  0  0  0  0  0  0  0  0  0  0
   -5.0015   -0.4805   -1.5404 H   0  0  0  0  0  0  0  0  0  0  0  0
   -4.5223    1.2559   -1.5948 H   0  0  0  0  0  0  0  0  0  0  0  0
   -5.1416    1.1499    1.9523 H   0  0  0  0  0  0  0  0  0  0  0  0
   -5.6462   -0.5709    1.5907 H   0  0  0  0  0  0  0  0  0  0  0  0
   -4.9870   -2.5392    0.6670 H   0  0  0  0  0  0  0  0  0  0  0  0
   -3.6995   -2.6492    1.8828 H   0  0  0  0  0  0  0  0  0  0  0  0
  2  1  1  6
  2  3  1  0
  3  4  2  0
  4  5  1  0
  5  6  1  0
  6  7  1  0
  7  8  2  0
  7  9  1  0
  9 10  2  0
 10 11  1  0
 11 12  2  0
 12 13  1  0
 12 14  1  0
 14 15  2  0
  5 16  2  0
 16 17  1  0
 17 18  2  0
 18 19  1  0
  2 20  1  0
 20 21  1  0
 21 22  2  0
 21 23  2  0
 21 24  1  0
 24 25  1  0
 25 26  1  0
 26 27  1  0
 26 28  1  0
 26 29  1  0
 24 30  1  0
 30 31  1  0
 30 32  2  0
 32  2  1  0
 18  3  1  0
 29 24  1  0
 15  9  1  0
  1 33  1  0
  1 34  1  0
  1 35  1  0
  4 36  1  0
  6 37  1  0
 10 38  1  0
 11 39  1  0
 14 40  1  0
 16 41  1  0
 17 42  1  0
 20 43  1  0
 20 44  1  0
 25 45  1  0
 25 46  1  0
 29 47  1  0
 29 48  1  0
 31 49  1  0
 31 50  1  0
M  END
$$$$
