@<TRIPOS>MOLECULE
*****
 62 66 0 0 0
SMALL
GASTEIGER

@<TRIPOS>ATOM
      1 N           7.7209    1.0035   -0.8669 N.3     1  UNL1       -0.3297
      2 C           7.9581   -0.3846   -0.6903 C.3     1  UNL1       -0.0040
      3 C           6.7939   -1.1725   -0.1882 C.3     1  UNL1       -0.0264
      4 C           5.5982   -1.1113   -1.1075 C.3     1  UNL1       -0.0362
      5 C           4.4046   -0.4260   -0.4502 C.3     1  UNL1       -0.0003
      6 N           4.0560   -1.0794    0.7685 N.3     1  UNL1       -0.2940
      7 C           2.8467   -1.8726    0.6686 C.3     1  UNL1        0.0760
      8 C           1.6842   -1.0081    0.4987 C.2     1  UNL1        0.2313
      9 O           0.6579   -1.7053    0.4117 O.2     1  UNL1       -0.2741
     10 N           1.2240    0.2858    0.3899 N.am    1  UNL1       -0.2838
     11 C           0.4612    1.4378    0.2515 C.ar    1  UNL1        0.0449
     12 C           1.1412    2.6246    0.3483 C.ar    1  UNL1       -0.0397
     13 C           0.4447    3.7778    0.2239 C.ar    1  UNL1       -0.0593
     14 C          -0.8977    3.7378    0.0079 C.ar    1  UNL1       -0.0517
     15 C          -1.6205    2.5857   -0.0964 C.ar    1  UNL1        0.0154
     16 C          -0.8905    1.4293    0.0336 C.ar    1  UNL1        0.0528
     17 C          -1.9064    0.4100   -0.1235 C.2     1  UNL1        0.1994
     18 O          -1.8025   -0.8071   -0.0962 O.2     1  UNL1       -0.2864
     19 C          -3.2174    1.0295   -0.3431 C.ar    1  UNL1        0.0708
     20 C          -4.5629    0.8351   -0.5599 C.ar    1  UNL1        0.0506
     21 N          -5.1697    2.0267   -0.6686 N.ar    1  UNL1       -0.2800
     22 N          -4.2279    2.9733   -0.5240 N.ar    1  UNL1       -0.1729
     23 C          -3.0390    2.3810   -0.3258 C.ar    1  UNL1        0.1043
     24 C          -5.2671   -0.4869   -0.6636 C.3     1  UNL1        0.0015
     25 C          -5.7414   -0.9535    0.6776 C.3     1  UNL1       -0.0448
     26 C          -6.9649   -1.8400    0.4194 C.3     1  UNL1       -0.0525
     27 C          -8.0625   -0.9158   -0.0142 C.3     1  UNL1       -0.0530
     28 C          -7.7031   -0.2989   -1.3306 C.3     1  UNL1       -0.0525
     29 C          -6.2894   -0.5022   -1.7482 C.3     1  UNL1       -0.0448
     30 C           5.1249   -1.7087    1.4749 C.3     1  UNL1       -0.0003
     31 C           6.4104   -0.9048    1.2291 C.3     1  UNL1       -0.0362
     32 H           8.6101    1.5720   -0.8054 H       1  UNL1        0.1182
     33 H           7.0965    1.4391   -0.1533 H       1  UNL1        0.1182
     34 H           8.8382   -0.5454   -0.0413 H       1  UNL1        0.0425
     35 H           8.2208   -0.8157   -1.6955 H       1  UNL1        0.0425
     36 H           7.1241   -2.2541   -0.2126 H       1  UNL1        0.0314
     37 H           5.8417   -0.6020   -2.0704 H       1  UNL1        0.0281
     38 H           5.2147   -2.1269   -1.3988 H       1  UNL1        0.0281
     39 H           4.5418    0.6627   -0.3389 H       1  UNL1        0.0427
     40 H           3.5796   -0.5355   -1.2041 H       1  UNL1        0.0427
     41 H           2.6834   -2.4748    1.5852 H       1  UNL1        0.0522
     42 H           2.8925   -2.5625   -0.2041 H       1  UNL1        0.0522
     43 H           2.2725    0.5016    0.4994 H       1  UNL1        0.1549
     44 H           2.2082    2.7442    0.5198 H       1  UNL1        0.0636
     45 H           0.9611    4.7090    0.2957 H       1  UNL1        0.0618
     46 H          -1.3954    4.6856   -0.0814 H       1  UNL1        0.0624
     47 H          -6.1632    2.2927   -0.8320 H       1  UNL1        0.1886
     48 H          -4.4677   -1.2215   -0.9878 H       1  UNL1        0.0364
     49 H          -6.0710   -0.1248    1.3463 H       1  UNL1        0.0272
     50 H          -4.9545   -1.5552    1.1957 H       1  UNL1        0.0272
     51 H          -7.2256   -2.4310    1.3104 H       1  UNL1        0.0265
     52 H          -6.7657   -2.5430   -0.4273 H       1  UNL1        0.0265
     53 H          -8.1892   -0.1307    0.7703 H       1  UNL1        0.0265
     54 H          -9.0179   -1.4715   -0.0530 H       1  UNL1        0.0265
     55 H          -7.9447    0.8011   -1.3597 H       1  UNL1        0.0265
     56 H          -8.3391   -0.7133   -2.1653 H       1  UNL1        0.0265
     57 H          -6.0484    0.3364   -2.4659 H       1  UNL1        0.0272
     58 H          -6.2074   -1.4149   -2.4034 H       1  UNL1        0.0272
     59 H           4.9201   -1.6281    2.5663 H       1  UNL1        0.0427
     60 H           5.2890   -2.7765    1.1859 H       1  UNL1        0.0427
     61 H           6.1364    0.1353    1.4450 H       1  UNL1        0.0281
     62 H           7.1952   -1.3126    1.8947 H       1  UNL1        0.0281
@<TRIPOS>BOND
     1     1     2    1
     2     2     3    1
     3     3     4    1
     4     4     5    1
     5     5     6    1
     6     6     7    1
     7     7     8    1
     8     8     9    2
     9     8    10   am
    10    10    11    1
    11    11    12   ar
    12    12    13   ar
    13    13    14   ar
    14    14    15   ar
    15    15    16   ar
    16    16    17    1
    17    17    18    2
    18    17    19    1
    19    19    20   ar
    20    20    21   ar
    21    21    22   ar
    22    22    23   ar
    23    20    24    1
    24    24    25    1
    25    25    26    1
    26    26    27    1
    27    27    28    1
    28    28    29    1
    29     6    30    1
    30    30    31    1
    31    31     3    1
    32    16    11   ar
    33    23    19   ar
    34    29    24    1
    35    23    15    1
    36     1    32    1
    37     1    33    1
    38     2    34    1
    39     2    35    1
    40     3    36    1
    41     4    37    1
    42     4    38    1
    43     5    39    1
    44     5    40    1
    45     7    41    1
    46     7    42    1
    47    10    43    1
    48    12    44    1
    49    13    45    1
    50    14    46    1
    51    21    47    1
    52    24    48    1
    53    25    49    1
    54    25    50    1
    55    26    51    1
    56    26    52    1
    57    27    53    1
    58    27    54    1
    59    28    55    1
    60    28    56    1
    61    29    57    1
    62    29    58    1
    63    30    59    1
    64    30    60    1
    65    31    61    1
    66    31    62    1
