@<TRIPOS>MOLECULE
*****
 64 66 0 0 0
SMALL
GASTEIGER

@<TRIPOS>ATOM
      1 C          -4.8318   -3.6664    0.9789 C.3     1  UNL1       -0.0638
      2 C          -5.0203   -2.3195    1.6194 C.3     1  UNL1       -0.0350
      3 C          -3.9335   -1.3948    1.1137 C.3     1  UNL1        0.0817
      4 S          -4.0357   -1.2254   -0.6355 S.O2    1  UNL1        0.0318
      5 O          -5.4245   -0.6972   -0.9365 O.2     1  UNL1       -0.1580
      6 O          -3.9802   -2.6033   -1.2680 O.2     1  UNL1       -0.1580
      7 N          -2.8933   -0.2368   -1.3460 N.3     1  UNL1       -0.1811
      8 C          -2.9292    1.1237   -0.9176 C.3     1  UNL1        0.0211
      9 C          -1.9314    1.3768    0.1497 C.3     1  UNL1       -0.0231
     10 C          -0.5457    0.9915   -0.2499 C.3     1  UNL1        0.0650
     11 C          -0.1061   -0.1001    0.7485 C.3     1  UNL1        0.0259
     12 N           1.2360   -0.5438    0.4353 N.am    1  UNL1       -0.3103
     13 C           1.8361   -1.5467    1.2312 C.2     1  UNL1        0.2469
     14 O           1.0813   -1.9673    2.1860 O.2     1  UNL1       -0.2701
     15 C           3.1629   -2.1007    1.0557 C.ar    1  UNL1        0.0718
     16 C           3.5432   -3.1271    1.9174 C.ar    1  UNL1       -0.0463
     17 C           4.7680   -3.7081    1.8212 C.ar    1  UNL1       -0.0492
     18 C           5.6482   -3.2910    0.8722 C.ar    1  UNL1        0.0576
     19 C           6.9968   -3.9065    0.7392 C.3     1  UNL1        0.4175
     20 F           7.2119   -4.0919   -0.6183 F       1  UNL1       -0.1659
     21 F           7.9247   -3.0753    1.3033 F       1  UNL1       -0.1659
     22 F           6.9938   -5.1236    1.3682 F       1  UNL1       -0.1659
     23 C           5.3268   -2.2854   -0.0015 C.ar    1  UNL1       -0.0141
     24 C           4.0724   -1.7052    0.1129 C.ar    1  UNL1        0.1360
     25 F           3.7569   -0.7094   -0.7500 F       1  UNL1       -0.2047
     26 C           0.3865    2.1084   -0.1247 C.2     1  UNL1        0.2235
     27 O           1.3626    1.9118    0.7108 O.2     1  UNL1       -0.2749
     28 N           0.3849    3.3516   -0.7670 N.am    1  UNL1       -0.2966
     29 C           1.4374    4.3405   -0.4783 C.3     1  UNL1        0.0382
     30 C           0.6803    5.5591    0.0320 C.3     1  UNL1        0.0635
     31 O          -0.1646    6.0513   -0.9271 O.3     1  UNL1       -0.3767
     32 C          -0.2573    5.3007   -2.0669 C.3     1  UNL1        0.0635
     33 C          -0.5670    3.8154   -1.7342 C.3     1  UNL1        0.0382
     34 C          -0.5846    0.3893   -1.6359 C.3     1  UNL1       -0.0231
     35 C          -1.6187   -0.7638   -1.6579 C.3     1  UNL1        0.0211
     36 H          -5.1114   -4.4890    1.6892 H       1  UNL1        0.0230
     37 H          -5.4917   -3.7504    0.0790 H       1  UNL1        0.0230
     38 H          -3.8078   -3.8814    0.6672 H       1  UNL1        0.0230
     39 H          -4.9025   -2.3559    2.7382 H       1  UNL1        0.0279
     40 H          -5.9915   -1.8478    1.3811 H       1  UNL1        0.0279
     41 H          -2.9743   -1.8371    1.3784 H       1  UNL1        0.0515
     42 H          -4.1476   -0.4127    1.5941 H       1  UNL1        0.0515
     43 H          -3.9689    1.4177   -0.5840 H       1  UNL1        0.0444
     44 H          -2.6699    1.7638   -1.8071 H       1  UNL1        0.0444
     45 H          -1.8884    2.4532    0.4612 H       1  UNL1        0.0289
     46 H          -2.1772    0.7990    1.0971 H       1  UNL1        0.0289
     47 H          -0.8641   -0.9000    0.7367 H       1  UNL1        0.0472
     48 H          -0.1495    0.3874    1.7432 H       1  UNL1        0.0472
     49 H           1.7258   -0.1301   -0.3524 H       1  UNL1        0.1490
     50 H           2.8237   -3.4567    2.6807 H       1  UNL1        0.0626
     51 H           5.0489   -4.5075    2.5011 H       1  UNL1        0.0623
     52 H           5.9774   -1.9221   -0.7608 H       1  UNL1        0.0652
     53 H           1.9630    4.6554   -1.3942 H       1  UNL1        0.0487
     54 H           2.1149    3.9338    0.2732 H       1  UNL1        0.0487
     55 H           0.0598    5.2094    0.8856 H       1  UNL1        0.0575
     56 H           1.3712    6.3155    0.4543 H       1  UNL1        0.0575
     57 H           0.6122    5.3645   -2.7453 H       1  UNL1        0.0575
     58 H          -1.1339    5.6429   -2.6530 H       1  UNL1        0.0575
     59 H          -0.3615    3.3215   -2.7103 H       1  UNL1        0.0487
     60 H          -1.6075    3.8280   -1.4261 H       1  UNL1        0.0487
     61 H          -0.8948    1.0595   -2.4281 H       1  UNL1        0.0289
     62 H           0.3730   -0.0849   -1.9245 H       1  UNL1        0.0289
     63 H          -1.6360   -1.0693   -2.7460 H       1  UNL1        0.0444
     64 H          -1.2784   -1.6376   -1.1086 H       1  UNL1        0.0444
@<TRIPOS>BOND
     1     1     2    1
     2     2     3    1
     3     3     4    1
     4     4     5    2
     5     4     6    2
     6     4     7    1
     7     7     8    1
     8     8     9    1
     9     9    10    1
    10    10    11    1
    11    11    12    1
    12    12    13   am
    13    13    14    2
    14    13    15    1
    15    15    16   ar
    16    16    17   ar
    17    17    18   ar
    18    18    19    1
    19    19    20    1
    20    19    21    1
    21    19    22    1
    22    18    23   ar
    23    23    24   ar
    24    24    25    1
    25    10    26    1
    26    26    27    2
    27    26    28   am
    28    28    29    1
    29    29    30    1
    30    30    31    1
    31    31    32    1
    32    32    33    1
    33    10    34    1
    34    34    35    1
    35    35     7    1
    36    24    15   ar
    37    33    28    1
    38     1    36    1
    39     1    37    1
    40     1    38    1
    41     2    39    1
    42     2    40    1
    43     3    41    1
    44     3    42    1
    45     8    43    1
    46     8    44    1
    47     9    45    1
    48     9    46    1
    49    11    47    1
    50    11    48    1
    51    12    49    1
    52    16    50    1
    53    17    51    1
    54    23    52    1
    55    29    53    1
    56    29    54    1
    57    30    55    1
    58    30    56    1
    59    32    57    1
    60    32    58    1
    61    33    59    1
    62    33    60    1
    63    34    61    1
    64    34    62    1
    65    35    63    1
    66    35    64    1
