
     RDKit          3D

 64 66  0  0  0  0  0  0  0  0999 V2000
   -4.8318   -3.6664    0.9789 C   0  0  0  0  0  0  0  0  0  0  0  0
   -5.0203   -2.3195    1.6194 C   0  0  0  0  0  0  0  0  0  0  0  0
   -3.9335   -1.3948    1.1137 C   0  0  0  0  0  0  0  0  0  0  0  0
   -4.0357   -1.2254   -0.6355 S   0  0  0  0  0  6  0  0  0  0  0  0
   -5.4245   -0.6972   -0.9365 O   0  0  0  0  0  0  0  0  0  0  0  0
   -3.9802   -2.6033   -1.2680 O   0  0  0  0  0  0  0  0  0  0  0  0
   -2.8933   -0.2368   -1.3460 N   0  0  0  0  0  0  0  0  0  0  0  0
   -2.9292    1.1237   -0.9176 C   0  0  0  0  0  0  0  0  0  0  0  0
   -1.9314    1.3768    0.1497 C   0  0  0  0  0  0  0  0  0  0  0  0
   -0.5457    0.9915   -0.2499 C   0  0  0  0  0  0  0  0  0  0  0  0
   -0.1061   -0.1001    0.7485 C   0  0  0  0  0  0  0  0  0  0  0  0
    1.2360   -0.5438    0.4353 N   0  0  0  0  0  0  0  0  0  0  0  0
    1.8361   -1.5467    1.2312 C   0  0  0  0  0  0  0  0  0  0  0  0
    1.0813   -1.9673    2.1860 O   0  0  0  0  0  0  0  0  0  0  0  0
    3.1629   -2.1007    1.0557 C   0  0  0  0  0  0  0  0  0  0  0  0
    3.5432   -3.1271    1.9174 C   0  0  0  0  0  0  0  0  0  0  0  0
    4.7680   -3.7081    1.8212 C   0  0  0  0  0  0  0  0  0  0  0  0
    5.6482   -3.2910    0.8722 C   0  0  0  0  0  0  0  0  0  0  0  0
    6.9968   -3.9065    0.7392 C   0  0  0  0  0  0  0  0  0  0  0  0
    7.2119   -4.0919   -0.6183 F   0  0  0  0  0  0  0  0  0  0  0  0
    7.9247   -3.0753    1.3033 F   0  0  0  0  0  0  0  0  0  0  0  0
    6.9938   -5.1236    1.3682 F   0  0  0  0  0  0  0  0  0  0  0  0
    5.3268   -2.2854   -0.0015 C   0  0  0  0  0  0  0  0  0  0  0  0
    4.0724   -1.7052    0.1129 C   0  0  0  0  0  0  0  0  0  0  0  0
    3.7569   -0.7094   -0.7500 F   0  0  0  0  0  0  0  0  0  0  0  0
    0.3865    2.1084   -0.1247 C   0  0  0  0  0  0  0  0  0  0  0  0
    1.3626    1.9118    0.7108 O   0  0  0  0  0  0  0  0  0  0  0  0
    0.3849    3.3516   -0.7670 N   0  0  0  0  0  0  0  0  0  0  0  0
    1.4374    4.3405   -0.4783 C   0  0  0  0  0  0  0  0  0  0  0  0
    0.6803    5.5591    0.0320 C   0  0  0  0  0  0  0  0  0  0  0  0
   -0.1646    6.0513   -0.9271 O   0  0  0  0  0  0  0  0  0  0  0  0
   -0.2573    5.3007   -2.0669 C   0  0  0  0  0  0  0  0  0  0  0  0
   -0.5670    3.8154   -1.7342 C   0  0  0  0  0  0  0  0  0  0  0  0
   -0.5846    0.3893   -1.6359 C   0  0  0  0  0  0  0  0  0  0  0  0
   -1.6187   -0.7638   -1.6579 C   0  0  0  0  0  0  0  0  0  0  0  0
   -5.1114   -4.4890    1.6892 H   0  0  0  0  0  0  0  0  0  0  0  0
   -5.4917   -3.7504    0.0790 H   0  0  0  0  0  0  0  0  0  0  0  0
   -3.8078   -3.8814    0.6672 H   0  0  0  0  0  0  0  0  0  0  0  0
   -4.9025   -2.3559    2.7382 H   0  0  0  0  0  0  0  0  0  0  0  0
   -5.9915   -1.8478    1.3811 H   0  0  0  0  0  0  0  0  0  0  0  0
   -2.9743   -1.8371    1.3784 H   0  0  0  0  0  0  0  0  0  0  0  0
   -4.1476   -0.4127    1.5941 H   0  0  0  0  0  0  0  0  0  0  0  0
   -3.9689    1.4177   -0.5840 H   0  0  0  0  0  0  0  0  0  0  0  0
   -2.6699    1.7638   -1.8071 H   0  0  0  0  0  0  0  0  0  0  0  0
   -1.8884    2.4532    0.4612 H   0  0  0  0  0  0  0  0  0  0  0  0
   -2.1772    0.7990    1.0971 H   0  0  0  0  0  0  0  0  0  0  0  0
   -0.8641   -0.9000    0.7367 H   0  0  0  0  0  0  0  0  0  0  0  0
   -0.1495    0.3874    1.7432 H   0  0  0  0  0  0  0  0  0  0  0  0
    1.7258   -0.1301   -0.3524 H   0  0  0  0  0  0  0  0  0  0  0  0
    2.8237   -3.4567    2.6807 H   0  0  0  0  0  0  0  0  0  0  0  0
    5.0489   -4.5075    2.5011 H   0  0  0  0  0  0  0  0  0  0  0  0
    5.9774   -1.9221   -0.7608 H   0  0  0  0  0  0  0  0  0  0  0  0
    1.9630    4.6554   -1.3942 H   0  0  0  0  0  0  0  0  0  0  0  0
    2.1149    3.9338    0.2732 H   0  0  0  0  0  0  0  0  0  0  0  0
    0.0598    5.2094    0.8856 H   0  0  0  0  0  0  0  0  0  0  0  0
    1.3712    6.3155    0.4543 H   0  0  0  0  0  0  0  0  0  0  0  0
    0.6122    5.3645   -2.7453 H   0  0  0  0  0  0  0  0  0  0  0  0
   -1.1339    5.6429   -2.6530 H   0  0  0  0  0  0  0  0  0  0  0  0
   -0.3615    3.3215   -2.7103 H   0  0  0  0  0  0  0  0  0  0  0  0
   -1.6075    3.8280   -1.4261 H   0  0  0  0  0  0  0  0  0  0  0  0
   -0.8948    1.0595   -2.4281 H   0  0  0  0  0  0  0  0  0  0  0  0
    0.3730   -0.0849   -1.9245 H   0  0  0  0  0  0  0  0  0  0  0  0
   -1.6360   -1.0693   -2.7460 H   0  0  0  0  0  0  0  0  0  0  0  0
   -1.2784   -1.6376   -1.1086 H   0  0  0  0  0  0  0  0  0  0  0  0
  1  2  1  0
  2  3  1  0
  3  4  1  0
  4  5  2  0
  4  6  2  0
  4  7  1  0
  7  8  1  0
  8  9  1  0
  9 10  1  0
 10 11  1  0
 11 12  1  0
 12 13  1  0
 13 14  2  0
 13 15  1  0
 15 16  2  0
 16 17  1  0
 17 18  2  0
 18 19  1  0
 19 20  1  0
 19 21  1  0
 19 22  1  0
 18 23  1  0
 23 24  2  0
 24 25  1  0
 10 26  1  0
 26 27  2  0
 26 28  1  0
 28 29  1  0
 29 30  1  0
 30 31  1  0
 31 32  1  0
 32 33  1  0
 10 34  1  0
 34 35  1  0
 35  7  1  0
 24 15  1  0
 33 28  1  0
  1 36  1  0
  1 37  1  0
  1 38  1  0
  2 39  1  0
  2 40  1  0
  3 41  1  0
  3 42  1  0
  8 43  1  0
  8 44  1  0
  9 45  1  0
  9 46  1  0
 11 47  1  0
 11 48  1  0
 12 49  1  0
 16 50  1  0
 17 51  1  0
 23 52  1  0
 29 53  1  0
 29 54  1  0
 30 55  1  0
 30 56  1  0
 32 57  1  0
 32 58  1  0
 33 59  1  0
 33 60  1  0
 34 61  1  0
 34 62  1  0
 35 63  1  0
 35 64  1  0
M  END
$$$$
