@<TRIPOS>MOLECULE
*****
 45 45 0 0 0
SMALL
GASTEIGER

@<TRIPOS>ATOM
      1 N          -1.9685   -0.0396    1.8947 N.3     1  UNL1       -0.3199
      2 C          -0.9314   -0.8524    1.3447 C.3     1  UNL1        0.0824
      3 C          -1.1940   -1.4083   -0.0147 C.3     1  UNL1       -0.0264
      4 C          -1.4213   -0.4016   -1.0905 C.3     1  UNL1       -0.0204
      5 C          -2.5822    0.5144   -0.8799 C.3     1  UNL1        0.0649
      6 N          -3.8423   -0.1691   -0.7721 N.pl3   1  UNL1       -0.2715
      7 C          -5.0690    0.5227   -0.5695 C.cat   1  UNL1        0.4399
      8 N          -5.1344    1.7763   -0.7658 N.pl3   1  UNL1       -0.1250
      9 N          -6.2438   -0.1585   -0.1468 N.pl3   1  UNL1        0.0247
     10 N          -7.3140    0.4819    0.4857 N.pl3   1  UNL1        0.2321
     11 O          -8.4554    0.4523   -0.2831 O.co2   1  UNL1       -0.5417
     12 O          -7.4105    1.0481    1.5730 O.2     1  UNL1        0.0837
     13 C           0.2888    0.0004    1.2595 C.2     1  UNL1        0.2301
     14 O           0.4357    1.2152    1.5945 O.2     1  UNL1       -0.2741
     15 N           1.4800   -0.5770    0.7387 N.am    1  UNL1       -0.3099
     16 C           2.7768    0.0261    0.5540 C.3     1  UNL1        0.0375
     17 C           3.7946   -0.7375    1.3797 C.3     1  UNL1        0.0151
     18 N           5.0415   -0.2588    0.7718 N.3     1  UNL1       -0.3038
     19 C           4.7840   -0.3584   -0.6510 C.3     1  UNL1        0.0863
     20 C           3.3100   -0.1710   -0.8439 C.3     1  UNL1       -0.0093
     21 C           5.5503    0.6998   -1.3616 C.2     1  UNL1        0.2276
     22 N           6.4222    1.6974   -0.8319 N.am    1  UNL1       -0.3280
     23 O           5.3862    0.6886   -2.6069 O.2     1  UNL1       -0.2743
     24 H          -2.7404   -0.5575    2.3684 H       1  UNL1        0.1189
     25 H          -1.6316    0.6838    2.5416 H       1  UNL1        0.1189
     26 H          -0.6685   -1.7107    2.0004 H       1  UNL1        0.0554
     27 H          -2.0039   -2.1952   -0.0035 H       1  UNL1        0.0286
     28 H          -0.2837   -1.9836   -0.3027 H       1  UNL1        0.0286
     29 H          -1.5805   -0.9681   -2.0341 H       1  UNL1        0.0296
     30 H          -0.5049    0.1830   -1.2158 H       1  UNL1        0.0296
     31 H          -2.6433    1.1441   -1.8162 H       1  UNL1        0.0655
     32 H          -2.3561    1.2239   -0.0812 H       1  UNL1        0.0655
     33 H          -3.8969   -1.2187   -0.8408 H       1  UNL1        0.2580
     34 H          -4.3570    2.3909   -1.0734 H       1  UNL1        0.3064
     35 H          -6.3108   -1.1966   -0.3190 H       1  UNL1        0.3477
     36 H           1.5810   -1.5551    0.4061 H       1  UNL1        0.1491
     37 H           2.7888    1.0890    0.8800 H       1  UNL1        0.0511
     38 H           3.7457   -0.4670    2.4488 H       1  UNL1        0.0442
     39 H           3.6503   -1.8040    1.1920 H       1  UNL1        0.0442
     40 H           5.0842    0.7661    0.9879 H       1  UNL1        0.1227
     41 H           5.0626   -1.3775   -1.0047 H       1  UNL1        0.0557
     42 H           2.8340   -1.1116   -1.2235 H       1  UNL1        0.0303
     43 H           3.0601    0.6936   -1.4903 H       1  UNL1        0.0303
     44 H           6.3527    2.6957   -1.1070 H       1  UNL1        0.1450
     45 H           7.1150    1.2847   -0.1506 H       1  UNL1        0.1450
@<TRIPOS>UNITY_ATOM_ATTR
10 1
charge 1
11 1
charge -1
@<TRIPOS>BOND
     1     1     2    1
     2     2     3    1
     3     3     4    1
     4     4     5    1
     5     5     6    1
     6     6     7    1
     7     7     8    2
     8     7     9    1
     9     9    10    1
    10    10    11    1
    11    10    12    2
    12     2    13    1
    13    13    14    2
    14    13    15   am
    15    15    16    1
    16    16    17    1
    17    17    18    1
    18    18    19    1
    19    19    20    1
    20    19    21    1
    21    21    22   am
    22    21    23    2
    23    20    16    1
    24     1    24    1
    25     1    25    1
    26     2    26    1
    27     3    27    1
    28     3    28    1
    29     4    29    1
    30     4    30    1
    31     5    31    1
    32     5    32    1
    33     6    33    1
    34     8    34    1
    35     9    35    1
    36    15    36    1
    37    16    37    1
    38    17    38    1
    39    17    39    1
    40    18    40    1
    41    19    41    1
    42    20    42    1
    43    20    43    1
    44    22    44    1
    45    22    45    1
