@<TRIPOS>MOLECULE
*****
 59 63 0 0 0
SMALL
GASTEIGER

@<TRIPOS>ATOM
      1 F          -0.8829   -1.9298   -3.8538 F       1  UNL1       -0.2054
      2 C          -0.0441   -1.2938   -3.0053 C.ar    1  UNL1        0.1272
      3 C           0.9458   -0.5108   -3.5372 C.ar    1  UNL1        0.0155
      4 C           1.8531    0.1800   -2.7152 C.ar    1  UNL1        0.1304
      5 O           2.8378    0.9487   -3.2339 O.3     1  UNL1       -0.4279
      6 C           2.9281    2.2499   -3.6369 C.3     1  UNL1        0.4625
      7 F           4.2138    2.5511   -4.0959 F       1  UNL1       -0.1583
      8 F           2.1157    2.3911   -4.7692 F       1  UNL1       -0.1583
      9 C           2.5266    3.3259   -2.6931 C.3     1  UNL1        0.3402
     10 F           2.7343    4.5443   -3.3719 F       1  UNL1       -0.1984
     11 F           3.2593    3.4097   -1.5431 F       1  UNL1       -0.1984
     12 C           1.6852    0.0223   -1.3558 C.ar    1  UNL1       -0.0139
     13 C           0.7089   -0.7530   -0.7696 C.ar    1  UNL1       -0.0118
     14 C           0.6228   -0.9249    0.6677 C.3     1  UNL1        0.1060
     15 C           1.2899   -2.2015    1.1500 C.3     1  UNL1        0.0035
     16 C           0.6739   -3.4000    0.5290 C.ar    1  UNL1       -0.0446
     17 C          -0.3922   -4.0870    1.0704 C.ar    1  UNL1       -0.0585
     18 C          -0.9302   -5.2020    0.4540 C.ar    1  UNL1       -0.0615
     19 C          -0.4333   -5.6818   -0.7243 C.ar    1  UNL1       -0.0617
     20 C           0.6340   -5.0201   -1.2961 C.ar    1  UNL1       -0.0615
     21 C           1.1678   -3.9106   -0.6809 C.ar    1  UNL1       -0.0585
     22 N           1.2063    0.2319    1.3404 N.pl3   1  UNL1       -0.2997
     23 C           0.4489    1.4436    1.3600 C.ar    1  UNL1        0.1949
     24 N          -0.4558    1.7804    2.3373 N.ar    1  UNL1       -0.2146
     25 C          -1.0063    2.9763    2.1099 C.ar    1  UNL1        0.0909
     26 C          -1.9528    3.7143    2.8122 C.ar    1  UNL1       -0.0315
     27 C          -2.3278    4.9384    2.3180 C.ar    1  UNL1       -0.0243
     28 C          -1.7804    5.4326    1.1482 C.ar    1  UNL1        0.1255
     29 F          -2.1494    6.6406    0.6588 F       1  UNL1       -0.2054
     30 C          -0.8368    4.6614    0.4774 C.ar    1  UNL1       -0.0010
     31 C          -0.4422    3.4364    0.9452 C.ar    1  UNL1        0.0702
     32 N           0.4356    2.4847    0.5157 N.ar    1  UNL1       -0.3260
     33 C          -0.7698   -0.9649    1.2174 C.ar    1  UNL1        0.0695
     34 C          -0.8554   -0.9355    2.6147 C.ar    1  UNL1       -0.0365
     35 C          -2.0628   -0.9585    3.2708 C.ar    1  UNL1       -0.0401
     36 C          -3.2098   -1.0117    2.5227 C.ar    1  UNL1        0.0590
     37 CL         -4.7474   -1.0417    3.3281 Cl      1  UNL1       -0.0820
     38 C          -3.0950   -1.0398    1.1344 C.ar    1  UNL1        0.0463
     39 N          -1.8898   -1.0156    0.5383 N.ar    1  UNL1       -0.2559
     40 C          -0.1660   -1.4181   -1.6132 C.ar    1  UNL1       -0.0206
     41 H           1.0856   -0.3801   -4.6003 H       1  UNL1        0.0683
     42 H           1.4251    3.3372   -2.5000 H       1  UNL1        0.1124
     43 H           2.3610    0.5386   -0.6863 H       1  UNL1        0.0658
     44 H           2.3857   -2.1703    1.0192 H       1  UNL1        0.0341
     45 H           1.0976   -2.2663    2.2379 H       1  UNL1        0.0341
     46 H          -0.8162   -3.7448    2.0034 H       1  UNL1        0.0620
     47 H          -1.7768   -5.7185    0.9168 H       1  UNL1        0.0618
     48 H          -0.8768   -6.5521   -1.1762 H       1  UNL1        0.0618
     49 H           1.0421   -5.3923   -2.2383 H       1  UNL1        0.0618
     50 H           1.9870   -3.4184   -1.1386 H       1  UNL1        0.0620
     51 H           2.1491    0.1775    1.7943 H       1  UNL1        0.1501
     52 H          -2.4069    3.3711    3.7272 H       1  UNL1        0.0640
     53 H          -3.0724    5.5156    2.8733 H       1  UNL1        0.0647
     54 H          -0.4055    5.0344   -0.4304 H       1  UNL1        0.0667
     55 H           1.0136    2.5686   -0.3453 H       1  UNL1        0.1686
     56 H           0.0247   -0.8895    3.2347 H       1  UNL1        0.0637
     57 H          -2.0943   -0.9345    4.3664 H       1  UNL1        0.0633
     58 H          -4.0197   -1.0818    0.5797 H       1  UNL1        0.0844
     59 H          -0.9604   -2.0570   -1.2624 H       1  UNL1        0.0650
@<TRIPOS>BOND
     1     1     2    1
     2     2     3   ar
     3     3     4   ar
     4     4     5    1
     5     5     6    1
     6     6     7    1
     7     6     8    1
     8     6     9    1
     9     9    10    1
    10     9    11    1
    11     4    12   ar
    12    12    13   ar
    13    13    14    1
    14    14    15    1
    15    15    16    1
    16    16    17   ar
    17    17    18   ar
    18    18    19   ar
    19    19    20   ar
    20    20    21   ar
    21    14    22    1
    22    22    23    1
    23    23    24   ar
    24    24    25   ar
    25    25    26   ar
    26    26    27   ar
    27    27    28   ar
    28    28    29    1
    29    28    30   ar
    30    30    31   ar
    31    31    32   ar
    32    14    33    1
    33    33    34   ar
    34    34    35   ar
    35    35    36   ar
    36    36    37    1
    37    36    38   ar
    38    38    39   ar
    39    13    40   ar
    40    40     2   ar
    41    21    16   ar
    42    32    23   ar
    43    39    33   ar
    44    31    25   ar
    45     3    41    1
    46     9    42    1
    47    12    43    1
    48    15    44    1
    49    15    45    1
    50    17    46    1
    51    18    47    1
    52    19    48    1
    53    20    49    1
    54    21    50    1
    55    22    51    1
    56    26    52    1
    57    27    53    1
    58    30    54    1
    59    32    55    1
    60    34    56    1
    61    35    57    1
    62    38    58    1
    63    40    59    1
