
     RDKit          3D

138145  0  0  0  0  0  0  0  0999 V2000
   10.9350    3.2785    1.5931 C   0  0  0  0  0  0  0  0  0  0  0  0
   10.6768    2.3024    0.4845 C   0  0  0  0  0  0  0  0  0  0  0  0
   11.5143    2.3240   -0.5430 C   0  0  0  0  0  0  0  0  0  0  0  0
   11.6794    1.1724   -1.4851 C   0  0  1  0  0  0  0  0  0  0  0  0
   12.8274    0.3469   -1.0005 C   0  0  0  0  0  0  0  0  0  0  0  0
   12.4436   -0.2710    0.2961 C   0  0  0  0  0  0  0  0  0  0  0  0
   13.4640   -0.7129    1.0734 N   0  0  0  0  0  0  0  0  0  0  0  0
   13.2685   -1.2931    2.2621 C   0  0  0  0  0  0  0  0  0  0  0  0
   14.2605   -1.6930    2.9620 O   0  0  0  0  0  0  0  0  0  0  0  0
   11.9733   -1.4459    2.7103 C   0  0  0  0  0  0  0  0  0  0  0  0
   10.9056   -1.0002    1.9299 C   0  0  0  0  0  0  0  0  0  0  0  0
   11.1323   -0.4060    0.7099 C   0  0  0  0  0  0  0  0  0  0  0  0
    9.9659    0.0560   -0.0824 C   0  0  1  0  0  0  0  0  0  0  0  0
    9.5033    1.3461    0.5608 C   0  0  0  0  0  0  0  0  0  0  0  0
   10.3911    0.4323   -1.5004 C   0  0  2  0  0  0  0  0  0  0  0  0
   10.4231   -0.7434   -2.4078 C   0  0  0  0  0  0  0  0  0  0  0  0
   10.4264   -2.0821   -1.7586 C   0  0  0  0  0  0  0  0  0  0  0  0
    9.2673   -2.2043   -0.8052 C   0  0  0  0  0  0  0  0  0  0  0  0
    8.9711   -0.9690   -0.1170 N   0  0  0  0  0  0  0  0  0  0  0  0
    7.6604   -0.8626    0.4688 C   0  0  0  0  0  0  0  0  0  0  0  0
    7.3519    0.1973    1.0953 O   0  0  0  0  0  0  0  0  0  0  0  0
    6.6714   -1.9370    0.3779 C   0  0  0  0  0  0  0  0  0  0  0  0
    5.4788   -1.7883   -0.4630 C   0  0  0  0  0  0  0  0  0  0  0  0
    4.6216   -0.6780   -0.2145 N   0  0  0  0  0  0  0  0  0  0  0  0
    5.1552    0.5631   -0.7185 C   0  0  0  0  0  0  0  0  0  0  0  0
    3.2609   -0.9382   -0.4672 C   0  0  0  0  0  0  0  0  0  0  0  0
    2.1969   -0.0062   -0.0872 C   0  0  0  0  0  0  0  0  0  0  0  0
    2.1686    1.3669   -0.6246 C   0  0  0  0  0  0  0  0  0  0  0  0
    0.9318    2.0924   -0.0683 C   0  0  0  0  0  0  0  0  0  0  0  0
   -0.3582    1.4442   -0.4306 C   0  0  0  0  0  0  0  0  0  0  0  0
   -1.5613    2.1894    0.1033 C   0  0  0  0  0  0  0  0  0  0  0  0
   -1.6398    2.3762    1.5519 C   0  0  0  0  0  0  0  0  0  0  0  0
   -1.6150    1.2761    2.5027 C   0  0  0  0  0  0  0  0  0  0  0  0
   -2.6292    0.2021    2.5078 C   0  0  0  0  0  0  0  0  0  0  0  0
   -2.7292   -0.6646    1.3125 C   0  0  0  0  0  0  0  0  0  0  0  0
   -3.7495   -1.7681    1.4385 C   0  0  0  0  0  0  0  0  0  0  0  0
   -5.1063   -1.1880    1.6699 C   0  0  0  0  0  0  0  0  0  0  0  0
   -6.1670   -2.1930    1.7318 N   0  0  0  0  0  0  0  0  0  0  0  0
   -5.9966   -2.9888    2.9475 C   0  0  0  0  0  0  0  0  0  0  0  0
   -6.1270   -3.0469    0.5558 C   0  0  0  0  0  0  0  0  0  0  0  0
   -6.4677   -2.1956   -0.6525 C   0  0  0  0  0  0  0  0  0  0  0  0
   -7.8319   -1.6467   -0.4677 C   0  0  0  0  0  0  0  0  0  0  0  0
   -8.5795   -2.3268    0.3029 O   0  0  0  0  0  0  0  0  0  0  0  0
   -8.2654   -0.4660   -1.1040 N   0  0  0  0  0  0  0  0  0  0  0  0
   -7.3615    0.3010   -1.9158 C   0  0  0  0  0  0  0  0  0  0  0  0
   -7.5329    1.8003   -1.7823 C   0  0  0  0  0  0  0  0  0  0  0  0
   -8.9735    2.2351   -1.6655 C   0  0  0  0  0  0  0  0  0  0  0  0
   -9.8349    1.0860   -2.0383 C   0  0  2  0  0  0  0  0  0  0  0  0
  -11.2842    1.4364   -2.1002 C   0  0  1  0  0  0  0  0  0  0  0  0
  -11.9817    0.2102   -2.7101 C   0  0  0  0  0  0  0  0  0  0  0  0
  -11.4056   -0.9497   -2.4601 C   0  0  0  0  0  0  0  0  0  0  0  0
  -11.5692   -2.0973   -3.4316 C   0  0  0  0  0  0  0  0  0  0  0  0
  -10.6137   -1.1112   -1.2346 C   0  0  0  0  0  0  0  0  0  0  0  0
   -9.6329   -0.0206   -0.9788 C   0  0  1  0  0  0  0  0  0  0  0  0
   -9.8900    0.7336    0.3004 C   0  0  0  0  0  0  0  0  0  0  0  0
   -9.0422    0.6409    1.3567 C   0  0  0  0  0  0  0  0  0  0  0  0
   -9.3299    1.3613    2.5251 C   0  0  0  0  0  0  0  0  0  0  0  0
  -10.4646    2.1416    2.5631 C   0  0  0  0  0  0  0  0  0  0  0  0
  -10.7470    2.7911    3.5816 O   0  0  0  0  0  0  0  0  0  0  0  0
  -11.2766    2.1997    1.4807 N   0  0  0  0  0  0  0  0  0  0  0  0
  -11.0319    1.5238    0.3452 C   0  0  0  0  0  0  0  0  0  0  0  0
  -11.9619    1.6731   -0.8111 C   0  0  0  0  0  0  0  0  0  0  0  0
   10.3893    4.2137    1.3532 H   0  0  0  0  0  0  0  0  0  0  0  0
   10.4809    2.8132    2.5184 H   0  0  0  0  0  0  0  0  0  0  0  0
   11.9969    3.4277    1.8018 H   0  0  0  0  0  0  0  0  0  0  0  0
   12.1282    3.2021   -0.7466 H   0  0  0  0  0  0  0  0  0  0  0  0
   11.9024    1.5150   -2.5152 H   0  0  0  0  0  0  0  0  0  0  0  0
   13.7294    0.9680   -0.9271 H   0  0  0  0  0  0  0  0  0  0  0  0
   13.0728   -0.4953   -1.6857 H   0  0  0  0  0  0  0  0  0  0  0  0
   14.4606   -0.6013    0.7436 H   0  0  0  0  0  0  0  0  0  0  0  0
   11.7994   -1.9143    3.6709 H   0  0  0  0  0  0  0  0  0  0  0  0
    9.9234   -1.1613    2.3627 H   0  0  0  0  0  0  0  0  0  0  0  0
    8.6596    1.7355   -0.0297 H   0  0  0  0  0  0  0  0  0  0  0  0
    9.2930    1.2633    1.6373 H   0  0  0  0  0  0  0  0  0  0  0  0
    9.6037    1.1691   -1.8442 H   0  0  0  0  0  0  0  0  0  0  0  0
    9.5070   -0.7155   -3.0688 H   0  0  0  0  0  0  0  0  0  0  0  0
   11.2687   -0.7194   -3.1388 H   0  0  0  0  0  0  0  0  0  0  0  0
   10.2024   -2.8257   -2.5914 H   0  0  0  0  0  0  0  0  0  0  0  0
   11.3879   -2.3843   -1.2915 H   0  0  0  0  0  0  0  0  0  0  0  0
    9.5266   -3.0217   -0.0980 H   0  0  0  0  0  0  0  0  0  0  0  0
    8.3532   -2.4279   -1.4152 H   0  0  0  0  0  0  0  0  0  0  0  0
    6.3124   -2.1713    1.4553 H   0  0  0  0  0  0  0  0  0  0  0  0
    7.1895   -2.9330    0.1438 H   0  0  0  0  0  0  0  0  0  0  0  0
    5.7660   -1.8686   -1.5487 H   0  0  0  0  0  0  0  0  0  0  0  0
    4.8431   -2.7191   -0.2860 H   0  0  0  0  0  0  0  0  0  0  0  0
    5.2755    1.3473   -0.0111 H   0  0  0  0  0  0  0  0  0  0  0  0
    4.5871    0.8746   -1.6647 H   0  0  0  0  0  0  0  0  0  0  0  0
    6.1655    0.3143   -1.1740 H   0  0  0  0  0  0  0  0  0  0  0  0
    3.0246   -1.9228    0.0538 H   0  0  0  0  0  0  0  0  0  0  0  0
    3.1437   -1.2173   -1.5600 H   0  0  0  0  0  0  0  0  0  0  0  0
    1.2309   -0.5033   -0.4589 H   0  0  0  0  0  0  0  0  0  0  0  0
    1.9995   -0.0225    1.0393 H   0  0  0  0  0  0  0  0  0  0  0  0
    3.0689    1.9780   -0.3579 H   0  0  0  0  0  0  0  0  0  0  0  0
    2.0819    1.4248   -1.7288 H   0  0  0  0  0  0  0  0  0  0  0  0
    1.0163    2.2018    1.0351 H   0  0  0  0  0  0  0  0  0  0  0  0
    1.0188    3.1347   -0.4754 H   0  0  0  0  0  0  0  0  0  0  0  0
   -0.4312    0.3673   -0.2786 H   0  0  0  0  0  0  0  0  0  0  0  0
   -0.4493    1.5673   -1.5589 H   0  0  0  0  0  0  0  0  0  0  0  0
   -1.3855    3.2590   -0.3249 H   0  0  0  0  0  0  0  0  0  0  0  0
   -2.4481    1.8802   -0.4496 H   0  0  0  0  0  0  0  0  0  0  0  0
   -2.6143    2.9546    1.7444 H   0  0  0  0  0  0  0  0  0  0  0  0
   -0.8802    3.1776    1.8774 H   0  0  0  0  0  0  0  0  0  0  0  0
   -1.6921    1.7584    3.5464 H   0  0  0  0  0  0  0  0  0  0  0  0
   -0.6118    0.7633    2.5899 H   0  0  0  0  0  0  0  0  0  0  0  0
   -3.6337    0.5888    2.8165 H   0  0  0  0  0  0  0  0  0  0  0  0
   -2.3549   -0.4839    3.3737 H   0  0  0  0  0  0  0  0  0  0  0  0
   -1.7340   -1.0884    1.0127 H   0  0  0  0  0  0  0  0  0  0  0  0
   -3.0916   -0.0522    0.4398 H   0  0  0  0  0  0  0  0  0  0  0  0
   -3.4343   -2.4601    2.2515 H   0  0  0  0  0  0  0  0  0  0  0  0
   -3.6894   -2.3847    0.4940 H   0  0  0  0  0  0  0  0  0  0  0  0
   -5.0735   -0.7158    2.6864 H   0  0  0  0  0  0  0  0  0  0  0  0
   -5.3506   -0.4525    0.9069 H   0  0  0  0  0  0  0  0  0  0  0  0
   -5.1412   -2.5859    3.5610 H   0  0  0  0  0  0  0  0  0  0  0  0
   -5.8985   -4.0627    2.7429 H   0  0  0  0  0  0  0  0  0  0  0  0
   -6.8964   -2.8317    3.5734 H   0  0  0  0  0  0  0  0  0  0  0  0
   -6.9648   -3.7908    0.7223 H   0  0  0  0  0  0  0  0  0  0  0  0
   -5.2271   -3.6287    0.4361 H   0  0  0  0  0  0  0  0  0  0  0  0
   -6.4556   -2.8144   -1.5896 H   0  0  0  0  0  0  0  0  0  0  0  0
   -5.6650   -1.4772   -0.7696 H   0  0  0  0  0  0  0  0  0  0  0  0
   -6.3135    0.1071   -1.5872 H   0  0  0  0  0  0  0  0  0  0  0  0
   -7.3795   -0.0042   -2.9867 H   0  0  0  0  0  0  0  0  0  0  0  0
   -7.1471    2.2324   -2.7513 H   0  0  0  0  0  0  0  0  0  0  0  0
   -6.9228    2.2411   -0.9810 H   0  0  0  0  0  0  0  0  0  0  0  0
   -9.1073    2.6053   -0.6402 H   0  0  0  0  0  0  0  0  0  0  0  0
   -9.1829    3.1240   -2.3221 H   0  0  0  0  0  0  0  0  0  0  0  0
   -9.5099    0.6795   -3.0267 H   0  0  0  0  0  0  0  0  0  0  0  0
  -11.4408    2.2496   -2.8327 H   0  0  0  0  0  0  0  0  0  0  0  0
  -12.8342    0.3371   -3.2765 H   0  0  0  0  0  0  0  0  0  0  0  0
  -11.8451   -1.7173   -4.4244 H   0  0  0  0  0  0  0  0  0  0  0  0
  -10.5985   -2.6642   -3.4545 H   0  0  0  0  0  0  0  0  0  0  0  0
  -12.3365   -2.7598   -2.9838 H   0  0  0  0  0  0  0  0  0  0  0  0
  -11.2960   -1.2410   -0.3420 H   0  0  0  0  0  0  0  0  0  0  0  0
  -10.0423   -2.0816   -1.3331 H   0  0  0  0  0  0  0  0  0  0  0  0
   -8.1198    0.0380    1.3483 H   0  0  0  0  0  0  0  0  0  0  0  0
   -8.6660    1.2878    3.3519 H   0  0  0  0  0  0  0  0  0  0  0  0
  -12.1219    2.8032    1.5656 H   0  0  0  0  0  0  0  0  0  0  0  0
  -12.8328    0.9917   -0.6589 H   0  0  0  0  0  0  0  0  0  0  0  0
  -12.3580    2.7381   -0.8412 H   0  0  0  0  0  0  0  0  0  0  0  0
  1  2  1  0
  2  3  2  0
  3  4  1  0
  4  5  1  0
  5  6  1  0
  6  7  1  0
  7  8  1  0
  8  9  2  0
  8 10  1  0
 10 11  2  0
 11 12  1  0
 12 13  1  0
 13 14  1  0
 13 15  1  0
 15 16  1  0
 16 17  1  0
 17 18  1  0
 18 19  1  0
 19 20  1  0
 20 21  2  0
 20 22  1  0
 22 23  1  0
 23 24  1  0
 24 25  1  0
 24 26  1  0
 26 27  1  0
 27 28  1  0
 28 29  1  0
 29 30  1  0
 30 31  1  0
 31 32  1  0
 32 33  1  0
 33 34  1  0
 34 35  1  0
 35 36  1  0
 36 37  1  0
 37 38  1  0
 38 39  1  0
 38 40  1  0
 40 41  1  0
 41 42  1  0
 42 43  2  0
 42 44  1  0
 44 45  1  0
 45 46  1  0
 46 47  1  0
 47 48  1  0
 48 49  1  0
 49 50  1  0
 50 51  2  0
 51 52  1  0
 51 53  1  0
 53 54  1  0
 54 55  1  0
 55 56  1  0
 56 57  2  0
 57 58  1  0
 58 59  2  0
 58 60  1  0
 60 61  1  0
 61 62  1  0
 14  2  1  0
 54 44  1  1
 61 55  2  0
 15  4  1  0
 54 48  1  0
 12  6  2  0
 13 19  1  6
 62 49  1  0
  1 63  1  0
  1 64  1  0
  1 65  1  0
  3 66  1  0
  4 67  1  6
  5 68  1  0
  5 69  1  0
  7 70  1  0
 10 71  1  0
 11 72  1  0
 14 73  1  0
 14 74  1  0
 15 75  1  6
 16 76  1  0
 16 77  1  0
 17 78  1  0
 17 79  1  0
 18 80  1  0
 18 81  1  0
 22 82  1  0
 22 83  1  0
 23 84  1  0
 23 85  1  0
 25 86  1  0
 25 87  1  0
 25 88  1  0
 26 89  1  0
 26 90  1  0
 27 91  1  0
 27 92  1  0
 28 93  1  0
 28 94  1  0
 29 95  1  0
 29 96  1  0
 30 97  1  0
 30 98  1  0
 31 99  1  0
 31100  1  0
 32101  1  0
 32102  1  0
 33103  1  0
 33104  1  0
 34105  1  0
 34106  1  0
 35107  1  0
 35108  1  0
 36109  1  0
 36110  1  0
 37111  1  0
 37112  1  0
 39113  1  0
 39114  1  0
 39115  1  0
 40116  1  0
 40117  1  0
 41118  1  0
 41119  1  0
 45120  1  0
 45121  1  0
 46122  1  0
 46123  1  0
 47124  1  0
 47125  1  0
 48126  1  6
 49127  1  6
 50128  1  0
 52129  1  0
 52130  1  0
 52131  1  0
 53132  1  0
 53133  1  0
 56134  1  0
 57135  1  0
 60136  1  0
 62137  1  0
 62138  1  0
M  END
$$$$
