@<TRIPOS>MOLECULE
*****
 138 145 0 0 0
SMALL
GASTEIGER

@<TRIPOS>ATOM
      1 C          10.9350    3.2785    1.5931 C.3     1  UNL1       -0.0437
      2 C          10.6768    2.3024    0.4845 C.2     1  UNL1       -0.0739
      3 C          11.5143    2.3240   -0.5430 C.2     1  UNL1       -0.0812
      4 C          11.6794    1.1724   -1.4851 C.3     1  UNL1       -0.0122
      5 C          12.8274    0.3469   -1.0005 C.3     1  UNL1       -0.0055
      6 C          12.4436   -0.2710    0.2961 C.ar    1  UNL1        0.0248
      7 N          13.4640   -0.7129    1.0734 N.ar    1  UNL1       -0.3259
      8 C          13.2685   -1.2931    2.2621 C.ar    1  UNL1        0.2489
      9 O          14.2605   -1.6930    2.9620 O.2     1  UNL1       -0.2679
     10 C          11.9733   -1.4459    2.7103 C.ar    1  UNL1        0.0031
     11 C          10.9056   -1.0002    1.9299 C.ar    1  UNL1       -0.0498
     12 C          11.1323   -0.4060    0.7099 C.ar    1  UNL1       -0.0039
     13 C           9.9659    0.0560   -0.0824 C.3     1  UNL1        0.0710
     14 C           9.5033    1.3461    0.5608 C.3     1  UNL1       -0.0059
     15 C          10.3911    0.4323   -1.5004 C.3     1  UNL1       -0.0083
     16 C          10.4231   -0.7434   -2.4078 C.3     1  UNL1       -0.0460
     17 C          10.4264   -2.0821   -1.7586 C.3     1  UNL1       -0.0368
     18 C           9.2673   -2.2043   -0.8052 C.3     1  UNL1        0.0156
     19 N           8.9711   -0.9690   -0.1170 N.am    1  UNL1       -0.2910
     20 C           7.6604   -0.8626    0.4688 C.2     1  UNL1        0.2175
     21 O           7.3519    0.1973    1.0953 O.2     1  UNL1       -0.2755
     22 C           6.6714   -1.9370    0.3779 C.3     1  UNL1        0.0369
     23 C           5.4788   -1.7883   -0.4630 C.3     1  UNL1        0.0069
     24 N           4.6216   -0.6780   -0.2145 N.3     1  UNL1       -0.3049
     25 C           5.1552    0.5631   -0.7185 C.3     1  UNL1       -0.0127
     26 C           3.2609   -0.9382   -0.4672 C.3     1  UNL1       -0.0014
     27 C           2.1969   -0.0062   -0.0872 C.3     1  UNL1       -0.0402
     28 C           2.1686    1.3669   -0.6246 C.3     1  UNL1       -0.0519
     29 C           0.9318    2.0924   -0.0683 C.3     1  UNL1       -0.0530
     30 C          -0.3582    1.4442   -0.4306 C.3     1  UNL1       -0.0531
     31 C          -1.5613    2.1894    0.1033 C.3     1  UNL1       -0.0531
     32 C          -1.6398    2.3762    1.5519 C.3     1  UNL1       -0.0531
     33 C          -1.6150    1.2761    2.5027 C.3     1  UNL1       -0.0531
     34 C          -2.6292    0.2021    2.5078 C.3     1  UNL1       -0.0530
     35 C          -2.7292   -0.6646    1.3125 C.3     1  UNL1       -0.0519
     36 C          -3.7495   -1.7681    1.4385 C.3     1  UNL1       -0.0402
     37 C          -5.1063   -1.1880    1.6699 C.3     1  UNL1       -0.0014
     38 N          -6.1670   -2.1930    1.7318 N.3     1  UNL1       -0.3049
     39 C          -5.9966   -2.9888    2.9475 C.3     1  UNL1       -0.0127
     40 C          -6.1270   -3.0469    0.5558 C.3     1  UNL1        0.0069
     41 C          -6.4677   -2.1956   -0.6525 C.3     1  UNL1        0.0369
     42 C          -7.8319   -1.6467   -0.4677 C.2     1  UNL1        0.2175
     43 O          -8.5795   -2.3268    0.3029 O.2     1  UNL1       -0.2755
     44 N          -8.2654   -0.4660   -1.1040 N.am    1  UNL1       -0.2910
     45 C          -7.3615    0.3010   -1.9158 C.3     1  UNL1        0.0156
     46 C          -7.5329    1.8003   -1.7823 C.3     1  UNL1       -0.0368
     47 C          -8.9735    2.2351   -1.6655 C.3     1  UNL1       -0.0460
     48 C          -9.8349    1.0860   -2.0383 C.3     1  UNL1       -0.0083
     49 C         -11.2842    1.4364   -2.1002 C.3     1  UNL1       -0.0122
     50 C         -11.9817    0.2102   -2.7101 C.2     1  UNL1       -0.0812
     51 C         -11.4056   -0.9497   -2.4601 C.2     1  UNL1       -0.0739
     52 C         -11.5692   -2.0973   -3.4316 C.3     1  UNL1       -0.0437
     53 C         -10.6137   -1.1112   -1.2346 C.3     1  UNL1       -0.0059
     54 C          -9.6329   -0.0206   -0.9788 C.3     1  UNL1        0.0710
     55 C          -9.8900    0.7336    0.3004 C.ar    1  UNL1       -0.0039
     56 C          -9.0422    0.6409    1.3567 C.ar    1  UNL1       -0.0498
     57 C          -9.3299    1.3613    2.5251 C.ar    1  UNL1        0.0031
     58 C         -10.4646    2.1416    2.5631 C.ar    1  UNL1        0.2489
     59 O         -10.7470    2.7911    3.5816 O.2     1  UNL1       -0.2679
     60 N         -11.2766    2.1997    1.4807 N.ar    1  UNL1       -0.3259
     61 C         -11.0319    1.5238    0.3452 C.ar    1  UNL1        0.0248
     62 C         -11.9619    1.6731   -0.8111 C.3     1  UNL1       -0.0055
     63 H          10.3893    4.2137    1.3532 H       1  UNL1        0.0274
     64 H          10.4809    2.8132    2.5184 H       1  UNL1        0.0274
     65 H          11.9969    3.4277    1.8018 H       1  UNL1        0.0274
     66 H          12.1282    3.2021   -0.7466 H       1  UNL1        0.0575
     67 H          11.9024    1.5150   -2.5152 H       1  UNL1        0.0350
     68 H          13.7294    0.9680   -0.9271 H       1  UNL1        0.0333
     69 H          13.0728   -0.4953   -1.6857 H       1  UNL1        0.0333
     70 H          14.4606   -0.6013    0.7436 H       1  UNL1        0.1686
     71 H          11.7994   -1.9143    3.6709 H       1  UNL1        0.0672
     72 H           9.9234   -1.1613    2.3627 H       1  UNL1        0.0623
     73 H           8.6596    1.7355   -0.0297 H       1  UNL1        0.0334
     74 H           9.2930    1.2633    1.6373 H       1  UNL1        0.0334
     75 H           9.6037    1.1691   -1.8442 H       1  UNL1        0.0331
     76 H           9.5070   -0.7155   -3.0688 H       1  UNL1        0.0269
     77 H          11.2687   -0.7194   -3.1388 H       1  UNL1        0.0269
     78 H          10.2024   -2.8257   -2.5914 H       1  UNL1        0.0280
     79 H          11.3879   -2.3843   -1.2915 H       1  UNL1        0.0280
     80 H           9.5266   -3.0217   -0.0980 H       1  UNL1        0.0465
     81 H           8.3532   -2.4279   -1.4152 H       1  UNL1        0.0465
     82 H           6.3124   -2.1713    1.4553 H       1  UNL1        0.0371
     83 H           7.1895   -2.9330    0.1438 H       1  UNL1        0.0371
     84 H           5.7660   -1.8686   -1.5487 H       1  UNL1        0.0431
     85 H           4.8431   -2.7191   -0.2860 H       1  UNL1        0.0431
     86 H           5.2755    1.3473   -0.0111 H       1  UNL1        0.0391
     87 H           4.5871    0.8746   -1.6647 H       1  UNL1        0.0391
     88 H           6.1655    0.3143   -1.1740 H       1  UNL1        0.0391
     89 H           3.0246   -1.9228    0.0538 H       1  UNL1        0.0426
     90 H           3.1437   -1.2173   -1.5600 H       1  UNL1        0.0426
     91 H           1.2309   -0.5033   -0.4589 H       1  UNL1        0.0278
     92 H           1.9995   -0.0225    1.0393 H       1  UNL1        0.0278
     93 H           3.0689    1.9780   -0.3579 H       1  UNL1        0.0266
     94 H           2.0819    1.4248   -1.7288 H       1  UNL1        0.0266
     95 H           1.0163    2.2018    1.0351 H       1  UNL1        0.0265
     96 H           1.0188    3.1347   -0.4754 H       1  UNL1        0.0265
     97 H          -0.4312    0.3673   -0.2786 H       1  UNL1        0.0265
     98 H          -0.4493    1.5673   -1.5589 H       1  UNL1        0.0265
     99 H          -1.3855    3.2590   -0.3249 H       1  UNL1        0.0265
    100 H          -2.4481    1.8802   -0.4496 H       1  UNL1        0.0265
    101 H          -2.6143    2.9546    1.7444 H       1  UNL1        0.0265
    102 H          -0.8802    3.1776    1.8774 H       1  UNL1        0.0265
    103 H          -1.6921    1.7584    3.5464 H       1  UNL1        0.0265
    104 H          -0.6118    0.7633    2.5899 H       1  UNL1        0.0265
    105 H          -3.6337    0.5888    2.8165 H       1  UNL1        0.0265
    106 H          -2.3549   -0.4839    3.3737 H       1  UNL1        0.0265
    107 H          -1.7340   -1.0884    1.0127 H       1  UNL1        0.0266
    108 H          -3.0916   -0.0522    0.4398 H       1  UNL1        0.0266
    109 H          -3.4343   -2.4601    2.2515 H       1  UNL1        0.0278
    110 H          -3.6894   -2.3847    0.4940 H       1  UNL1        0.0278
    111 H          -5.0735   -0.7158    2.6864 H       1  UNL1        0.0426
    112 H          -5.3506   -0.4525    0.9069 H       1  UNL1        0.0426
    113 H          -5.1412   -2.5859    3.5610 H       1  UNL1        0.0391
    114 H          -5.8985   -4.0627    2.7429 H       1  UNL1        0.0391
    115 H          -6.8964   -2.8317    3.5734 H       1  UNL1        0.0391
    116 H          -6.9648   -3.7908    0.7223 H       1  UNL1        0.0431
    117 H          -5.2271   -3.6287    0.4361 H       1  UNL1        0.0431
    118 H          -6.4556   -2.8144   -1.5896 H       1  UNL1        0.0371
    119 H          -5.6650   -1.4772   -0.7696 H       1  UNL1        0.0371
    120 H          -6.3135    0.1071   -1.5872 H       1  UNL1        0.0465
    121 H          -7.3795   -0.0042   -2.9867 H       1  UNL1        0.0465
    122 H          -7.1471    2.2324   -2.7513 H       1  UNL1        0.0280
    123 H          -6.9228    2.2411   -0.9810 H       1  UNL1        0.0280
    124 H          -9.1073    2.6053   -0.6402 H       1  UNL1        0.0269
    125 H          -9.1829    3.1240   -2.3221 H       1  UNL1        0.0269
    126 H          -9.5099    0.6795   -3.0267 H       1  UNL1        0.0331
    127 H         -11.4408    2.2496   -2.8327 H       1  UNL1        0.0350
    128 H         -12.8342    0.3371   -3.2765 H       1  UNL1        0.0575
    129 H         -11.8451   -1.7173   -4.4244 H       1  UNL1        0.0274
    130 H         -10.5985   -2.6642   -3.4545 H       1  UNL1        0.0274
    131 H         -12.3365   -2.7598   -2.9838 H       1  UNL1        0.0274
    132 H         -11.2960   -1.2410   -0.3420 H       1  UNL1        0.0334
    133 H         -10.0423   -2.0816   -1.3331 H       1  UNL1        0.0334
    134 H          -8.1198    0.0380    1.3483 H       1  UNL1        0.0623
    135 H          -8.6660    1.2878    3.3519 H       1  UNL1        0.0672
    136 H         -12.1219    2.8032    1.5656 H       1  UNL1        0.1686
    137 H         -12.8328    0.9917   -0.6589 H       1  UNL1        0.0333
    138 H         -12.3580    2.7381   -0.8412 H       1  UNL1        0.0333
@<TRIPOS>BOND
     1     1     2    1
     2     2     3    2
     3     3     4    1
     4     4     5    1
     5     5     6    1
     6     6     7   ar
     7     7     8   ar
     8     8     9    2
     9     8    10   ar
    10    10    11   ar
    11    11    12   ar
    12    12    13    1
    13    13    14    1
    14    13    15    1
    15    15    16    1
    16    16    17    1
    17    17    18    1
    18    18    19    1
    19    19    20   am
    20    20    21    2
    21    20    22    1
    22    22    23    1
    23    23    24    1
    24    24    25    1
    25    24    26    1
    26    26    27    1
    27    27    28    1
    28    28    29    1
    29    29    30    1
    30    30    31    1
    31    31    32    1
    32    32    33    1
    33    33    34    1
    34    34    35    1
    35    35    36    1
    36    36    37    1
    37    37    38    1
    38    38    39    1
    39    38    40    1
    40    40    41    1
    41    41    42    1
    42    42    43    2
    43    42    44   am
    44    44    45    1
    45    45    46    1
    46    46    47    1
    47    47    48    1
    48    48    49    1
    49    49    50    1
    50    50    51    2
    51    51    52    1
    52    51    53    1
    53    53    54    1
    54    54    55    1
    55    55    56   ar
    56    56    57   ar
    57    57    58   ar
    58    58    59    2
    59    58    60   ar
    60    60    61   ar
    61    61    62    1
    62    14     2    1
    63    54    44    1
    64    61    55   ar
    65    15     4    1
    66    54    48    1
    67    12     6   ar
    68    13    19    1
    69    62    49    1
    70     1    63    1
    71     1    64    1
    72     1    65    1
    73     3    66    1
    74     4    67    1
    75     5    68    1
    76     5    69    1
    77     7    70    1
    78    10    71    1
    79    11    72    1
    80    14    73    1
    81    14    74    1
    82    15    75    1
    83    16    76    1
    84    16    77    1
    85    17    78    1
    86    17    79    1
    87    18    80    1
    88    18    81    1
    89    22    82    1
    90    22    83    1
    91    23    84    1
    92    23    85    1
    93    25    86    1
    94    25    87    1
    95    25    88    1
    96    26    89    1
    97    26    90    1
    98    27    91    1
    99    27    92    1
   100    28    93    1
   101    28    94    1
   102    29    95    1
   103    29    96    1
   104    30    97    1
   105    30    98    1
   106    31    99    1
   107    31   100    1
   108    32   101    1
   109    32   102    1
   110    33   103    1
   111    33   104    1
   112    34   105    1
   113    34   106    1
   114    35   107    1
   115    35   108    1
   116    36   109    1
   117    36   110    1
   118    37   111    1
   119    37   112    1
   120    39   113    1
   121    39   114    1
   122    39   115    1
   123    40   116    1
   124    40   117    1
   125    41   118    1
   126    41   119    1
   127    45   120    1
   128    45   121    1
   129    46   122    1
   130    46   123    1
   131    47   124    1
   132    47   125    1
   133    48   126    1
   134    49   127    1
   135    50   128    1
   136    52   129    1
   137    52   130    1
   138    52   131    1
   139    53   132    1
   140    53   133    1
   141    56   134    1
   142    57   135    1
   143    60   136    1
   144    62   137    1
   145    62   138    1
