@<TRIPOS>MOLECULE
*****
 64 66 0 0 0
SMALL
GASTEIGER

@<TRIPOS>ATOM
      1 C          -0.0428   -0.6597    2.0630 C.3     1  UNL1       -0.0383
      2 C          -0.3167   -0.1717    0.6572 C.3     1  UNL1        0.0930
      3 C          -0.7675   -1.3978   -0.1448 C.3     1  UNL1       -0.0383
      4 C           1.0371    0.2584    0.1479 C.2     1  UNL1        0.2331
      5 O           1.1502    1.3834   -0.3842 O.2     1  UNL1       -0.2738
      6 N           2.1658   -0.5680    0.2568 N.am    1  UNL1       -0.3109
      7 C           3.5053   -0.2133   -0.2176 C.3     1  UNL1        0.0232
      8 C           3.9415   -1.2970   -1.1342 C.3     1  UNL1       -0.0345
      9 C           5.1389   -1.0155   -1.9741 C.3     1  UNL1       -0.0502
     10 C           6.3698   -1.5020   -1.2347 C.3     1  UNL1       -0.0373
     11 C           7.2198   -0.3078   -0.8892 C.3     1  UNL1        0.0462
     12 C           7.1047    0.7294   -1.9063 C.1     1  UNL1        0.0659
     13 N           6.9947    1.5553   -2.7071 N.1     1  UNL1       -0.1963
     14 C           6.8857    0.2298    0.4843 C.3     1  UNL1       -0.0373
     15 C           5.5562    0.9346    0.5086 C.3     1  UNL1       -0.0502
     16 C           4.4357    0.0285    0.9523 C.3     1  UNL1       -0.0345
     17 N          -1.2636    0.8760    0.6307 N.3     1  UNL1       -0.2864
     18 C          -1.6773    1.3988   -0.6084 C.3     1  UNL1        0.0157
     19 C          -3.0070    0.9303   -1.1279 C.3     1  UNL1        0.0263
     20 N          -3.9876    1.1142   -0.0717 N.pl3   1  UNL1       -0.3127
     21 C          -5.3193    0.7293   -0.2122 C.ar    1  UNL1        0.1213
     22 C          -5.7639    0.1553   -1.3780 C.ar    1  UNL1       -0.0212
     23 C          -7.1040   -0.2352   -1.5204 C.ar    1  UNL1       -0.0454
     24 C          -7.9512   -0.0253   -0.4629 C.ar    1  UNL1        0.0730
     25 C          -9.4050   -0.4143   -0.5280 C.3     1  UNL1        0.4188
     26 F          -9.6226   -1.5702    0.2131 F       1  UNL1       -0.1658
     27 F          -9.7087   -0.7189   -1.8518 F       1  UNL1       -0.1658
     28 F         -10.1763    0.5863   -0.0292 F       1  UNL1       -0.1658
     29 C          -7.4896    0.5517    0.6996 C.ar    1  UNL1        0.0413
     30 N          -6.1906    0.9077    0.7825 N.ar    1  UNL1       -0.2398
     31 C          -3.4689    1.7365    1.1592 C.3     1  UNL1        0.0263
     32 C          -2.3246    0.8100    1.5905 C.3     1  UNL1        0.0157
     33 H           0.7557   -0.0848    2.5721 H       1  UNL1        0.0252
     34 H           0.3733   -1.6986    1.9607 H       1  UNL1        0.0252
     35 H          -0.9543   -0.7630    2.6775 H       1  UNL1        0.0252
     36 H          -0.2361   -2.3102    0.1302 H       1  UNL1        0.0252
     37 H          -0.7242   -1.1276   -1.2157 H       1  UNL1        0.0252
     38 H          -1.8368   -1.5407    0.1262 H       1  UNL1        0.0252
     39 H           2.0214   -1.4981    0.7139 H       1  UNL1        0.1490
     40 H           3.4282    0.7395   -0.7759 H       1  UNL1        0.0498
     41 H           4.1518   -2.2070   -0.4958 H       1  UNL1        0.0283
     42 H           3.0963   -1.6307   -1.7931 H       1  UNL1        0.0283
     43 H           5.2235    0.0028   -2.3671 H       1  UNL1        0.0266
     44 H           5.0633   -1.6709   -2.8960 H       1  UNL1        0.0266
     45 H           6.9483   -2.2606   -1.8326 H       1  UNL1        0.0278
     46 H           6.1245   -2.0294   -0.2919 H       1  UNL1        0.0278
     47 H           8.2848   -0.6643   -0.9290 H       1  UNL1        0.0454
     48 H           7.7143    0.9564    0.7434 H       1  UNL1        0.0278
     49 H           6.8981   -0.5817    1.2388 H       1  UNL1        0.0278
     50 H           5.3472    1.4250   -0.4570 H       1  UNL1        0.0266
     51 H           5.6806    1.7866    1.2418 H       1  UNL1        0.0266
     52 H           3.8383    0.6062    1.7011 H       1  UNL1        0.0283
     53 H           4.7952   -0.9224    1.3434 H       1  UNL1        0.0283
     54 H          -1.7820    2.5197   -0.4853 H       1  UNL1        0.0442
     55 H          -0.9368    1.3008   -1.4296 H       1  UNL1        0.0442
     56 H          -3.2572    1.5772   -2.0089 H       1  UNL1        0.0477
     57 H          -3.0290   -0.1350   -1.4022 H       1  UNL1        0.0477
     58 H          -5.1361   -0.0309   -2.2370 H       1  UNL1        0.0652
     59 H          -7.4595   -0.6826   -2.4273 H       1  UNL1        0.0625
     60 H          -8.1885    0.7033    1.5181 H       1  UNL1        0.0836
     61 H          -4.2451    1.7197    1.9456 H       1  UNL1        0.0477
     62 H          -3.1545    2.7673    0.9960 H       1  UNL1        0.0477
     63 H          -2.7780   -0.2115    1.6336 H       1  UNL1        0.0442
     64 H          -1.9446    1.1267    2.5841 H       1  UNL1        0.0442
@<TRIPOS>BOND
     1     1     2    1
     2     2     3    1
     3     2     4    1
     4     4     5    2
     5     4     6   am
     6     6     7    1
     7     7     8    1
     8     8     9    1
     9     9    10    1
    10    10    11    1
    11    11    12    1
    12    12    13    3
    13    11    14    1
    14    14    15    1
    15    15    16    1
    16     2    17    1
    17    17    18    1
    18    18    19    1
    19    19    20    1
    20    20    21    1
    21    21    22   ar
    22    22    23   ar
    23    23    24   ar
    24    24    25    1
    25    25    26    1
    26    25    27    1
    27    25    28    1
    28    24    29   ar
    29    29    30   ar
    30    20    31    1
    31    31    32    1
    32    16     7    1
    33    32    17    1
    34    30    21   ar
    35     1    33    1
    36     1    34    1
    37     1    35    1
    38     3    36    1
    39     3    37    1
    40     3    38    1
    41     6    39    1
    42     7    40    1
    43     8    41    1
    44     8    42    1
    45     9    43    1
    46     9    44    1
    47    10    45    1
    48    10    46    1
    49    11    47    1
    50    14    48    1
    51    14    49    1
    52    15    50    1
    53    15    51    1
    54    16    52    1
    55    16    53    1
    56    18    54    1
    57    18    55    1
    58    19    56    1
    59    19    57    1
    60    22    58    1
    61    23    59    1
    62    29    60    1
    63    31    61    1
    64    31    62    1
    65    32    63    1
    66    32    64    1
