
     RDKit          3D

 93 95  0  0  0  0  0  0  0  0999 V2000
  -11.4562    2.0766    2.0097 C   0  0  0  0  0  0  0  0  0  0  0  0
  -10.0813    2.2437    2.5852 C   0  0  0  0  0  0  0  0  0  0  0  0
   -8.9747    2.3729    1.6237 C   0  0  0  0  0  0  0  0  0  0  0  0
   -8.6723    1.2401    0.7054 C   0  0  0  0  0  0  0  0  0  0  0  0
   -9.7052    0.7903   -0.2200 C   0  0  0  0  0  0  0  0  0  0  0  0
   -9.3243   -0.2637   -1.1764 C   0  0  0  0  0  0  0  0  0  0  0  0
   -8.8105   -1.5653   -0.8718 C   0  0  0  0  0  0  0  0  0  0  0  0
   -7.5495   -2.0779   -0.4466 C   0  0  0  0  0  0  0  0  0  0  0  0
   -6.6181   -1.8995    0.6248 C   0  0  0  0  0  0  0  0  0  0  0  0
   -5.7972   -0.7097    0.8647 C   0  0  0  0  0  0  0  0  0  0  0  0
   -4.8980   -0.2840   -0.2792 C   0  0  0  0  0  0  0  0  0  0  0  0
   -3.9017   -1.3075   -0.7054 C   0  0  0  0  0  0  0  0  0  0  0  0
   -2.9696   -1.7219    0.4082 C   0  0  0  0  0  0  0  0  0  0  0  0
   -1.9506   -2.7344   -0.0506 C   0  0  0  0  0  0  0  0  0  0  0  0
   -1.0519   -2.1840   -1.1697 C   0  0  0  0  0  0  0  0  0  0  0  0
   -0.3204   -0.9894   -0.6988 C   0  0  0  0  0  0  0  0  0  0  0  0
    0.5973   -0.3188   -1.6351 C   0  0  0  0  0  0  0  0  0  0  0  0
    1.7324   -1.0554   -2.1956 C   0  0  0  0  0  0  0  0  0  0  0  0
    2.7088   -1.6034   -1.3614 N   0  0  0  0  0  0  0  0  0  0  0  0
    3.7967   -2.2376   -2.0458 C   0  0  0  0  0  0  0  0  0  0  0  0
    4.8943   -1.1723   -2.1839 C   0  0  0  0  0  0  0  0  0  0  0  0
    5.3592   -0.8996   -0.8444 N   0  0  0  0  0  0  0  0  0  0  0  0
    6.6148   -0.3098   -0.6197 C   0  0  0  0  0  0  0  0  0  0  0  0
    7.3113   -0.0075   -1.6499 O   0  0  0  0  0  0  0  0  0  0  0  0
    7.1777   -0.0209    0.6377 N   0  0  0  0  0  0  0  0  0  0  0  0
    8.4294    0.5754    0.8769 C   0  0  0  0  0  0  0  0  0  0  0  0
    8.5433    1.9482    1.0304 C   0  0  0  0  0  0  0  0  0  0  0  0
    9.7468    2.5620    1.2704 C   0  0  0  0  0  0  0  0  0  0  0  0
   10.8916    1.8102    1.3653 C   0  0  0  0  0  0  0  0  0  0  0  0
   12.2008    2.4642    1.6400 C   0  0  0  0  0  0  0  0  0  0  0  0
   12.8547    2.9598    0.4126 C   0  0  0  0  0  0  0  0  0  0  0  0
   13.7222    2.3690   -0.4349 N   0  0  0  0  0  0  0  0  0  0  0  0
   14.0395    3.2272   -1.4146 C   0  0  0  0  0  0  0  0  0  0  0  0
   14.8159    3.0353   -2.3825 O   0  0  0  0  0  0  0  0  0  0  0  0
   13.3829    4.3330   -1.1832 O   0  0  0  0  0  0  0  0  0  0  0  0
   12.6631    4.2063   -0.0962 N   0  0  0  0  0  0  0  0  0  0  0  0
   10.8161    0.4408    1.2172 C   0  0  0  0  0  0  0  0  0  0  0  0
    9.6011   -0.1578    0.9774 C   0  0  0  0  0  0  0  0  0  0  0  0
    4.5121   -1.2314    0.2563 C   0  0  0  0  0  0  0  0  0  0  0  0
    3.0258   -1.0779   -0.1138 C   0  0  0  0  0  0  0  0  0  0  0  0
  -12.2064    2.7247    2.5896 H   0  0  0  0  0  0  0  0  0  0  0  0
  -11.5801    2.4178    0.9782 H   0  0  0  0  0  0  0  0  0  0  0  0
  -11.8525    1.0481    2.2111 H   0  0  0  0  0  0  0  0  0  0  0  0
   -9.8752    1.4476    3.3567 H   0  0  0  0  0  0  0  0  0  0  0  0
  -10.1173    3.1844    3.2210 H   0  0  0  0  0  0  0  0  0  0  0  0
   -8.0239    2.5411    2.2241 H   0  0  0  0  0  0  0  0  0  0  0  0
   -9.1094    3.3335    1.0664 H   0  0  0  0  0  0  0  0  0  0  0  0
   -8.4309    0.3256    1.3461 H   0  0  0  0  0  0  0  0  0  0  0  0
   -7.7536    1.4943    0.1522 H   0  0  0  0  0  0  0  0  0  0  0  0
  -10.6107    0.4055    0.3581 H   0  0  0  0  0  0  0  0  0  0  0  0
  -10.1572    1.6303   -0.8281 H   0  0  0  0  0  0  0  0  0  0  0  0
  -10.2392   -0.3503   -1.8960 H   0  0  0  0  0  0  0  0  0  0  0  0
   -8.5674    0.2111   -1.9316 H   0  0  0  0  0  0  0  0  0  0  0  0
   -9.6599   -2.1338   -0.2152 H   0  0  0  0  0  0  0  0  0  0  0  0
   -9.0622   -2.2143   -1.8507 H   0  0  0  0  0  0  0  0  0  0  0  0
   -6.8657   -1.9914   -1.4480 H   0  0  0  0  0  0  0  0  0  0  0  0
   -7.6130   -3.2826   -0.5492 H   0  0  0  0  0  0  0  0  0  0  0  0
   -7.2379   -2.0151    1.6116 H   0  0  0  0  0  0  0  0  0  0  0  0
   -5.9563   -2.8581    0.7797 H   0  0  0  0  0  0  0  0  0  0  0  0
   -6.2795    0.1366    1.2889 H   0  0  0  0  0  0  0  0  0  0  0  0
   -5.0810   -1.0310    1.7376 H   0  0  0  0  0  0  0  0  0  0  0  0
   -4.3077    0.5947    0.1170 H   0  0  0  0  0  0  0  0  0  0  0  0
   -5.5091    0.1062   -1.0997 H   0  0  0  0  0  0  0  0  0  0  0  0
   -4.3516   -2.1744   -1.2200 H   0  0  0  0  0  0  0  0  0  0  0  0
   -3.2494   -0.8004   -1.4769 H   0  0  0  0  0  0  0  0  0  0  0  0
   -2.5745   -0.8780    0.9631 H   0  0  0  0  0  0  0  0  0  0  0  0
   -3.6192   -2.2900    1.1402 H   0  0  0  0  0  0  0  0  0  0  0  0
   -1.3117   -3.1015    0.7500 H   0  0  0  0  0  0  0  0  0  0  0  0
   -2.4903   -3.5878   -0.5034 H   0  0  0  0  0  0  0  0  0  0  0  0
   -1.6891   -1.9596   -2.0472 H   0  0  0  0  0  0  0  0  0  0  0  0
   -0.4164   -3.0391   -1.4677 H   0  0  0  0  0  0  0  0  0  0  0  0
   -1.1090   -0.2754   -0.3045 H   0  0  0  0  0  0  0  0  0  0  0  0
    0.2134   -1.2856    0.2504 H   0  0  0  0  0  0  0  0  0  0  0  0
   -0.0434    0.0128   -2.5139 H   0  0  0  0  0  0  0  0  0  0  0  0
    0.9733    0.6756   -1.2493 H   0  0  0  0  0  0  0  0  0  0  0  0
    2.2662   -0.3465   -2.9058 H   0  0  0  0  0  0  0  0  0  0  0  0
    1.3839   -1.8538   -2.9237 H   0  0  0  0  0  0  0  0  0  0  0  0
    4.1707   -3.0687   -1.4284 H   0  0  0  0  0  0  0  0  0  0  0  0
    3.5195   -2.5327   -3.0666 H   0  0  0  0  0  0  0  0  0  0  0  0
    4.4799   -0.2360   -2.5910 H   0  0  0  0  0  0  0  0  0  0  0  0
    5.7122   -1.5205   -2.8124 H   0  0  0  0  0  0  0  0  0  0  0  0
    6.6106   -0.2746    1.5019 H   0  0  0  0  0  0  0  0  0  0  0  0
    7.6390    2.5397    0.9553 H   0  0  0  0  0  0  0  0  0  0  0  0
    9.7768    3.6351    1.3821 H   0  0  0  0  0  0  0  0  0  0  0  0
   12.8900    1.7117    2.1140 H   0  0  0  0  0  0  0  0  0  0  0  0
   12.0395    3.2725    2.3870 H   0  0  0  0  0  0  0  0  0  0  0  0
   12.0510    4.9342    0.3083 H   0  0  0  0  0  0  0  0  0  0  0  0
   11.6942   -0.1942    1.2845 H   0  0  0  0  0  0  0  0  0  0  0  0
    9.5333   -1.2477    0.8578 H   0  0  0  0  0  0  0  0  0  0  0  0
    4.6698   -0.6400    1.1737 H   0  0  0  0  0  0  0  0  0  0  0  0
    4.6896   -2.2885    0.5353 H   0  0  0  0  0  0  0  0  0  0  0  0
    2.5126   -1.6952    0.6856 H   0  0  0  0  0  0  0  0  0  0  0  0
    2.7690   -0.0416    0.1030 H   0  0  0  0  0  0  0  0  0  0  0  0
  1  2  1  0
  2  3  1  0
  3  4  1  0
  4  5  1  0
  5  6  1  0
  6  7  1  0
  7  8  1  0
  8  9  1  0
  9 10  1  0
 10 11  1  0
 11 12  1  0
 12 13  1  0
 13 14  1  0
 14 15  1  0
 15 16  1  0
 16 17  1  0
 17 18  1  0
 18 19  1  0
 19 20  1  0
 20 21  1  0
 21 22  1  0
 22 23  1  0
 23 24  2  0
 23 25  1  0
 25 26  1  0
 26 27  2  0
 27 28  1  0
 28 29  2  0
 29 30  1  0
 30 31  1  0
 31 32  2  0
 32 33  1  0
 33 34  2  0
 33 35  1  0
 35 36  1  0
 29 37  1  0
 37 38  2  0
 22 39  1  0
 39 40  1  0
 40 19  1  0
 38 26  1  0
 36 31  1  0
  1 41  1  0
  1 42  1  0
  1 43  1  0
  2 44  1  0
  2 45  1  0
  3 46  1  0
  3 47  1  0
  4 48  1  0
  4 49  1  0
  5 50  1  0
  5 51  1  0
  6 52  1  0
  6 53  1  0
  7 54  1  0
  7 55  1  0
  8 56  1  0
  8 57  1  0
  9 58  1  0
  9 59  1  0
 10 60  1  0
 10 61  1  0
 11 62  1  0
 11 63  1  0
 12 64  1  0
 12 65  1  0
 13 66  1  0
 13 67  1  0
 14 68  1  0
 14 69  1  0
 15 70  1  0
 15 71  1  0
 16 72  1  0
 16 73  1  0
 17 74  1  0
 17 75  1  0
 18 76  1  0
 18 77  1  0
 20 78  1  0
 20 79  1  0
 21 80  1  0
 21 81  1  0
 25 82  1  0
 27 83  1  0
 28 84  1  0
 30 85  1  0
 30 86  1  0
 36 87  1  0
 37 88  1  0
 38 89  1  0
 39 90  1  0
 39 91  1  0
 40 92  1  0
 40 93  1  0
M  END
$$$$
