@<TRIPOS>MOLECULE
*****
 93 95 0 0 0
SMALL
GASTEIGER

@<TRIPOS>ATOM
      1 C         -11.4562    2.0766    2.0097 C.3     1  UNL1       -0.0653
      2 C         -10.0813    2.2437    2.5852 C.3     1  UNL1       -0.0559
      3 C          -8.9747    2.3729    1.6237 C.3     1  UNL1       -0.0533
      4 C          -8.6723    1.2401    0.7054 C.3     1  UNL1       -0.0531
      5 C          -9.7052    0.7903   -0.2200 C.3     1  UNL1       -0.0531
      6 C          -9.3243   -0.2637   -1.1764 C.3     1  UNL1       -0.0531
      7 C          -8.8105   -1.5653   -0.8718 C.3     1  UNL1       -0.0531
      8 C          -7.5495   -2.0779   -0.4466 C.3     1  UNL1       -0.0531
      9 C          -6.6181   -1.8995    0.6248 C.3     1  UNL1       -0.0531
     10 C          -5.7972   -0.7097    0.8647 C.3     1  UNL1       -0.0531
     11 C          -4.8980   -0.2840   -0.2792 C.3     1  UNL1       -0.0531
     12 C          -3.9017   -1.3075   -0.7054 C.3     1  UNL1       -0.0531
     13 C          -2.9696   -1.7219    0.4082 C.3     1  UNL1       -0.0531
     14 C          -1.9506   -2.7344   -0.0506 C.3     1  UNL1       -0.0531
     15 C          -1.0519   -2.1840   -1.1697 C.3     1  UNL1       -0.0530
     16 C          -0.3204   -0.9894   -0.6988 C.3     1  UNL1       -0.0519
     17 C           0.5973   -0.3188   -1.6351 C.3     1  UNL1       -0.0402
     18 C           1.7324   -1.0554   -2.1956 C.3     1  UNL1       -0.0010
     19 N           2.7088   -1.6034   -1.3614 N.3     1  UNL1       -0.2994
     20 C           3.7967   -2.2376   -2.0458 C.3     1  UNL1        0.0148
     21 C           4.8943   -1.1723   -2.1839 C.3     1  UNL1        0.0289
     22 N           5.3592   -0.8996   -0.8444 N.am    1  UNL1       -0.2829
     23 C           6.6148   -0.3098   -0.6197 C.2     1  UNL1        0.3065
     24 O           7.3113   -0.0075   -1.6499 O.2     1  UNL1       -0.2523
     25 N           7.1777   -0.0209    0.6377 N.am    1  UNL1       -0.2693
     26 C           8.4294    0.5754    0.8769 C.ar    1  UNL1        0.0348
     27 C           8.5433    1.9482    1.0304 C.ar    1  UNL1       -0.0402
     28 C           9.7468    2.5620    1.2704 C.ar    1  UNL1       -0.0564
     29 C          10.8916    1.8102    1.3653 C.ar    1  UNL1       -0.0399
     30 C          12.2008    2.4642    1.6400 C.3     1  UNL1        0.0334
     31 C          12.8547    2.9598    0.4126 C.ar    1  UNL1        0.1490
     32 N          13.7222    2.3690   -0.4349 N.ar    1  UNL1       -0.1576
     33 C          14.0395    3.2272   -1.4146 C.ar    1  UNL1        0.4604
     34 O          14.8159    3.0353   -2.3825 O.2     1  UNL1       -0.2188
     35 O          13.3829    4.3330   -1.1832 O.2     1  UNL1       -0.3204
     36 N          12.6631    4.2063   -0.0962 N.ar    1  UNL1       -0.2015
     37 C          10.8161    0.4408    1.2172 C.ar    1  UNL1       -0.0564
     38 C           9.6011   -0.1578    0.9774 C.ar    1  UNL1       -0.0402
     39 C           4.5121   -1.2314    0.2563 C.3     1  UNL1        0.0289
     40 C           3.0258   -1.0779   -0.1138 C.3     1  UNL1        0.0148
     41 H         -12.2064    2.7247    2.5896 H       1  UNL1        0.0230
     42 H         -11.5801    2.4178    0.9782 H       1  UNL1        0.0230
     43 H         -11.8525    1.0481    2.2111 H       1  UNL1        0.0230
     44 H          -9.8752    1.4476    3.3567 H       1  UNL1        0.0263
     45 H         -10.1173    3.1844    3.2210 H       1  UNL1        0.0263
     46 H          -8.0239    2.5411    2.2241 H       1  UNL1        0.0265
     47 H          -9.1094    3.3335    1.0664 H       1  UNL1        0.0265
     48 H          -8.4309    0.3256    1.3461 H       1  UNL1        0.0265
     49 H          -7.7536    1.4943    0.1522 H       1  UNL1        0.0265
     50 H         -10.6107    0.4055    0.3581 H       1  UNL1        0.0265
     51 H         -10.1572    1.6303   -0.8281 H       1  UNL1        0.0265
     52 H         -10.2392   -0.3503   -1.8960 H       1  UNL1        0.0265
     53 H          -8.5674    0.2111   -1.9316 H       1  UNL1        0.0265
     54 H          -9.6599   -2.1338   -0.2152 H       1  UNL1        0.0265
     55 H          -9.0622   -2.2143   -1.8507 H       1  UNL1        0.0265
     56 H          -6.8657   -1.9914   -1.4480 H       1  UNL1        0.0265
     57 H          -7.6130   -3.2826   -0.5492 H       1  UNL1        0.0265
     58 H          -7.2379   -2.0151    1.6116 H       1  UNL1        0.0265
     59 H          -5.9563   -2.8581    0.7797 H       1  UNL1        0.0265
     60 H          -6.2795    0.1366    1.2889 H       1  UNL1        0.0265
     61 H          -5.0810   -1.0310    1.7376 H       1  UNL1        0.0265
     62 H          -4.3077    0.5947    0.1170 H       1  UNL1        0.0265
     63 H          -5.5091    0.1062   -1.0997 H       1  UNL1        0.0265
     64 H          -4.3516   -2.1744   -1.2200 H       1  UNL1        0.0265
     65 H          -3.2494   -0.8004   -1.4769 H       1  UNL1        0.0265
     66 H          -2.5745   -0.8780    0.9631 H       1  UNL1        0.0265
     67 H          -3.6192   -2.2900    1.1402 H       1  UNL1        0.0265
     68 H          -1.3117   -3.1015    0.7500 H       1  UNL1        0.0265
     69 H          -2.4903   -3.5878   -0.5034 H       1  UNL1        0.0265
     70 H          -1.6891   -1.9596   -2.0472 H       1  UNL1        0.0265
     71 H          -0.4164   -3.0391   -1.4677 H       1  UNL1        0.0265
     72 H          -1.1090   -0.2754   -0.3045 H       1  UNL1        0.0266
     73 H           0.2134   -1.2856    0.2504 H       1  UNL1        0.0266
     74 H          -0.0434    0.0128   -2.5139 H       1  UNL1        0.0278
     75 H           0.9733    0.6756   -1.2493 H       1  UNL1        0.0278
     76 H           2.2662   -0.3465   -2.9058 H       1  UNL1        0.0426
     77 H           1.3839   -1.8538   -2.9237 H       1  UNL1        0.0426
     78 H           4.1707   -3.0687   -1.4284 H       1  UNL1        0.0442
     79 H           3.5195   -2.5327   -3.0666 H       1  UNL1        0.0442
     80 H           4.4799   -0.2360   -2.5910 H       1  UNL1        0.0478
     81 H           5.7122   -1.5205   -2.8124 H       1  UNL1        0.0478
     82 H           6.6106   -0.2746    1.5019 H       1  UNL1        0.1564
     83 H           7.6390    2.5397    0.9553 H       1  UNL1        0.0636
     84 H           9.7768    3.6351    1.3821 H       1  UNL1        0.0621
     85 H          12.8900    1.7117    2.1140 H       1  UNL1        0.0393
     86 H          12.0395    3.2725    2.3870 H       1  UNL1        0.0393
     87 H          12.0510    4.9342    0.3083 H       1  UNL1        0.2088
     88 H          11.6942   -0.1942    1.2845 H       1  UNL1        0.0621
     89 H           9.5333   -1.2477    0.8578 H       1  UNL1        0.0636
     90 H           4.6698   -0.6400    1.1737 H       1  UNL1        0.0478
     91 H           4.6896   -2.2885    0.5353 H       1  UNL1        0.0478
     92 H           2.5126   -1.6952    0.6856 H       1  UNL1        0.0442
     93 H           2.7690   -0.0416    0.1030 H       1  UNL1        0.0442
@<TRIPOS>BOND
     1     1     2    1
     2     2     3    1
     3     3     4    1
     4     4     5    1
     5     5     6    1
     6     6     7    1
     7     7     8    1
     8     8     9    1
     9     9    10    1
    10    10    11    1
    11    11    12    1
    12    12    13    1
    13    13    14    1
    14    14    15    1
    15    15    16    1
    16    16    17    1
    17    17    18    1
    18    18    19    1
    19    19    20    1
    20    20    21    1
    21    21    22    1
    22    22    23   am
    23    23    24    2
    24    23    25   am
    25    25    26    1
    26    26    27   ar
    27    27    28   ar
    28    28    29   ar
    29    29    30    1
    30    30    31    1
    31    31    32   ar
    32    32    33   ar
    33    33    34    2
    34    33    35   ar
    35    35    36   ar
    36    29    37   ar
    37    37    38   ar
    38    22    39    1
    39    39    40    1
    40    40    19    1
    41    38    26   ar
    42    36    31   ar
    43     1    41    1
    44     1    42    1
    45     1    43    1
    46     2    44    1
    47     2    45    1
    48     3    46    1
    49     3    47    1
    50     4    48    1
    51     4    49    1
    52     5    50    1
    53     5    51    1
    54     6    52    1
    55     6    53    1
    56     7    54    1
    57     7    55    1
    58     8    56    1
    59     8    57    1
    60     9    58    1
    61     9    59    1
    62    10    60    1
    63    10    61    1
    64    11    62    1
    65    11    63    1
    66    12    64    1
    67    12    65    1
    68    13    66    1
    69    13    67    1
    70    14    68    1
    71    14    69    1
    72    15    70    1
    73    15    71    1
    74    16    72    1
    75    16    73    1
    76    17    74    1
    77    17    75    1
    78    18    76    1
    79    18    77    1
    80    20    78    1
    81    20    79    1
    82    21    80    1
    83    21    81    1
    84    25    82    1
    85    27    83    1
    86    28    84    1
    87    30    85    1
    88    30    86    1
    89    36    87    1
    90    37    88    1
    91    38    89    1
    92    39    90    1
    93    39    91    1
    94    40    92    1
    95    40    93    1
