
     RDKit          3D

 30 30  0  0  0  0  0  0  0  0999 V2000
   -4.3196   -1.3485   -0.0592 C   0  0  0  0  0  0  0  0  0  0  0  0
   -4.2446   -0.0393   -0.8038 C   0  0  0  0  0  0  0  0  0  0  0  0
   -3.3170    0.8726   -0.0072 C   0  0  0  0  0  0  0  0  0  0  0  0
   -1.9658    0.1426    0.0384 C   0  0  0  0  0  0  0  0  0  0  0  0
   -1.0870    1.0022    0.7907 N   0  0  0  0  0  0  0  0  0  0  0  0
    0.1988    0.4999    0.9355 N   0  0  0  0  0  0  0  0  0  0  0  0
    1.1802    0.8166   -0.0369 C   0  0  0  0  0  0  0  0  0  0  0  0
    0.8683    1.5600   -1.0334 O   0  0  0  0  0  0  0  0  0  0  0  0
    2.5411    0.3149    0.0702 C   0  0  0  0  0  0  0  0  0  0  0  0
    3.4735    0.6549   -0.9141 C   0  0  0  0  0  0  0  0  0  0  0  0
    4.7665    0.2370   -0.9033 C   0  0  0  0  0  0  0  0  0  0  0  0
    5.1730   -0.5669    0.1404 C   0  0  0  0  0  0  0  0  0  0  0  0
    6.9720   -1.1969    0.2305 Br  0  0  0  0  0  0  0  0  0  0  0  0
    4.3184   -0.9416    1.1400 C   0  0  0  0  0  0  0  0  0  0  0  0
    2.9967   -0.4857    1.0847 C   0  0  0  0  0  0  0  0  0  0  0  0
   -5.3052   -1.8299   -0.1236 H   0  0  0  0  0  0  0  0  0  0  0  0
   -4.0679   -1.2063    1.0326 H   0  0  0  0  0  0  0  0  0  0  0  0
   -3.5280   -2.0159   -0.4671 H   0  0  0  0  0  0  0  0  0  0  0  0
   -5.2228    0.4368   -0.9266 H   0  0  0  0  0  0  0  0  0  0  0  0
   -3.7400   -0.1881   -1.7983 H   0  0  0  0  0  0  0  0  0  0  0  0
   -3.7214    0.9508    1.0053 H   0  0  0  0  0  0  0  0  0  0  0  0
   -3.2391    1.8266   -0.5313 H   0  0  0  0  0  0  0  0  0  0  0  0
   -1.5524    0.0289   -0.9824 H   0  0  0  0  0  0  0  0  0  0  0  0
   -2.0876   -0.8495    0.4726 H   0  0  0  0  0  0  0  0  0  0  0  0
   -1.1600    1.9914    0.5721 H   0  0  0  0  0  0  0  0  0  0  0  0
    0.4607   -0.0999    1.7345 H   0  0  0  0  0  0  0  0  0  0  0  0
    3.1492    1.2883   -1.7345 H   0  0  0  0  0  0  0  0  0  0  0  0
    5.4881    0.5049   -1.6724 H   0  0  0  0  0  0  0  0  0  0  0  0
    4.6354   -1.5768    1.9668 H   0  0  0  0  0  0  0  0  0  0  0  0
    2.3364   -0.7833    1.8695 H   0  0  0  0  0  0  0  0  0  0  0  0
  1  2  1  0
  2  3  1  0
  3  4  1  0
  4  5  1  0
  5  6  1  0
  6  7  1  0
  7  8  2  0
  7  9  1  0
  9 10  2  0
 10 11  1  0
 11 12  2  0
 12 13  1  0
 12 14  1  0
 14 15  2  0
 15  9  1  0
  1 16  1  0
  1 17  1  0
  1 18  1  0
  2 19  1  0
  2 20  1  0
  3 21  1  0
  3 22  1  0
  4 23  1  0
  4 24  1  0
  5 25  1  0
  6 26  1  0
 10 27  1  0
 11 28  1  0
 14 29  1  0
 15 30  1  0
M  END
$$$$
