@<TRIPOS>MOLECULE
*****
 30 30 0 0 0
SMALL
GASTEIGER

@<TRIPOS>ATOM
      1 C          -4.3196   -1.3485   -0.0592 C.3     1  UNL1       -0.0652
      2 C          -4.2446   -0.0393   -0.8038 C.3     1  UNL1       -0.0547
      3 C          -3.3170    0.8726   -0.0072 C.3     1  UNL1       -0.0391
      4 C          -1.9658    0.1426    0.0384 C.3     1  UNL1        0.0137
      5 N          -1.0870    1.0022    0.7907 N.3     1  UNL1       -0.2404
      6 N           0.1988    0.4999    0.9355 N.am    1  UNL1       -0.2469
      7 C           1.1802    0.8166   -0.0369 C.2     1  UNL1        0.2576
      8 O           0.8683    1.5600   -1.0334 O.2     1  UNL1       -0.2689
      9 C           2.5411    0.3149    0.0702 C.ar    1  UNL1        0.0380
     10 C           3.4735    0.6549   -0.9141 C.ar    1  UNL1       -0.0485
     11 C           4.7665    0.2370   -0.9033 C.ar    1  UNL1       -0.0470
     12 C           5.1730   -0.5669    0.1404 C.ar    1  UNL1        0.0179
     13 BR          6.9720   -1.1969    0.2305 Br      1  UNL1       -0.0503
     14 C           4.3184   -0.9416    1.1400 C.ar    1  UNL1       -0.0470
     15 C           2.9967   -0.4857    1.0847 C.ar    1  UNL1       -0.0485
     16 H          -5.3052   -1.8299   -0.1236 H       1  UNL1        0.0230
     17 H          -4.0679   -1.2063    1.0326 H       1  UNL1        0.0230
     18 H          -3.5280   -2.0159   -0.4671 H       1  UNL1        0.0230
     19 H          -5.2228    0.4368   -0.9266 H       1  UNL1        0.0263
     20 H          -3.7400   -0.1881   -1.7983 H       1  UNL1        0.0263
     21 H          -3.7214    0.9508    1.0053 H       1  UNL1        0.0278
     22 H          -3.2391    1.8266   -0.5313 H       1  UNL1        0.0278
     23 H          -1.5524    0.0289   -0.9824 H       1  UNL1        0.0441
     24 H          -2.0876   -0.8495    0.4726 H       1  UNL1        0.0441
     25 H          -1.1600    1.9914    0.5721 H       1  UNL1        0.1442
     26 H           0.4607   -0.0999    1.7345 H       1  UNL1        0.1693
     27 H           3.1492    1.2883   -1.7345 H       1  UNL1        0.0625
     28 H           5.4881    0.5049   -1.6724 H       1  UNL1        0.0629
     29 H           4.6354   -1.5768    1.9668 H       1  UNL1        0.0629
     30 H           2.3364   -0.7833    1.8695 H       1  UNL1        0.0625
@<TRIPOS>BOND
     1     1     2    1
     2     2     3    1
     3     3     4    1
     4     4     5    1
     5     5     6    1
     6     6     7   am
     7     7     8    2
     8     7     9    1
     9     9    10   ar
    10    10    11   ar
    11    11    12   ar
    12    12    13    1
    13    12    14   ar
    14    14    15   ar
    15    15     9   ar
    16     1    16    1
    17     1    17    1
    18     1    18    1
    19     2    19    1
    20     2    20    1
    21     3    21    1
    22     3    22    1
    23     4    23    1
    24     4    24    1
    25     5    25    1
    26     6    26    1
    27    10    27    1
    28    11    28    1
    29    14    29    1
    30    15    30    1
