@<TRIPOS>MOLECULE
*****
 69 72 0 0 0
SMALL
GASTEIGER

@<TRIPOS>ATOM
      1 C           2.5344    1.4122    1.8073 C.3     1  UNL1       -0.0230
      2 C           2.0232    1.8887    0.4641 C.3     1  UNL1        0.1304
      3 O           0.8164    1.1557    0.1942 O.3     1  UNL1       -0.4530
      4 C          -0.3169    1.1594    0.9336 C.2     1  UNL1        0.3400
      5 O          -0.3921    1.8520    1.9749 O.2     1  UNL1       -0.2449
      6 C          -1.5061    0.3613    0.5607 C.ar    1  UNL1        0.0659
      7 C          -1.5341   -0.4314   -0.5668 C.ar    1  UNL1       -0.0053
      8 C          -2.6222   -1.1750   -0.9312 C.ar    1  UNL1        0.1320
      9 O          -2.6313   -1.9767   -2.0844 O.3     1  UNL1       -0.5059
     10 C          -3.7895   -1.1661   -0.1552 C.ar    1  UNL1        0.1050
     11 C          -4.8711   -2.0563   -0.5330 C.2     1  UNL1        0.2044
     12 O          -4.5672   -3.1030   -1.2494 O.2     1  UNL1       -0.2863
     13 C          -6.2710   -1.9411   -0.2054 C.ar    1  UNL1        0.0778
     14 C          -6.9161   -3.1562    0.1270 C.ar    1  UNL1        0.1285
     15 O          -6.1471   -4.3328    0.1352 O.3     1  UNL1       -0.5060
     16 C          -8.2470   -3.2204    0.4371 C.ar    1  UNL1       -0.0194
     17 C          -8.9903   -2.0624    0.4274 C.ar    1  UNL1       -0.0575
     18 C          -8.3687   -0.8877    0.1026 C.ar    1  UNL1       -0.0468
     19 C          -7.0061   -0.7990   -0.2227 C.ar    1  UNL1        0.0731
     20 C          -6.4936    0.4537   -0.7534 C.2     1  UNL1        0.3376
     21 O          -7.2481    1.4741   -0.6048 O.2     1  UNL1       -0.2451
     22 O          -5.3030    0.6462   -1.3966 O.3     1  UNL1       -0.4771
     23 C          -3.7702   -0.3737    0.9801 C.ar    1  UNL1        0.1320
     24 O          -4.9114   -0.3442    1.7832 O.3     1  UNL1       -0.5059
     25 C          -2.6463    0.3720    1.3228 C.ar    1  UNL1       -0.0053
     26 C           1.6549    3.3196    0.4513 C.3     1  UNL1       -0.0101
     27 C           2.7473    4.3285    0.4138 C.3     1  UNL1       -0.0368
     28 C           2.9678    4.8326   -1.0243 C.3     1  UNL1       -0.0039
     29 N           2.8618    3.6575   -1.9206 N.3     1  UNL1       -0.3141
     30 C           3.6855    2.6605   -1.3098 C.3     1  UNL1        0.0181
     31 C           2.9600    1.5410   -0.6414 C.3     1  UNL1        0.0753
     32 N           4.0191    0.6195   -0.1728 N.am    1  UNL1       -0.3035
     33 C           4.1479   -0.7083   -0.5910 C.2     1  UNL1        0.2444
     34 O           3.3109   -1.1480   -1.4212 O.2     1  UNL1       -0.2702
     35 C           5.1990   -1.6189   -0.1199 C.ar    1  UNL1        0.0369
     36 C           5.2726   -2.9093   -0.5943 C.ar    1  UNL1       -0.0462
     37 C           6.2547   -3.8125   -0.1695 C.ar    1  UNL1       -0.0195
     38 C           7.1944   -3.4190    0.7575 C.ar    1  UNL1        0.1169
     39 O           8.1856   -4.3018    1.1974 O.3     1  UNL1       -0.5068
     40 C           7.1146   -2.1257    1.2280 C.ar    1  UNL1       -0.0195
     41 C           6.1387   -1.2248    0.8075 C.ar    1  UNL1       -0.0462
     42 H           3.0441    2.1854    2.3830 H       1  UNL1        0.0269
     43 H           3.2151    0.5375    1.7368 H       1  UNL1        0.0269
     44 H           1.6716    1.0523    2.4049 H       1  UNL1        0.0269
     45 H          -0.6237   -0.4424   -1.1769 H       1  UNL1        0.0662
     46 H          -2.6369   -1.4335   -2.9637 H       1  UNL1        0.2922
     47 H          -6.2449   -5.0131   -0.6286 H       1  UNL1        0.2922
     48 H          -8.7274   -4.1630    0.6903 H       1  UNL1        0.0654
     49 H         -10.0474   -2.0595    0.6687 H       1  UNL1        0.0619
     50 H          -8.9481    0.0240    0.0959 H       1  UNL1        0.0626
     51 H          -4.7942    1.5134   -1.2572 H       1  UNL1        0.2954
     52 H          -5.0406   -0.9593    2.5646 H       1  UNL1        0.2922
     53 H          -2.6704    0.9926    2.2345 H       1  UNL1        0.0662
     54 H           1.0119    3.5152   -0.4601 H       1  UNL1        0.0305
     55 H           0.9878    3.5567    1.3132 H       1  UNL1        0.0305
     56 H           3.6788    4.0738    0.9085 H       1  UNL1        0.0279
     57 H           2.3716    5.2504    0.9547 H       1  UNL1        0.0279
     58 H           2.1836    5.5334   -1.3484 H       1  UNL1        0.0424
     59 H           3.9580    5.2654   -1.1327 H       1  UNL1        0.0424
     60 H           3.2656    3.9456   -2.8360 H       1  UNL1        0.1220
     61 H           4.4771    3.1182   -0.6615 H       1  UNL1        0.0443
     62 H           4.2873    2.1764   -2.1392 H       1  UNL1        0.0443
     63 H           2.3677    1.0259   -1.4488 H       1  UNL1        0.0550
     64 H           4.6971    1.0228    0.5002 H       1  UNL1        0.1495
     65 H           4.5279   -3.2390   -1.3349 H       1  UNL1        0.0626
     66 H           6.2942   -4.8252   -0.5575 H       1  UNL1        0.0654
     67 H           9.1648   -4.0213    1.2966 H       1  UNL1        0.2921
     68 H           7.8740   -1.8401    1.9635 H       1  UNL1        0.0654
     69 H           6.1159   -0.2329    1.2018 H       1  UNL1        0.0626
@<TRIPOS>BOND
     1     1     2    1
     2     2     3    1
     3     3     4    1
     4     4     5    2
     5     4     6    1
     6     6     7   ar
     7     7     8   ar
     8     8     9    1
     9     8    10   ar
    10    10    11    1
    11    11    12    2
    12    11    13    1
    13    13    14   ar
    14    14    15    1
    15    14    16   ar
    16    16    17   ar
    17    17    18   ar
    18    18    19   ar
    19    19    20    1
    20    20    21    2
    21    20    22    1
    22    10    23   ar
    23    23    24    1
    24    23    25   ar
    25     2    26    1
    26    26    27    1
    27    27    28    1
    28    28    29    1
    29    29    30    1
    30    30    31    1
    31    31    32    1
    32    32    33   am
    33    33    34    2
    34    33    35    1
    35    35    36   ar
    36    36    37   ar
    37    37    38   ar
    38    38    39    1
    39    38    40   ar
    40    40    41   ar
    41    31     2    1
    42    41    35   ar
    43    25     6   ar
    44    19    13   ar
    45     1    42    1
    46     1    43    1
    47     1    44    1
    48     7    45    1
    49     9    46    1
    50    15    47    1
    51    16    48    1
    52    17    49    1
    53    18    50    1
    54    22    51    1
    55    24    52    1
    56    25    53    1
    57    26    54    1
    58    26    55    1
    59    27    56    1
    60    27    57    1
    61    28    58    1
    62    28    59    1
    63    29    60    1
    64    30    61    1
    65    30    62    1
    66    31    63    1
    67    32    64    1
    68    36    65    1
    69    37    66    1
    70    39    67    1
    71    40    68    1
    72    41    69    1
