
     RDKit          3D

 69 72  0  0  0  0  0  0  0  0999 V2000
    2.5344    1.4122    1.8073 C   0  0  0  0  0  0  0  0  0  0  0  0
    2.0232    1.8887    0.4641 C   0  0  1  0  0  0  0  0  0  0  0  0
    0.8164    1.1557    0.1942 O   0  0  0  0  0  0  0  0  0  0  0  0
   -0.3169    1.1594    0.9336 C   0  0  0  0  0  0  0  0  0  0  0  0
   -0.3921    1.8520    1.9749 O   0  0  0  0  0  0  0  0  0  0  0  0
   -1.5061    0.3613    0.5607 C   0  0  0  0  0  0  0  0  0  0  0  0
   -1.5341   -0.4314   -0.5668 C   0  0  0  0  0  0  0  0  0  0  0  0
   -2.6222   -1.1750   -0.9312 C   0  0  0  0  0  0  0  0  0  0  0  0
   -2.6313   -1.9767   -2.0844 O   0  0  0  0  0  0  0  0  0  0  0  0
   -3.7895   -1.1661   -0.1552 C   0  0  0  0  0  0  0  0  0  0  0  0
   -4.8711   -2.0563   -0.5330 C   0  0  0  0  0  0  0  0  0  0  0  0
   -4.5672   -3.1030   -1.2494 O   0  0  0  0  0  0  0  0  0  0  0  0
   -6.2710   -1.9411   -0.2054 C   0  0  0  0  0  0  0  0  0  0  0  0
   -6.9161   -3.1562    0.1270 C   0  0  0  0  0  0  0  0  0  0  0  0
   -6.1471   -4.3328    0.1352 O   0  0  0  0  0  0  0  0  0  0  0  0
   -8.2470   -3.2204    0.4371 C   0  0  0  0  0  0  0  0  0  0  0  0
   -8.9903   -2.0624    0.4274 C   0  0  0  0  0  0  0  0  0  0  0  0
   -8.3687   -0.8877    0.1026 C   0  0  0  0  0  0  0  0  0  0  0  0
   -7.0061   -0.7990   -0.2227 C   0  0  0  0  0  0  0  0  0  0  0  0
   -6.4936    0.4537   -0.7534 C   0  0  0  0  0  0  0  0  0  0  0  0
   -7.2481    1.4741   -0.6048 O   0  0  0  0  0  0  0  0  0  0  0  0
   -5.3030    0.6462   -1.3966 O   0  0  0  0  0  0  0  0  0  0  0  0
   -3.7702   -0.3737    0.9801 C   0  0  0  0  0  0  0  0  0  0  0  0
   -4.9114   -0.3442    1.7832 O   0  0  0  0  0  0  0  0  0  0  0  0
   -2.6463    0.3720    1.3228 C   0  0  0  0  0  0  0  0  0  0  0  0
    1.6549    3.3196    0.4513 C   0  0  0  0  0  0  0  0  0  0  0  0
    2.7473    4.3285    0.4138 C   0  0  0  0  0  0  0  0  0  0  0  0
    2.9678    4.8326   -1.0243 C   0  0  0  0  0  0  0  0  0  0  0  0
    2.8618    3.6575   -1.9206 N   0  0  0  0  0  0  0  0  0  0  0  0
    3.6855    2.6605   -1.3098 C   0  0  0  0  0  0  0  0  0  0  0  0
    2.9600    1.5410   -0.6414 C   0  0  1  0  0  0  0  0  0  0  0  0
    4.0191    0.6195   -0.1728 N   0  0  0  0  0  0  0  0  0  0  0  0
    4.1479   -0.7083   -0.5910 C   0  0  0  0  0  0  0  0  0  0  0  0
    3.3109   -1.1480   -1.4212 O   0  0  0  0  0  0  0  0  0  0  0  0
    5.1990   -1.6189   -0.1199 C   0  0  0  0  0  0  0  0  0  0  0  0
    5.2726   -2.9093   -0.5943 C   0  0  0  0  0  0  0  0  0  0  0  0
    6.2547   -3.8125   -0.1695 C   0  0  0  0  0  0  0  0  0  0  0  0
    7.1944   -3.4190    0.7575 C   0  0  0  0  0  0  0  0  0  0  0  0
    8.1856   -4.3018    1.1974 O   0  0  0  0  0  0  0  0  0  0  0  0
    7.1146   -2.1257    1.2280 C   0  0  0  0  0  0  0  0  0  0  0  0
    6.1387   -1.2248    0.8075 C   0  0  0  0  0  0  0  0  0  0  0  0
    3.0441    2.1854    2.3830 H   0  0  0  0  0  0  0  0  0  0  0  0
    3.2151    0.5375    1.7368 H   0  0  0  0  0  0  0  0  0  0  0  0
    1.6716    1.0523    2.4049 H   0  0  0  0  0  0  0  0  0  0  0  0
   -0.6237   -0.4424   -1.1769 H   0  0  0  0  0  0  0  0  0  0  0  0
   -2.6369   -1.4335   -2.9637 H   0  0  0  0  0  0  0  0  0  0  0  0
   -6.2449   -5.0131   -0.6286 H   0  0  0  0  0  0  0  0  0  0  0  0
   -8.7274   -4.1630    0.6903 H   0  0  0  0  0  0  0  0  0  0  0  0
  -10.0474   -2.0595    0.6687 H   0  0  0  0  0  0  0  0  0  0  0  0
   -8.9481    0.0240    0.0959 H   0  0  0  0  0  0  0  0  0  0  0  0
   -4.7942    1.5134   -1.2572 H   0  0  0  0  0  0  0  0  0  0  0  0
   -5.0406   -0.9593    2.5646 H   0  0  0  0  0  0  0  0  0  0  0  0
   -2.6704    0.9926    2.2345 H   0  0  0  0  0  0  0  0  0  0  0  0
    1.0119    3.5152   -0.4601 H   0  0  0  0  0  0  0  0  0  0  0  0
    0.9878    3.5567    1.3132 H   0  0  0  0  0  0  0  0  0  0  0  0
    3.6788    4.0738    0.9085 H   0  0  0  0  0  0  0  0  0  0  0  0
    2.3716    5.2504    0.9547 H   0  0  0  0  0  0  0  0  0  0  0  0
    2.1836    5.5334   -1.3484 H   0  0  0  0  0  0  0  0  0  0  0  0
    3.9580    5.2654   -1.1327 H   0  0  0  0  0  0  0  0  0  0  0  0
    3.2656    3.9456   -2.8360 H   0  0  0  0  0  0  0  0  0  0  0  0
    4.4771    3.1182   -0.6615 H   0  0  0  0  0  0  0  0  0  0  0  0
    4.2873    2.1764   -2.1392 H   0  0  0  0  0  0  0  0  0  0  0  0
    2.3677    1.0259   -1.4488 H   0  0  0  0  0  0  0  0  0  0  0  0
    4.6971    1.0228    0.5002 H   0  0  0  0  0  0  0  0  0  0  0  0
    4.5279   -3.2390   -1.3349 H   0  0  0  0  0  0  0  0  0  0  0  0
    6.2942   -4.8252   -0.5575 H   0  0  0  0  0  0  0  0  0  0  0  0
    9.1648   -4.0213    1.2966 H   0  0  0  0  0  0  0  0  0  0  0  0
    7.8740   -1.8401    1.9635 H   0  0  0  0  0  0  0  0  0  0  0  0
    6.1159   -0.2329    1.2018 H   0  0  0  0  0  0  0  0  0  0  0  0
  1  2  1  0
  2  3  1  6
  3  4  1  0
  4  5  2  0
  4  6  1  0
  6  7  2  0
  7  8  1  0
  8  9  1  0
  8 10  2  0
 10 11  1  0
 11 12  2  0
 11 13  1  0
 13 14  2  0
 14 15  1  0
 14 16  1  0
 16 17  2  0
 17 18  1  0
 18 19  2  0
 19 20  1  0
 20 21  2  0
 20 22  1  0
 10 23  1  0
 23 24  1  0
 23 25  2  0
  2 26  1  0
 26 27  1  0
 27 28  1  0
 28 29  1  0
 29 30  1  0
 30 31  1  0
 31 32  1  0
 32 33  1  0
 33 34  2  0
 33 35  1  0
 35 36  2  0
 36 37  1  0
 37 38  2  0
 38 39  1  0
 38 40  1  0
 40 41  2  0
 31  2  1  0
 41 35  1  0
 25  6  1  0
 19 13  1  0
  1 42  1  0
  1 43  1  0
  1 44  1  0
  7 45  1  0
  9 46  1  0
 15 47  1  0
 16 48  1  0
 17 49  1  0
 18 50  1  0
 22 51  1  0
 24 52  1  0
 25 53  1  0
 26 54  1  0
 26 55  1  0
 27 56  1  0
 27 57  1  0
 28 58  1  0
 28 59  1  0
 29 60  1  0
 30 61  1  0
 30 62  1  0
 31 63  1  6
 32 64  1  0
 36 65  1  0
 37 66  1  0
 39 67  1  0
 40 68  1  0
 41 69  1  0
M  END
$$$$
