@<TRIPOS>MOLECULE
*****
 48 50 0 0 0
SMALL
GASTEIGER

@<TRIPOS>ATOM
      1 C          -1.1183   -3.5777   -1.3840 C.3     1  UNL1        0.0790
      2 O          -1.5244   -2.6004   -0.4821 O.3     1  UNL1       -0.4913
      3 C          -0.7378   -1.8227    0.3143 C.ar    1  UNL1        0.1660
      4 C           0.6576   -1.9720    0.2731 C.ar    1  UNL1       -0.0125
      5 C           1.4827   -1.2098    1.0558 C.ar    1  UNL1       -0.0358
      6 C           2.9424   -1.3628    1.0083 C.3     1  UNL1        0.0025
      7 C           3.6454   -0.3841    0.1513 C.ar    1  UNL1        0.0146
      8 C           4.2914    0.7098    0.7402 C.ar    1  UNL1        0.0379
      9 N           4.9292    1.6209   -0.0099 N.ar    1  UNL1       -0.2227
     10 C           4.9820    1.5345   -1.3505 C.ar    1  UNL1        0.2142
     11 N           5.6694    2.5234   -2.1247 N.pl3   1  UNL1       -0.3274
     12 N           4.3669    0.4903   -1.9273 N.ar    1  UNL1       -0.1999
     13 C           3.7026   -0.4674   -1.2121 C.ar    1  UNL1        0.1247
     14 N           3.0748   -1.5558   -1.8633 N.pl3   1  UNL1       -0.3428
     15 C           0.8726   -0.2772    1.8978 C.ar    1  UNL1       -0.0125
     16 C          -0.4922   -0.1306    1.9394 C.ar    1  UNL1        0.1660
     17 O          -1.0926    0.7938    2.7744 O.3     1  UNL1       -0.4913
     18 C          -0.3101    1.6228    3.6180 C.3     1  UNL1        0.0790
     19 C          -1.3130   -0.9075    1.1427 C.ar    1  UNL1        0.2111
     20 O          -2.6828   -0.7932    1.1541 O.3     1  UNL1       -0.4486
     21 C          -3.4006    0.0435    0.3312 C.ar    1  UNL1        0.1292
     22 C          -2.7547    0.8165   -0.5864 C.ar    1  UNL1       -0.0129
     23 C          -3.5134    1.6568   -1.4081 C.ar    1  UNL1        0.0191
     24 C          -4.8830    1.7033   -1.2935 C.ar    1  UNL1        0.2734
     25 N          -5.6084    2.5675   -2.1439 N.pl3   1  UNL1        0.0796
     26 O          -5.0466    3.2817   -2.9915 O.2     1  UNL1        0.0414
     27 O          -6.9871    2.6286   -2.0390 O.co2   1  UNL1       -0.5760
     28 C          -5.5156    0.9147   -0.3603 C.ar    1  UNL1        0.0191
     29 C          -4.7753    0.0893    0.4471 C.ar    1  UNL1       -0.0129
     30 H          -1.9211   -4.3121   -1.6217 H       1  UNL1        0.0660
     31 H          -0.2067   -4.1210   -1.1355 H       1  UNL1        0.0660
     32 H          -0.9168   -3.0467   -2.3610 H       1  UNL1        0.0660
     33 H           1.0662   -2.7189   -0.3960 H       1  UNL1        0.0658
     34 H           3.3799   -1.2626    2.0486 H       1  UNL1        0.0363
     35 H           3.2517   -2.3930    0.7033 H       1  UNL1        0.0363
     36 H           4.2399    0.7674    1.8228 H       1  UNL1        0.0834
     37 H           6.7109    2.5679   -2.1202 H       1  UNL1        0.1452
     38 H           5.1657    3.2202   -2.7078 H       1  UNL1        0.1452
     39 H           2.1537   -1.3870   -2.3211 H       1  UNL1        0.1437
     40 H           3.5472   -2.4833   -1.8658 H       1  UNL1        0.1437
     41 H           1.5189    0.3192    2.5105 H       1  UNL1        0.0658
     42 H          -0.9524    2.1462    4.3618 H       1  UNL1        0.0660
     43 H           0.3881    0.9593    4.1927 H       1  UNL1        0.0660
     44 H           0.2863    2.2919    2.9927 H       1  UNL1        0.0660
     45 H          -1.6702    0.7950   -0.6924 H       1  UNL1        0.0656
     46 H          -3.0001    2.2632   -2.1296 H       1  UNL1        0.0686
     47 H          -6.5969    0.9767   -0.2960 H       1  UNL1        0.0686
     48 H          -5.3049   -0.5191    1.1732 H       1  UNL1        0.0656
@<TRIPOS>UNITY_ATOM_ATTR
25 1
charge 1
27 1
charge -1
@<TRIPOS>BOND
     1     1     2    1
     2     2     3    1
     3     3     4   ar
     4     4     5   ar
     5     5     6    1
     6     6     7    1
     7     7     8   ar
     8     8     9   ar
     9     9    10   ar
    10    10    11    1
    11    10    12   ar
    12    12    13   ar
    13    13    14    1
    14     5    15   ar
    15    15    16   ar
    16    16    17    1
    17    17    18    1
    18    16    19   ar
    19    19    20    1
    20    20    21    1
    21    21    22   ar
    22    22    23   ar
    23    23    24   ar
    24    24    25    1
    25    25    26    2
    26    25    27    1
    27    24    28   ar
    28    28    29   ar
    29    19     3   ar
    30    29    21   ar
    31    13     7   ar
    32     1    30    1
    33     1    31    1
    34     1    32    1
    35     4    33    1
    36     6    34    1
    37     6    35    1
    38     8    36    1
    39    11    37    1
    40    11    38    1
    41    14    39    1
    42    14    40    1
    43    15    41    1
    44    18    42    1
    45    18    43    1
    46    18    44    1
    47    22    45    1
    48    23    46    1
    49    28    47    1
    50    29    48    1
