
     RDKit          3D

 48 50  0  0  0  0  0  0  0  0999 V2000
   -1.1183   -3.5777   -1.3840 C   0  0  0  0  0  0  0  0  0  0  0  0
   -1.5244   -2.6004   -0.4821 O   0  0  0  0  0  0  0  0  0  0  0  0
   -0.7378   -1.8227    0.3143 C   0  0  0  0  0  0  0  0  0  0  0  0
    0.6576   -1.9720    0.2731 C   0  0  0  0  0  0  0  0  0  0  0  0
    1.4827   -1.2098    1.0558 C   0  0  0  0  0  0  0  0  0  0  0  0
    2.9424   -1.3628    1.0083 C   0  0  0  0  0  0  0  0  0  0  0  0
    3.6454   -0.3841    0.1513 C   0  0  0  0  0  0  0  0  0  0  0  0
    4.2914    0.7098    0.7402 C   0  0  0  0  0  0  0  0  0  0  0  0
    4.9292    1.6209   -0.0099 N   0  0  0  0  0  0  0  0  0  0  0  0
    4.9820    1.5345   -1.3505 C   0  0  0  0  0  0  0  0  0  0  0  0
    5.6694    2.5234   -2.1247 N   0  0  0  0  0  0  0  0  0  0  0  0
    4.3669    0.4903   -1.9273 N   0  0  0  0  0  0  0  0  0  0  0  0
    3.7026   -0.4674   -1.2121 C   0  0  0  0  0  0  0  0  0  0  0  0
    3.0748   -1.5558   -1.8633 N   0  0  0  0  0  0  0  0  0  0  0  0
    0.8726   -0.2772    1.8978 C   0  0  0  0  0  0  0  0  0  0  0  0
   -0.4922   -0.1306    1.9394 C   0  0  0  0  0  0  0  0  0  0  0  0
   -1.0926    0.7938    2.7744 O   0  0  0  0  0  0  0  0  0  0  0  0
   -0.3101    1.6228    3.6180 C   0  0  0  0  0  0  0  0  0  0  0  0
   -1.3130   -0.9075    1.1427 C   0  0  0  0  0  0  0  0  0  0  0  0
   -2.6828   -0.7932    1.1541 O   0  0  0  0  0  0  0  0  0  0  0  0
   -3.4006    0.0435    0.3312 C   0  0  0  0  0  0  0  0  0  0  0  0
   -2.7547    0.8165   -0.5864 C   0  0  0  0  0  0  0  0  0  0  0  0
   -3.5134    1.6568   -1.4081 C   0  0  0  0  0  0  0  0  0  0  0  0
   -4.8830    1.7033   -1.2935 C   0  0  0  0  0  0  0  0  0  0  0  0
   -5.6084    2.5675   -2.1439 N   0  0  0  0  0  4  0  0  0  0  0  0
   -5.0466    3.2817   -2.9915 O   0  0  0  0  0  0  0  0  0  0  0  0
   -6.9871    2.6286   -2.0390 O   0  0  0  0  0  1  0  0  0  0  0  0
   -5.5156    0.9147   -0.3603 C   0  0  0  0  0  0  0  0  0  0  0  0
   -4.7753    0.0893    0.4471 C   0  0  0  0  0  0  0  0  0  0  0  0
   -1.9211   -4.3121   -1.6217 H   0  0  0  0  0  0  0  0  0  0  0  0
   -0.2067   -4.1210   -1.1355 H   0  0  0  0  0  0  0  0  0  0  0  0
   -0.9168   -3.0467   -2.3610 H   0  0  0  0  0  0  0  0  0  0  0  0
    1.0662   -2.7189   -0.3960 H   0  0  0  0  0  0  0  0  0  0  0  0
    3.3799   -1.2626    2.0486 H   0  0  0  0  0  0  0  0  0  0  0  0
    3.2517   -2.3930    0.7033 H   0  0  0  0  0  0  0  0  0  0  0  0
    4.2399    0.7674    1.8228 H   0  0  0  0  0  0  0  0  0  0  0  0
    6.7109    2.5679   -2.1202 H   0  0  0  0  0  0  0  0  0  0  0  0
    5.1657    3.2202   -2.7078 H   0  0  0  0  0  0  0  0  0  0  0  0
    2.1537   -1.3870   -2.3211 H   0  0  0  0  0  0  0  0  0  0  0  0
    3.5472   -2.4833   -1.8658 H   0  0  0  0  0  0  0  0  0  0  0  0
    1.5189    0.3192    2.5105 H   0  0  0  0  0  0  0  0  0  0  0  0
   -0.9524    2.1462    4.3618 H   0  0  0  0  0  0  0  0  0  0  0  0
    0.3881    0.9593    4.1927 H   0  0  0  0  0  0  0  0  0  0  0  0
    0.2863    2.2919    2.9927 H   0  0  0  0  0  0  0  0  0  0  0  0
   -1.6702    0.7950   -0.6924 H   0  0  0  0  0  0  0  0  0  0  0  0
   -3.0001    2.2632   -2.1296 H   0  0  0  0  0  0  0  0  0  0  0  0
   -6.5969    0.9767   -0.2960 H   0  0  0  0  0  0  0  0  0  0  0  0
   -5.3049   -0.5191    1.1732 H   0  0  0  0  0  0  0  0  0  0  0  0
  1  2  1  0
  2  3  1  0
  3  4  2  0
  4  5  1  0
  5  6  1  0
  6  7  1  0
  7  8  2  0
  8  9  1  0
  9 10  2  0
 10 11  1  0
 10 12  1  0
 12 13  2  0
 13 14  1  0
  5 15  2  0
 15 16  1  0
 16 17  1  0
 17 18  1  0
 16 19  2  0
 19 20  1  0
 20 21  1  0
 21 22  2  0
 22 23  1  0
 23 24  2  0
 24 25  1  0
 25 26  2  0
 25 27  1  0
 24 28  1  0
 28 29  2  0
 19  3  1  0
 29 21  1  0
 13  7  1  0
  1 30  1  0
  1 31  1  0
  1 32  1  0
  4 33  1  0
  6 34  1  0
  6 35  1  0
  8 36  1  0
 11 37  1  0
 11 38  1  0
 14 39  1  0
 14 40  1  0
 15 41  1  0
 18 42  1  0
 18 43  1  0
 18 44  1  0
 22 45  1  0
 23 46  1  0
 28 47  1  0
 29 48  1  0
M  CHG  2  25   1  27  -1
M  END
$$$$
