@<TRIPOS>MOLECULE
*****
 36 38 0 0 0
SMALL
GASTEIGER

@<TRIPOS>ATOM
      1 C          -4.4238   -1.5308    2.4806 C.3     1  UNL1        0.0788
      2 O          -3.3512   -1.7907    1.5758 O.3     1  UNL1       -0.4951
      3 C          -2.8322   -0.7848    0.7735 C.ar    1  UNL1        0.1206
      4 C          -1.7858   -1.1998   -0.0570 C.ar    1  UNL1       -0.0129
      5 C          -1.1335   -0.3301   -0.9385 C.ar    1  UNL1        0.0050
      6 C          -0.0246   -0.8476   -1.7919 C.3     1  UNL1        0.0342
      7 C           1.2868   -0.4098   -1.2447 C.ar    1  UNL1        0.1145
      8 N           2.0424    0.6926   -1.4763 N.ar    1  UNL1       -0.2125
      9 C           3.1609    0.6041   -0.7116 C.ar    1  UNL1        0.1856
     10 N           4.2348    1.4026   -0.5459 N.ar    1  UNL1       -0.1806
     11 C           5.2364    1.0804    0.2954 C.ar    1  UNL1        0.3128
     12 F           6.2842    1.9454    0.4012 F       1  UNL1       -0.1610
     13 N           5.2011   -0.0601    1.0074 N.ar    1  UNL1       -0.1852
     14 C           4.1493   -0.8936    0.8782 C.ar    1  UNL1        0.1480
     15 N           4.0448   -2.1167    1.5996 N.pl3   1  UNL1       -0.3413
     16 C           3.1040   -0.5731    0.0102 C.ar    1  UNL1        0.1255
     17 N           1.9430   -1.1431   -0.3575 N.ar    1  UNL1       -0.3376
     18 C          -1.5438    0.9853   -0.9839 C.ar    1  UNL1        0.1239
     19 O          -0.9298    1.8791   -1.8379 O.3     1  UNL1       -0.4948
     20 C          -1.3470    3.2380   -1.8906 C.3     1  UNL1        0.0788
     21 C          -2.5815    1.4002   -0.1612 C.ar    1  UNL1       -0.0162
     22 C          -3.2167    0.5377    0.7017 C.ar    1  UNL1       -0.0165
     23 H          -4.0804   -0.9673    3.3688 H       1  UNL1        0.0660
     24 H          -4.8324   -2.5100    2.8532 H       1  UNL1        0.0660
     25 H          -5.2375   -0.9537    1.9673 H       1  UNL1        0.0660
     26 H          -1.4226   -2.2331   -0.0579 H       1  UNL1        0.0658
     27 H          -0.1594   -0.4279   -2.8299 H       1  UNL1        0.0393
     28 H          -0.0953   -1.9309   -1.8999 H       1  UNL1        0.0393
     29 H           4.1506   -3.1539    1.4533 H       1  UNL1        0.1438
     30 H           3.7755   -1.8908    2.5901 H       1  UNL1        0.1438
     31 H           1.6783   -2.0655    0.0681 H       1  UNL1        0.1672
     32 H          -2.3050    3.3691   -2.4269 H       1  UNL1        0.0660
     33 H          -0.5775    3.8546   -2.3969 H       1  UNL1        0.0660
     34 H          -1.4367    3.6077   -0.8437 H       1  UNL1        0.0660
     35 H          -2.9467    2.4192   -0.1521 H       1  UNL1        0.0655
     36 H          -4.0286    0.7972    1.3667 H       1  UNL1        0.0655
@<TRIPOS>BOND
     1     1     2    1
     2     2     3    1
     3     3     4   ar
     4     4     5   ar
     5     5     6    1
     6     6     7    1
     7     7     8   ar
     8     8     9   ar
     9     9    10   ar
    10    10    11   ar
    11    11    12    1
    12    11    13   ar
    13    13    14   ar
    14    14    15    1
    15    14    16   ar
    16    16    17   ar
    17     5    18   ar
    18    18    19    1
    19    19    20    1
    20    18    21   ar
    21    21    22   ar
    22    22     3   ar
    23    17     7   ar
    24    16     9   ar
    25     1    23    1
    26     1    24    1
    27     1    25    1
    28     4    26    1
    29     6    27    1
    30     6    28    1
    31    15    29    1
    32    15    30    1
    33    17    31    1
    34    20    32    1
    35    20    33    1
    36    20    34    1
    37    21    35    1
    38    22    36    1
