
     RDKit          3D

 47 50  0  0  0  0  0  0  0  0999 V2000
    0.7644   -1.8454   -1.0684 O   0  0  0  0  0  0  0  0  0  0  0  0
    1.3874   -0.9322   -0.4198 C   0  0  0  0  0  0  0  0  0  0  0  0
    2.7349   -0.4944   -0.7746 C   0  0  0  0  0  0  0  0  0  0  0  0
    3.7659   -0.6913    0.3143 C   0  0  0  0  0  0  0  0  0  0  0  0
    5.1314   -0.3890   -0.2296 C   0  0  0  0  0  0  0  0  0  0  0  0
    5.1908    0.0361   -1.6507 C   0  0  0  0  0  0  0  0  0  0  0  0
    4.1308    1.0001   -2.0944 C   0  0  0  0  0  0  0  0  0  0  0  0
    2.8649    0.9247   -1.2572 C   0  0  0  0  0  0  0  0  0  0  0  0
    0.5182   -0.5060    0.6189 N   0  0  0  0  0  0  0  0  0  0  0  0
   -0.7733   -1.1990    0.6490 C   0  0  0  0  0  0  0  0  0  0  0  0
   -1.7763   -0.2261    0.0764 C   0  0  0  0  0  0  0  0  0  0  0  0
   -1.5785    1.1171    0.4993 N   0  0  0  0  0  0  0  0  0  0  0  0
   -2.5087    2.0446   -0.0856 C   0  0  0  0  0  0  0  0  0  0  0  0
   -3.9348    1.7803    0.3796 C   0  0  0  0  0  0  0  0  0  0  0  0
   -4.1170    0.3285    0.6635 C   0  0  0  0  0  0  0  0  0  0  0  0
   -5.4001   -0.0288    1.0908 C   0  0  0  0  0  0  0  0  0  0  0  0
   -5.5891   -1.3692    1.3589 C   0  0  0  0  0  0  0  0  0  0  0  0
   -4.6588   -2.3829    1.2519 C   0  0  0  0  0  0  0  0  0  0  0  0
   -3.4125   -1.9678    0.8261 C   0  0  0  0  0  0  0  0  0  0  0  0
   -3.1352   -0.6499    0.5361 C   0  0  0  0  0  0  0  0  0  0  0  0
   -0.5364    1.4274    1.4162 C   0  0  0  0  0  0  0  0  0  0  0  0
   -0.6235    2.5737    1.9738 O   0  0  0  0  0  0  0  0  0  0  0  0
    0.5800    0.4850    1.7088 C   0  0  0  0  0  0  0  0  0  0  0  0
    3.0948   -1.1312   -1.6113 H   0  0  0  0  0  0  0  0  0  0  0  0
    3.6154   -0.0459    1.1989 H   0  0  0  0  0  0  0  0  0  0  0  0
    3.6599   -1.7502    0.6394 H   0  0  0  0  0  0  0  0  0  0  0  0
    5.7348   -1.3165   -0.1321 H   0  0  0  0  0  0  0  0  0  0  0  0
    5.6796    0.3637    0.3896 H   0  0  0  0  0  0  0  0  0  0  0  0
    6.1667    0.5651   -1.8026 H   0  0  0  0  0  0  0  0  0  0  0  0
    5.2705   -0.8523   -2.3416 H   0  0  0  0  0  0  0  0  0  0  0  0
    3.8373    0.7014   -3.1311 H   0  0  0  0  0  0  0  0  0  0  0  0
    4.5104    2.0494   -2.1734 H   0  0  0  0  0  0  0  0  0  0  0  0
    2.0564    1.2883   -1.8867 H   0  0  0  0  0  0  0  0  0  0  0  0
    3.1014    1.6277   -0.4040 H   0  0  0  0  0  0  0  0  0  0  0  0
   -1.1053   -1.4278    1.6847 H   0  0  0  0  0  0  0  0  0  0  0  0
   -0.7658   -2.1501    0.1137 H   0  0  0  0  0  0  0  0  0  0  0  0
   -1.7600   -0.3472   -1.0259 H   0  0  0  0  0  0  0  0  0  0  0  0
   -2.4943    1.9956   -1.2140 H   0  0  0  0  0  0  0  0  0  0  0  0
   -2.2992    3.1109    0.1393 H   0  0  0  0  0  0  0  0  0  0  0  0
   -4.6581    2.1290   -0.3718 H   0  0  0  0  0  0  0  0  0  0  0  0
   -4.1560    2.3069    1.3269 H   0  0  0  0  0  0  0  0  0  0  0  0
   -6.2225    0.6685    1.2170 H   0  0  0  0  0  0  0  0  0  0  0  0
   -6.5904   -1.6559    1.6936 H   0  0  0  0  0  0  0  0  0  0  0  0
   -4.9288   -3.4011    1.4921 H   0  0  0  0  0  0  0  0  0  0  0  0
   -2.6308   -2.7135    0.7193 H   0  0  0  0  0  0  0  0  0  0  0  0
    1.5359    0.9538    1.8439 H   0  0  0  0  0  0  0  0  0  0  0  0
    0.3236   -0.0043    2.6754 H   0  0  0  0  0  0  0  0  0  0  0  0
  1  2  2  0
  2  3  1  0
  3  4  1  0
  4  5  1  0
  5  6  1  0
  6  7  1  0
  7  8  1  0
  2  9  1  0
  9 10  1  0
 10 11  1  0
 11 12  1  0
 12 13  1  0
 13 14  1  0
 14 15  1  0
 15 16  2  0
 16 17  1  0
 17 18  2  0
 18 19  1  0
 19 20  2  0
 12 21  1  0
 21 22  2  0
 21 23  1  0
  8  3  1  0
 23  9  1  0
 20 11  1  0
 20 15  1  0
  3 24  1  0
  4 25  1  0
  4 26  1  0
  5 27  1  0
  5 28  1  0
  6 29  1  0
  6 30  1  0
  7 31  1  0
  7 32  1  0
  8 33  1  0
  8 34  1  0
 10 35  1  0
 10 36  1  0
 11 37  1  0
 13 38  1  0
 13 39  1  0
 14 40  1  0
 14 41  1  0
 16 42  1  0
 17 43  1  0
 18 44  1  0
 19 45  1  0
 23 46  1  0
 23 47  1  0
M  END
$$$$
