
     RDKit          3D

 55 59  0  0  0  0  0  0  0  0999 V2000
    0.2211   -3.8400    0.3577 C   0  0  0  0  0  0  0  0  0  0  0  0
    1.1305   -3.0834   -0.5869 C   0  0  0  0  0  0  0  0  0  0  0  0
    2.2613   -3.9955   -1.0791 C   0  0  0  0  0  0  0  0  0  0  0  0
    1.7321   -1.9353    0.0466 N   0  0  0  0  0  0  0  0  0  0  0  0
    1.0924   -0.8254    0.1342 C   0  0  0  0  0  0  0  0  0  0  0  0
   -0.1820   -0.6272   -0.3489 C   0  0  0  0  0  0  0  0  0  0  0  0
   -0.9109    0.5310   -0.2838 C   0  0  0  0  0  0  0  0  0  0  0  0
   -2.1508    0.6635   -0.7733 N   0  0  0  0  0  0  0  0  0  0  0  0
   -2.7585   -0.4676   -1.4040 C   0  0  0  0  0  0  0  0  0  0  0  0
   -3.2306   -1.5550   -0.6819 C   0  0  0  0  0  0  0  0  0  0  0  0
   -3.8026   -2.6043   -1.3650 C   0  0  0  0  0  0  0  0  0  0  0  0
   -3.8865   -2.5388   -2.7390 C   0  0  0  0  0  0  0  0  0  0  0  0
   -4.6184   -3.8820   -3.6095 Cl  0  0  0  0  0  0  0  0  0  0  0  0
   -3.4323   -1.4834   -3.4874 C   0  0  0  0  0  0  0  0  0  0  0  0
   -2.8616   -0.4402   -2.7850 C   0  0  0  0  0  0  0  0  0  0  0  0
   -2.7530    1.8652   -0.6396 C   0  0  0  0  0  0  0  0  0  0  0  0
   -2.1234    2.9306   -0.0212 C   0  0  0  0  0  0  0  0  0  0  0  0
   -2.8440    4.1049    0.0526 C   0  0  0  0  0  0  0  0  0  0  0  0
   -4.1217    4.2180   -0.4594 C   0  0  0  0  0  0  0  0  0  0  0  0
   -4.7226    3.1437   -1.0684 C   0  0  0  0  0  0  0  0  0  0  0  0
   -4.0321    1.9333   -1.1669 C   0  0  0  0  0  0  0  0  0  0  0  0
   -0.8771    2.8455    0.4865 N   0  0  0  0  0  0  0  0  0  0  0  0
   -0.2474    1.6658    0.3718 C   0  0  0  0  0  0  0  0  0  0  0  0
    1.0258    1.4377    0.8443 C   0  0  0  0  0  0  0  0  0  0  0  0
    1.7223    0.2529    0.7572 C   0  0  0  0  0  0  0  0  0  0  0  0
    3.0252    0.0549    1.2713 N   0  0  0  0  0  0  0  0  0  0  0  0
    3.9198    0.8748    1.9978 C   0  0  0  0  0  0  0  0  0  0  0  0
    3.5594    1.7570    2.9938 C   0  0  0  0  0  0  0  0  0  0  0  0
    4.4093    2.5846    3.6938 C   0  0  0  0  0  0  0  0  0  0  0  0
    5.7440    2.5095    3.3528 C   0  0  0  0  0  0  0  0  0  0  0  0
    6.9031    3.5204    4.1833 Cl  0  0  0  0  0  0  0  0  0  0  0  0
    6.2086    1.6652    2.3770 C   0  0  0  0  0  0  0  0  0  0  0  0
    5.2874    0.8841    1.7394 C   0  0  0  0  0  0  0  0  0  0  0  0
    0.5361   -3.6820    1.4226 H   0  0  0  0  0  0  0  0  0  0  0  0
    0.3206   -4.9297    0.1764 H   0  0  0  0  0  0  0  0  0  0  0  0
   -0.8378   -3.5215    0.3063 H   0  0  0  0  0  0  0  0  0  0  0  0
    0.5559   -2.8427   -1.5008 H   0  0  0  0  0  0  0  0  0  0  0  0
    2.8043   -4.4620   -0.2402 H   0  0  0  0  0  0  0  0  0  0  0  0
    1.8261   -4.7187   -1.7917 H   0  0  0  0  0  0  0  0  0  0  0  0
    2.9450   -3.3240   -1.6572 H   0  0  0  0  0  0  0  0  0  0  0  0
   -0.7150   -1.4310   -0.8402 H   0  0  0  0  0  0  0  0  0  0  0  0
   -3.1209   -1.5166    0.3938 H   0  0  0  0  0  0  0  0  0  0  0  0
   -4.1699   -3.4543   -0.7799 H   0  0  0  0  0  0  0  0  0  0  0  0
   -3.5312   -1.4972   -4.5796 H   0  0  0  0  0  0  0  0  0  0  0  0
   -2.4899    0.4173   -3.3627 H   0  0  0  0  0  0  0  0  0  0  0  0
   -2.3909    4.9777    0.5323 H   0  0  0  0  0  0  0  0  0  0  0  0
   -4.6733    5.1346   -0.3972 H   0  0  0  0  0  0  0  0  0  0  0  0
   -5.7321    3.2481   -1.4680 H   0  0  0  0  0  0  0  0  0  0  0  0
   -4.5021    1.0885   -1.6447 H   0  0  0  0  0  0  0  0  0  0  0  0
    1.4633    2.3039    1.3011 H   0  0  0  0  0  0  0  0  0  0  0  0
    3.4909   -0.8747    1.1245 H   0  0  0  0  0  0  0  0  0  0  0  0
    2.5272    1.8370    3.3034 H   0  0  0  0  0  0  0  0  0  0  0  0
    4.0779    3.2555    4.4620 H   0  0  0  0  0  0  0  0  0  0  0  0
    7.2617    1.6081    2.1105 H   0  0  0  0  0  0  0  0  0  0  0  0
    5.6674    0.2191    0.9682 H   0  0  0  0  0  0  0  0  0  0  0  0
  1  2  1  0
  2  3  1  0
  2  4  1  0
  4  5  2  3
  5  6  1  0
  6  7  2  0
  7  8  1  0
  8  9  1  0
  9 10  2  0
 10 11  1  0
 11 12  2  0
 12 13  1  0
 12 14  1  0
 14 15  2  0
  8 16  1  0
 16 17  2  0
 17 18  1  0
 18 19  2  0
 19 20  1  0
 20 21  2  0
 17 22  1  0
 22 23  2  0
 23 24  1  0
 24 25  2  0
 25 26  1  0
 26 27  1  0
 27 28  2  0
 28 29  1  0
 29 30  2  0
 30 31  1  0
 30 32  1  0
 32 33  2  0
 25  5  1  0
 33 27  1  0
 23  7  1  0
 15  9  1  0
 21 16  1  0
  1 34  1  0
  1 35  1  0
  1 36  1  0
  2 37  1  0
  3 38  1  0
  3 39  1  0
  3 40  1  0
  6 41  1  0
 10 42  1  0
 11 43  1  0
 14 44  1  0
 15 45  1  0
 18 46  1  0
 19 47  1  0
 20 48  1  0
 21 49  1  0
 24 50  1  0
 26 51  1  0
 28 52  1  0
 29 53  1  0
 32 54  1  0
 33 55  1  0
M  END
$$$$
