@<TRIPOS>MOLECULE
*****
 55 59 0 0 0
SMALL
GASTEIGER

@<TRIPOS>ATOM
      1 C           0.2211   -3.8400    0.3577 C.3     1  UNL1       -0.0429
      2 C           1.1305   -3.0834   -0.5869 C.3     1  UNL1        0.0459
      3 C           2.2613   -3.9955   -1.0791 C.3     1  UNL1       -0.0429
      4 N           1.7321   -1.9353    0.0466 N.2     1  UNL1       -0.2792
      5 C           1.0924   -0.8254    0.1342 C.ar    1  UNL1        0.0819
      6 C          -0.1820   -0.6272   -0.3489 C.ar    1  UNL1       -0.0089
      7 C          -0.9109    0.5310   -0.2838 C.ar    1  UNL1        0.0747
      8 N          -2.1508    0.6635   -0.7733 N.ar    1  UNL1       -0.3058
      9 C          -2.7585   -0.4676   -1.4040 C.ar    1  UNL1        0.0474
     10 C          -3.2306   -1.5550   -0.6819 C.ar    1  UNL1       -0.0364
     11 C          -3.8026   -2.6043   -1.3650 C.ar    1  UNL1       -0.0414
     12 C          -3.8865   -2.5388   -2.7390 C.ar    1  UNL1        0.0411
     13 CL         -4.6184   -3.8820   -3.6095 Cl      1  UNL1       -0.0835
     14 C          -3.4323   -1.4834   -3.4874 C.ar    1  UNL1       -0.0414
     15 C          -2.8616   -0.4402   -2.7850 C.ar    1  UNL1       -0.0364
     16 C          -2.7530    1.8652   -0.6396 C.ar    1  UNL1        0.0725
     17 C          -2.1234    2.9306   -0.0212 C.ar    1  UNL1        0.0884
     18 C          -2.8440    4.1049    0.0526 C.ar    1  UNL1       -0.0343
     19 C          -4.1217    4.2180   -0.4594 C.ar    1  UNL1       -0.0596
     20 C          -4.7226    3.1437   -1.0684 C.ar    1  UNL1       -0.0597
     21 C          -4.0321    1.9333   -1.1669 C.ar    1  UNL1       -0.0357
     22 N          -0.8771    2.8455    0.4865 N.ar    1  UNL1       -0.2437
     23 C          -0.2474    1.6658    0.3718 C.ar    1  UNL1        0.0902
     24 C           1.0258    1.4377    0.8443 C.ar    1  UNL1       -0.0110
     25 C           1.7223    0.2529    0.7572 C.ar    1  UNL1        0.0588
     26 N           3.0252    0.0549    1.2713 N.pl3   1  UNL1       -0.3128
     27 C           3.9198    0.8748    1.9978 C.ar    1  UNL1        0.0314
     28 C           3.5594    1.7570    2.9938 C.ar    1  UNL1       -0.0392
     29 C           4.4093    2.5846    3.6938 C.ar    1  UNL1       -0.0416
     30 C           5.7440    2.5095    3.3528 C.ar    1  UNL1        0.0411
     31 CL          6.9031    3.5204    4.1833 Cl      1  UNL1       -0.0835
     32 C           6.2086    1.6652    2.3770 C.ar    1  UNL1       -0.0416
     33 C           5.2874    0.8841    1.7394 C.ar    1  UNL1       -0.0392
     34 H           0.5361   -3.6820    1.4226 H       1  UNL1        0.0250
     35 H           0.3206   -4.9297    0.1764 H       1  UNL1        0.0250
     36 H          -0.8378   -3.5215    0.3063 H       1  UNL1        0.0250
     37 H           0.5559   -2.8427   -1.5008 H       1  UNL1        0.0539
     38 H           2.8043   -4.4620   -0.2402 H       1  UNL1        0.0250
     39 H           1.8261   -4.7187   -1.7917 H       1  UNL1        0.0250
     40 H           2.9450   -3.3240   -1.6572 H       1  UNL1        0.0250
     41 H          -0.7150   -1.4310   -0.8402 H       1  UNL1        0.0661
     42 H          -3.1209   -1.5166    0.3938 H       1  UNL1        0.0639
     43 H          -4.1699   -3.4543   -0.7799 H       1  UNL1        0.0633
     44 H          -3.5312   -1.4972   -4.5796 H       1  UNL1        0.0633
     45 H          -2.4899    0.4173   -3.3627 H       1  UNL1        0.0639
     46 H          -2.3909    4.9777    0.5323 H       1  UNL1        0.0639
     47 H          -4.6733    5.1346   -0.3972 H       1  UNL1        0.0618
     48 H          -5.7321    3.2481   -1.4680 H       1  UNL1        0.0618
     49 H          -4.5021    1.0885   -1.6447 H       1  UNL1        0.0639
     50 H           1.4633    2.3039    1.3011 H       1  UNL1        0.0659
     51 H           3.4909   -0.8747    1.1245 H       1  UNL1        0.1522
     52 H           2.5272    1.8370    3.3034 H       1  UNL1        0.0636
     53 H           4.0779    3.2555    4.4620 H       1  UNL1        0.0633
     54 H           7.2617    1.6081    2.1105 H       1  UNL1        0.0633
     55 H           5.6674    0.2191    0.9682 H       1  UNL1        0.0636
@<TRIPOS>BOND
     1     1     2    1
     2     2     3    1
     3     2     4    1
     4     4     5    2
     5     5     6   ar
     6     6     7   ar
     7     7     8   ar
     8     8     9    1
     9     9    10   ar
    10    10    11   ar
    11    11    12   ar
    12    12    13    1
    13    12    14   ar
    14    14    15   ar
    15     8    16   ar
    16    16    17   ar
    17    17    18   ar
    18    18    19   ar
    19    19    20   ar
    20    20    21   ar
    21    17    22   ar
    22    22    23   ar
    23    23    24   ar
    24    24    25   ar
    25    25    26    1
    26    26    27    1
    27    27    28   ar
    28    28    29   ar
    29    29    30   ar
    30    30    31    1
    31    30    32   ar
    32    32    33   ar
    33    25     5   ar
    34    33    27   ar
    35    23     7    1
    36    15     9   ar
    37    21    16   ar
    38     1    34    1
    39     1    35    1
    40     1    36    1
    41     2    37    1
    42     3    38    1
    43     3    39    1
    44     3    40    1
    45     6    41    1
    46    10    42    1
    47    11    43    1
    48    14    44    1
    49    15    45    1
    50    18    46    1
    51    19    47    1
    52    20    48    1
    53    21    49    1
    54    24    50    1
    55    26    51    1
    56    28    52    1
    57    29    53    1
    58    32    54    1
    59    33    55    1
