
     RDKit          3D

 16 16  0  0  0  0  0  0  0  0999 V2000
   -2.5647   -1.1213   -0.0052 O   0  0  0  0  0  0  0  0  0  0  0  0
   -1.9981    0.1435   -0.1534 C   0  0  0  0  0  0  0  0  0  0  0  0
   -0.5048    0.0835   -0.0777 C   0  0  0  0  0  0  0  0  0  0  0  0
    0.1465   -1.1284    0.1183 C   0  0  0  0  0  0  0  0  0  0  0  0
    1.5269   -1.1178    0.1793 C   0  0  0  0  0  0  0  0  0  0  0  0
    2.2539    0.0490    0.0518 C   0  0  0  0  0  0  0  0  0  0  0  0
    3.6059    0.0402    0.1141 F   0  0  0  0  0  0  0  0  0  0  0  0
    1.5839    1.2500   -0.1436 C   0  0  0  0  0  0  0  0  0  0  0  0
    0.2043    1.2592   -0.2072 C   0  0  0  0  0  0  0  0  0  0  0  0
   -0.4507    2.4201   -0.3963 F   0  0  0  0  0  0  0  0  0  0  0  0
   -2.9178   -1.2593    0.9045 H   0  0  0  0  0  0  0  0  0  0  0  0
   -2.3706    0.8985    0.5484 H   0  0  0  0  0  0  0  0  0  0  0  0
   -2.1996    0.4059   -1.2337 H   0  0  0  0  0  0  0  0  0  0  0  0
   -0.4583   -2.0119    0.2124 H   0  0  0  0  0  0  0  0  0  0  0  0
    2.0169   -2.0915    0.3352 H   0  0  0  0  0  0  0  0  0  0  0  0
    2.1262    2.1802   -0.2469 H   0  0  0  0  0  0  0  0  0  0  0  0
  1  2  1  0
  2  3  1  0
  3  4  2  0
  4  5  1  0
  5  6  2  0
  6  7  1  0
  6  8  1  0
  8  9  2  0
  9 10  1  0
  9  3  1  0
  1 11  1  0
  2 12  1  0
  2 13  1  0
  4 14  1  0
  5 15  1  0
  8 16  1  0
M  END
$$$$
