
     RDKit          3D

 52 55  0  0  0  0  0  0  0  0999 V2000
    6.4535    2.8663    1.3745 N   0  0  0  0  0  0  0  0  0  0  0  0
    6.7613    2.0674    0.5415 C   0  0  0  0  0  0  0  0  0  0  0  0
    7.1099    1.1214   -0.4678 C   0  0  0  0  0  0  0  0  0  0  0  0
    6.1973   -0.0676   -0.5351 C   0  0  0  0  0  0  0  0  0  0  0  0
    4.8508    0.3111   -0.9302 C   0  0  0  0  0  0  0  0  0  0  0  0
    3.8179    0.6053   -0.1080 C   0  0  0  0  0  0  0  0  0  0  0  0
    2.5607    0.9011   -0.5875 C   0  0  0  0  0  0  0  0  0  0  0  0
    2.2894    0.9132   -1.9368 C   0  0  0  0  0  0  0  0  0  0  0  0
    1.1035    1.1686   -2.5035 O   0  0  0  0  0  0  0  0  0  0  0  0
   -0.1806    1.4511   -2.2104 C   0  0  0  0  0  0  0  0  0  0  0  0
   -0.7975    0.3398   -1.3995 C   0  0  0  0  0  0  0  0  0  0  0  0
   -1.8006    0.4989   -0.5083 C   0  0  0  0  0  0  0  0  0  0  0  0
   -2.2985   -0.5610    0.2684 C   0  0  0  0  0  0  0  0  0  0  0  0
   -3.4473   -0.3813    1.1707 C   0  0  0  0  0  0  0  0  0  0  0  0
   -4.4405   -1.3714    1.2003 C   0  0  0  0  0  0  0  0  0  0  0  0
   -5.5632   -1.2109    1.9849 C   0  0  0  0  0  0  0  0  0  0  0  0
   -5.7211   -0.0680    2.7538 C   0  0  0  0  0  0  0  0  0  0  0  0
   -4.7602    0.9230    2.7455 C   0  0  0  0  0  0  0  0  0  0  0  0
   -4.8900    2.0916    3.5119 O   0  0  0  0  0  0  0  0  0  0  0  0
   -5.5307    3.2442    2.9727 C   0  0  0  0  0  0  0  0  0  0  0  0
   -4.8200    3.6650    1.8692 F   0  0  0  0  0  0  0  0  0  0  0  0
   -6.7944    2.8807    2.4895 F   0  0  0  0  0  0  0  0  0  0  0  0
   -5.5805    4.2659    3.8711 F   0  0  0  0  0  0  0  0  0  0  0  0
   -3.6549    0.7217    1.9474 C   0  0  0  0  0  0  0  0  0  0  0  0
   -1.6989   -1.7895    0.0773 C   0  0  0  0  0  0  0  0  0  0  0  0
   -2.1017   -2.8606    0.7878 N   0  0  0  0  0  0  0  0  0  0  0  0
   -1.5403   -4.0670    0.6363 C   0  0  0  0  0  0  0  0  0  0  0  0
   -0.5132   -4.2912   -0.2562 C   0  0  0  0  0  0  0  0  0  0  0  0
   -0.0688   -3.2253   -1.0034 C   0  0  0  0  0  0  0  0  0  0  0  0
   -0.6610   -1.9953   -0.8320 C   0  0  0  0  0  0  0  0  0  0  0  0
   -0.2260   -0.9061   -1.5646 C   0  0  0  0  0  0  0  0  0  0  0  0
    3.3607    0.6146   -2.8261 C   0  0  0  0  0  0  0  0  0  0  0  0
    4.5775    0.3286   -2.2948 C   0  0  0  0  0  0  0  0  0  0  0  0
    8.1861    0.8043   -0.3793 H   0  0  0  0  0  0  0  0  0  0  0  0
    7.0267    1.6810   -1.4626 H   0  0  0  0  0  0  0  0  0  0  0  0
    6.1342   -0.4997    0.5082 H   0  0  0  0  0  0  0  0  0  0  0  0
    6.6252   -0.8513   -1.2165 H   0  0  0  0  0  0  0  0  0  0  0  0
    3.9900    0.6078    0.9712 H   0  0  0  0  0  0  0  0  0  0  0  0
    1.7563    1.1353    0.1027 H   0  0  0  0  0  0  0  0  0  0  0  0
   -0.7815    1.4851   -3.1690 H   0  0  0  0  0  0  0  0  0  0  0  0
   -0.3813    2.4390   -1.7176 H   0  0  0  0  0  0  0  0  0  0  0  0
   -2.2555    1.4772   -0.3677 H   0  0  0  0  0  0  0  0  0  0  0  0
   -4.3193   -2.2400    0.6096 H   0  0  0  0  0  0  0  0  0  0  0  0
   -6.3332   -1.9602    2.0247 H   0  0  0  0  0  0  0  0  0  0  0  0
   -6.6203    0.0705    3.3741 H   0  0  0  0  0  0  0  0  0  0  0  0
   -2.8935    1.5061    1.9467 H   0  0  0  0  0  0  0  0  0  0  0  0
   -1.9038   -4.8782    1.2244 H   0  0  0  0  0  0  0  0  0  0  0  0
   -0.0583   -5.2914   -0.3689 H   0  0  0  0  0  0  0  0  0  0  0  0
    0.7253   -3.3566   -1.7023 H   0  0  0  0  0  0  0  0  0  0  0  0
    0.5798   -1.0428   -2.2801 H   0  0  0  0  0  0  0  0  0  0  0  0
    3.1353    0.6315   -3.8934 H   0  0  0  0  0  0  0  0  0  0  0  0
    5.3951    0.0983   -2.9962 H   0  0  0  0  0  0  0  0  0  0  0  0
  1  2  3  0
  2  3  1  0
  3  4  1  0
  4  5  1  0
  5  6  2  0
  6  7  1  0
  7  8  2  0
  8  9  1  0
  9 10  1  0
 10 11  1  0
 11 12  2  0
 12 13  1  0
 13 14  1  0
 14 15  2  0
 15 16  1  0
 16 17  2  0
 17 18  1  0
 18 19  1  0
 19 20  1  0
 20 21  1  0
 20 22  1  0
 20 23  1  0
 18 24  2  0
 13 25  2  0
 25 26  1  0
 26 27  2  0
 27 28  1  0
 28 29  2  0
 29 30  1  0
 30 31  2  0
  8 32  1  0
 32 33  2  0
 33  5  1  0
 31 11  1  0
 24 14  1  0
 30 25  1  0
  3 34  1  0
  3 35  1  0
  4 36  1  0
  4 37  1  0
  6 38  1  0
  7 39  1  0
 10 40  1  0
 10 41  1  0
 12 42  1  0
 15 43  1  0
 16 44  1  0
 17 45  1  0
 24 46  1  0
 27 47  1  0
 28 48  1  0
 29 49  1  0
 31 50  1  0
 32 51  1  0
 33 52  1  0
M  END
$$$$
