@<TRIPOS>MOLECULE
*****
 52 55 0 0 0
SMALL
GASTEIGER

@<TRIPOS>ATOM
      1 N           6.4535    2.8663    1.3745 N.1     1  UNL1       -0.1966
      2 C           6.7613    2.0674    0.5415 C.1     1  UNL1        0.0628
      3 C           7.1099    1.1214   -0.4678 C.3     1  UNL1        0.0388
      4 C           6.1973   -0.0676   -0.5351 C.3     1  UNL1       -0.0149
      5 C           4.8508    0.3111   -0.9302 C.ar    1  UNL1       -0.0462
      6 C           3.8179    0.6053   -0.1080 C.ar    1  UNL1       -0.0551
      7 C           2.5607    0.9011   -0.5875 C.ar    1  UNL1       -0.0197
      8 C           2.2894    0.9132   -1.9368 C.ar    1  UNL1        0.1210
      9 O           1.1035    1.1686   -2.5035 O.3     1  UNL1       -0.4874
     10 C          -0.1806    1.4511   -2.2104 C.3     1  UNL1        0.1147
     11 C          -0.7975    0.3398   -1.3995 C.ar    1  UNL1       -0.0091
     12 C          -1.8006    0.4989   -0.5083 C.ar    1  UNL1       -0.0456
     13 C          -2.2985   -0.5610    0.2684 C.ar    1  UNL1        0.0085
     14 C          -3.4473   -0.3813    1.1707 C.ar    1  UNL1       -0.0124
     15 C          -4.4405   -1.3714    1.2003 C.ar    1  UNL1       -0.0537
     16 C          -5.5632   -1.2109    1.9849 C.ar    1  UNL1       -0.0577
     17 C          -5.7211   -0.0680    2.7538 C.ar    1  UNL1       -0.0196
     18 C          -4.7602    0.9230    2.7455 C.ar    1  UNL1        0.1306
     19 O          -4.8900    2.0916    3.5119 O.3     1  UNL1       -0.4057
     20 C          -5.5307    3.2442    2.9727 C.3     1  UNL1        0.5752
     21 F          -4.8200    3.6650    1.8692 F       1  UNL1       -0.1328
     22 F          -6.7944    2.8807    2.4895 F       1  UNL1       -0.1328
     23 F          -5.5805    4.2659    3.8711 F       1  UNL1       -0.1328
     24 C          -3.6549    0.7217    1.9474 C.ar    1  UNL1       -0.0118
     25 C          -1.6989   -1.7895    0.0773 C.ar    1  UNL1        0.0787
     26 N          -2.1017   -2.8606    0.7878 N.ar    1  UNL1       -0.2544
     27 C          -1.5403   -4.0670    0.6363 C.ar    1  UNL1        0.0283
     28 C          -0.5132   -4.2912   -0.2562 C.ar    1  UNL1       -0.0430
     29 C          -0.0688   -3.2253   -1.0034 C.ar    1  UNL1       -0.0511
     30 C          -0.6610   -1.9953   -0.8320 C.ar    1  UNL1        0.0013
     31 C          -0.2260   -0.9061   -1.5646 C.ar    1  UNL1       -0.0461
     32 C           3.3607    0.6146   -2.8261 C.ar    1  UNL1       -0.0197
     33 C           4.5775    0.3286   -2.2948 C.ar    1  UNL1       -0.0551
     34 H           8.1861    0.8043   -0.3793 H       1  UNL1        0.0421
     35 H           7.0267    1.6810   -1.4626 H       1  UNL1        0.0421
     36 H           6.1342   -0.4997    0.5082 H       1  UNL1        0.0323
     37 H           6.6252   -0.8513   -1.2165 H       1  UNL1        0.0323
     38 H           3.9900    0.6078    0.9712 H       1  UNL1        0.0621
     39 H           1.7563    1.1353    0.1027 H       1  UNL1        0.0654
     40 H          -0.7815    1.4851   -3.1690 H       1  UNL1        0.0748
     41 H          -0.3813    2.4390   -1.7176 H       1  UNL1        0.0748
     42 H          -2.2555    1.4772   -0.3677 H       1  UNL1        0.0628
     43 H          -4.3193   -2.2400    0.6096 H       1  UNL1        0.0624
     44 H          -6.3332   -1.9602    2.0247 H       1  UNL1        0.0619
     45 H          -6.6203    0.0705    3.3741 H       1  UNL1        0.0654
     46 H          -2.8935    1.5061    1.9467 H       1  UNL1        0.0660
     47 H          -1.9038   -4.8782    1.2244 H       1  UNL1        0.0830
     48 H          -0.0583   -5.2914   -0.3689 H       1  UNL1        0.0633
     49 H           0.7253   -3.3566   -1.7023 H       1  UNL1        0.0625
     50 H           0.5798   -1.0428   -2.2801 H       1  UNL1        0.0628
     51 H           3.1353    0.6315   -3.8934 H       1  UNL1        0.0654
     52 H           5.3951    0.0983   -2.9962 H       1  UNL1        0.0621
@<TRIPOS>BOND
     1     1     2    3
     2     2     3    1
     3     3     4    1
     4     4     5    1
     5     5     6   ar
     6     6     7   ar
     7     7     8   ar
     8     8     9    1
     9     9    10    1
    10    10    11    1
    11    11    12   ar
    12    12    13   ar
    13    13    14    1
    14    14    15   ar
    15    15    16   ar
    16    16    17   ar
    17    17    18   ar
    18    18    19    1
    19    19    20    1
    20    20    21    1
    21    20    22    1
    22    20    23    1
    23    18    24   ar
    24    13    25   ar
    25    25    26   ar
    26    26    27   ar
    27    27    28   ar
    28    28    29   ar
    29    29    30   ar
    30    30    31   ar
    31     8    32   ar
    32    32    33   ar
    33    33     5   ar
    34    31    11   ar
    35    24    14   ar
    36    30    25   ar
    37     3    34    1
    38     3    35    1
    39     4    36    1
    40     4    37    1
    41     6    38    1
    42     7    39    1
    43    10    40    1
    44    10    41    1
    45    12    42    1
    46    15    43    1
    47    16    44    1
    48    17    45    1
    49    24    46    1
    50    27    47    1
    51    28    48    1
    52    29    49    1
    53    31    50    1
    54    32    51    1
    55    33    52    1
