
     RDKit          3D

 16 15  0  0  0  0  0  0  0  0999 V2000
    1.1100    0.8804    0.6906 C   0  0  0  0  0  0  0  0  0  0  0  0
    0.7490    0.2373   -0.6145 C   0  0  1  0  0  0  0  0  0  0  0  0
    1.8379   -0.5112   -1.0504 O   0  0  0  0  0  0  0  0  0  0  0  0
   -0.4777   -0.6193   -0.4185 C   0  0  2  0  0  0  0  0  0  0  0  0
   -1.6188    0.2609   -0.0312 C   0  0  0  0  0  0  0  0  0  0  0  0
   -0.1379   -1.5728    0.5439 O   0  0  0  0  0  0  0  0  0  0  0  0
    0.2548    0.8234    1.4121 H   0  0  0  0  0  0  0  0  0  0  0  0
    1.4119    1.9374    0.5627 H   0  0  0  0  0  0  0  0  0  0  0  0
    1.9194    0.2737    1.1783 H   0  0  0  0  0  0  0  0  0  0  0  0
    0.5410    1.0463   -1.3476 H   0  0  0  0  0  0  0  0  0  0  0  0
    1.5640   -1.4720   -1.0131 H   0  0  0  0  0  0  0  0  0  0  0  0
   -0.6929   -1.1528   -1.3766 H   0  0  0  0  0  0  0  0  0  0  0  0
   -2.0957   -0.1622    0.8769 H   0  0  0  0  0  0  0  0  0  0  0  0
   -1.2831    1.2967    0.1589 H   0  0  0  0  0  0  0  0  0  0  0  0
   -2.3297    0.3100   -0.8811 H   0  0  0  0  0  0  0  0  0  0  0  0
   -0.7522   -1.5757    1.3097 H   0  0  0  0  0  0  0  0  0  0  0  0
  1  2  1  0
  2  3  1  0
  2  4  1  0
  4  5  1  0
  4  6  1  0
  1  7  1  0
  1  8  1  0
  1  9  1  0
  2 10  1  6
  3 11  1  0
  4 12  1  6
  5 13  1  0
  5 14  1  0
  5 15  1  0
  6 16  1  0
M  END
$$$$
