@<TRIPOS>MOLECULE
*****
 59 62 0 0 0
SMALL
GASTEIGER

@<TRIPOS>ATOM
      1 C          -4.0929   -0.4259    2.5706 C.3     1  UNL1       -0.0288
      2 C          -4.7883    0.0011    1.2767 C.3     1  UNL1        0.1831
      3 C          -6.2819   -0.1526    1.4966 C.3     1  UNL1       -0.0288
      4 C          -4.3663   -0.8948    0.1758 C.2     1  UNL1        0.3067
      5 N          -4.5750   -2.3319    0.3937 N.pl3   1  UNL1       -0.2488
      6 N          -3.8636   -0.4809   -0.8765 N.2     1  UNL1       -0.0727
      7 C          -3.5251    0.8019   -1.4095 C.3     1  UNL1        0.1959
      8 C          -3.7161    0.7461   -2.9006 C.3     1  UNL1       -0.0112
      9 C          -2.1244    1.1858   -1.0904 C.ar    1  UNL1        0.0420
     10 C          -1.3130    0.3794   -0.3237 C.ar    1  UNL1       -0.0301
     11 C          -0.0165    0.7384   -0.0073 C.ar    1  UNL1        0.0330
     12 N           0.7716   -0.1215    0.7975 N.pl3   1  UNL1       -0.2977
     13 C           1.7653   -0.9744    0.2786 C.ar    1  UNL1        0.1490
     14 N           1.3998   -2.1944   -0.2077 N.ar    1  UNL1       -0.2380
     15 C           2.3329   -3.0284   -0.7013 C.ar    1  UNL1        0.0304
     16 C           3.6723   -2.6643   -0.7244 C.ar    1  UNL1       -0.0342
     17 C           4.0307   -1.4323   -0.2318 C.ar    1  UNL1        0.0086
     18 C           5.3751   -1.0671   -0.2524 C.ar    1  UNL1       -0.0091
     19 C           5.7389    0.1673    0.2437 C.ar    1  UNL1        0.1394
     20 O           7.0338    0.5858    0.2566 O.3     1  UNL1       -0.4848
     21 C           8.1956   -0.0108   -0.1369 C.3     1  UNL1        0.1498
     22 C           8.6299   -1.2493    0.5672 C.3     1  UNL1        0.2726
     23 F           8.8212   -1.0107    1.9344 F       1  UNL1       -0.2056
     24 F           9.8866   -1.6197    0.0665 F       1  UNL1       -0.2056
     25 C           4.7206    0.9950    0.7464 C.ar    1  UNL1        0.0700
     26 N           3.4628    0.5926    0.7387 N.ar    1  UNL1       -0.2479
     27 C           3.0763   -0.5834    0.2718 C.ar    1  UNL1        0.1111
     28 C           0.4864    1.9281   -0.4644 C.ar    1  UNL1       -0.0378
     29 C          -0.3238    2.7569   -1.2437 C.ar    1  UNL1       -0.0243
     30 C          -1.6306    2.3680   -1.5477 C.ar    1  UNL1        0.1311
     31 F          -2.3246    3.2514   -2.3339 F       1  UNL1       -0.2050
     32 C          -4.4963    1.8671   -0.8656 C.3     1  UNL1        0.1183
     33 S          -4.4785    1.6846    0.9017 S.O2    1  UNL1       -0.0101
     34 O          -3.1775    2.1766    1.4574 O.2     1  UNL1       -0.1731
     35 O          -5.5799    2.5947    1.4299 O.2     1  UNL1       -0.1731
     36 H          -3.6390   -1.4383    2.4607 H       1  UNL1        0.0256
     37 H          -3.2563    0.2708    2.7757 H       1  UNL1        0.0256
     38 H          -4.8115   -0.4959    3.4111 H       1  UNL1        0.0256
     39 H          -6.5181    0.1625    2.5389 H       1  UNL1        0.0256
     40 H          -6.8547    0.5017    0.8187 H       1  UNL1        0.0256
     41 H          -6.6304   -1.1893    1.3957 H       1  UNL1        0.0256
     42 H          -3.8093   -2.9771    0.5987 H       1  UNL1        0.2881
     43 H          -5.5490   -2.6465    0.3257 H       1  UNL1        0.2881
     44 H          -4.2590    1.6592   -3.2847 H       1  UNL1        0.0279
     45 H          -2.7285    0.6580   -3.4278 H       1  UNL1        0.0279
     46 H          -4.3236   -0.1181   -3.2378 H       1  UNL1        0.0279
     47 H          -1.7580   -0.5601    0.0187 H       1  UNL1        0.0641
     48 H           0.5972   -0.1110    1.8297 H       1  UNL1        0.1536
     49 H           2.1027   -4.0151   -1.1004 H       1  UNL1        0.0830
     50 H           4.4263   -3.3169   -1.1113 H       1  UNL1        0.0639
     51 H           6.0717   -1.7697   -0.6700 H       1  UNL1        0.0661
     52 H           8.1778   -0.2479   -1.2366 H       1  UNL1        0.0754
     53 H           9.0556    0.7248   -0.0207 H       1  UNL1        0.0754
     54 H           7.9982   -2.1245    0.5052 H       1  UNL1        0.1054
     55 H           5.0547    1.9551    1.1238 H       1  UNL1        0.0867
     56 H           1.5022    2.2611   -0.2418 H       1  UNL1        0.0637
     57 H           0.0652    3.6922   -1.6048 H       1  UNL1        0.0647
     58 H          -5.5071    1.6992   -1.2648 H       1  UNL1        0.0550
     59 H          -4.1329    2.8475   -1.1385 H       1  UNL1        0.0550
@<TRIPOS>BOND
     1     1     2    1
     2     2     3    1
     3     2     4    1
     4     4     5    1
     5     4     6    2
     6     6     7    1
     7     7     8    1
     8     7     9    1
     9     9    10   ar
    10    10    11   ar
    11    11    12    1
    12    12    13    1
    13    13    14   ar
    14    14    15   ar
    15    15    16   ar
    16    16    17   ar
    17    17    18   ar
    18    18    19   ar
    19    19    20    1
    20    20    21    1
    21    21    22    1
    22    22    23    1
    23    22    24    1
    24    19    25   ar
    25    25    26   ar
    26    26    27   ar
    27    11    28   ar
    28    28    29   ar
    29    29    30   ar
    30    30    31    1
    31     7    32    1
    32    32    33    1
    33    33    34    2
    34    33    35    2
    35    33     2    1
    36    30     9   ar
    37    27    13   ar
    38    27    17   ar
    39     1    36    1
    40     1    37    1
    41     1    38    1
    42     3    39    1
    43     3    40    1
    44     3    41    1
    45     5    42    1
    46     5    43    1
    47     8    44    1
    48     8    45    1
    49     8    46    1
    50    10    47    1
    51    12    48    1
    52    15    49    1
    53    16    50    1
    54    18    51    1
    55    21    52    1
    56    21    53    1
    57    22    54    1
    58    25    55    1
    59    28    56    1
    60    29    57    1
    61    32    58    1
    62    32    59    1
