@<TRIPOS>MOLECULE
*****
 28 29 0 0 0
SMALL
GASTEIGER

@<TRIPOS>ATOM
      1 O           6.0084    0.1062    0.6614 O.3     1  UNL1       -0.4740
      2 C           4.7932    0.5055    0.1226 C.2     1  UNL1        0.3926
      3 O           5.0829    1.5404   -0.5708 O.2     1  UNL1       -0.2399
      4 C           3.4559   -0.0961    0.2866 C.2     1  UNL1        0.3258
      5 O           2.9404   -1.0714    0.8907 O.2     1  UNL1       -0.2627
      6 N           2.4440    0.6023   -0.4289 N.am    1  UNL1       -0.2699
      7 C           1.1103    0.1785   -0.3938 C.ar    1  UNL1        0.0867
      8 C           0.0939    0.4900    0.4279 C.ar    1  UNL1        0.0908
      9 C           0.2614    1.4293    1.5326 C.2     1  UNL1        0.3394
     10 O          -0.6735    1.8437    2.4491 O.3     1  UNL1       -0.4771
     11 O           1.3962    1.9404    1.6900 O.2     1  UNL1       -0.2450
     12 C          -1.1444   -0.0671    0.2555 C.ar    1  UNL1       -0.0189
     13 C          -1.2800   -0.9662   -0.8137 C.ar    1  UNL1        0.0094
     14 C          -2.3574   -1.7788   -1.3725 C.3     1  UNL1        0.0278
     15 N          -3.5696   -1.5224   -0.6669 N.3     1  UNL1       -0.3112
     16 C          -3.5429   -0.2048   -0.1282 C.3     1  UNL1        0.0002
     17 C          -2.4721    0.0060    0.9092 C.3     1  UNL1       -0.0134
     18 S           0.4574   -0.9722   -1.5588 S.2     1  UNL1       -0.0760
     19 H           6.7741   -0.1493    0.0824 H       1  UNL1        0.2956
     20 H           2.4963    1.4406   -1.0282 H       1  UNL1        0.1558
     21 H          -0.6215    2.7127    2.9607 H       1  UNL1        0.2954
     22 H          -2.1543   -2.8771   -1.3199 H       1  UNL1        0.0479
     23 H          -2.4628   -1.5584   -2.4443 H       1  UNL1        0.0479
     24 H          -3.8429   -2.2698   -0.0225 H       1  UNL1        0.1223
     25 H          -3.4730    0.5381   -0.9271 H       1  UNL1        0.0427
     26 H          -4.5148   -0.0176    0.3978 H       1  UNL1        0.0427
     27 H          -2.5899    1.0106    1.3186 H       1  UNL1        0.0326
     28 H          -2.6152   -0.7929    1.6681 H       1  UNL1        0.0326
@<TRIPOS>BOND
     1     1     2    1
     2     2     3    2
     3     2     4    1
     4     4     5    2
     5     4     6   am
     6     6     7    1
     7     7     8   ar
     8     8     9    1
     9     9    10    1
    10     9    11    2
    11     8    12   ar
    12    12    13   ar
    13    13    14    1
    14    14    15    1
    15    15    16    1
    16    16    17    1
    17    13    18   ar
    18    18     7   ar
    19    17    12    1
    20     1    19    1
    21     6    20    1
    22    10    21    1
    23    14    22    1
    24    14    23    1
    25    15    24    1
    26    16    25    1
    27    16    26    1
    28    17    27    1
    29    17    28    1
