
     RDKit          3D

 28 29  0  0  0  0  0  0  0  0999 V2000
    6.0084    0.1062    0.6614 O   0  0  0  0  0  0  0  0  0  0  0  0
    4.7932    0.5055    0.1226 C   0  0  0  0  0  0  0  0  0  0  0  0
    5.0829    1.5404   -0.5708 O   0  0  0  0  0  0  0  0  0  0  0  0
    3.4559   -0.0961    0.2866 C   0  0  0  0  0  0  0  0  0  0  0  0
    2.9404   -1.0714    0.8907 O   0  0  0  0  0  0  0  0  0  0  0  0
    2.4440    0.6023   -0.4289 N   0  0  0  0  0  0  0  0  0  0  0  0
    1.1103    0.1785   -0.3938 C   0  0  0  0  0  0  0  0  0  0  0  0
    0.0939    0.4900    0.4279 C   0  0  0  0  0  0  0  0  0  0  0  0
    0.2614    1.4293    1.5326 C   0  0  0  0  0  0  0  0  0  0  0  0
   -0.6735    1.8437    2.4491 O   0  0  0  0  0  0  0  0  0  0  0  0
    1.3962    1.9404    1.6900 O   0  0  0  0  0  0  0  0  0  0  0  0
   -1.1444   -0.0671    0.2555 C   0  0  0  0  0  0  0  0  0  0  0  0
   -1.2800   -0.9662   -0.8137 C   0  0  0  0  0  0  0  0  0  0  0  0
   -2.3574   -1.7788   -1.3725 C   0  0  0  0  0  0  0  0  0  0  0  0
   -3.5696   -1.5224   -0.6669 N   0  0  0  0  0  0  0  0  0  0  0  0
   -3.5429   -0.2048   -0.1282 C   0  0  0  0  0  0  0  0  0  0  0  0
   -2.4721    0.0060    0.9092 C   0  0  0  0  0  0  0  0  0  0  0  0
    0.4574   -0.9722   -1.5588 S   0  0  0  0  0  0  0  0  0  0  0  0
    6.7741   -0.1493    0.0824 H   0  0  0  0  0  0  0  0  0  0  0  0
    2.4963    1.4406   -1.0282 H   0  0  0  0  0  0  0  0  0  0  0  0
   -0.6215    2.7127    2.9607 H   0  0  0  0  0  0  0  0  0  0  0  0
   -2.1543   -2.8771   -1.3199 H   0  0  0  0  0  0  0  0  0  0  0  0
   -2.4628   -1.5584   -2.4443 H   0  0  0  0  0  0  0  0  0  0  0  0
   -3.8429   -2.2698   -0.0225 H   0  0  0  0  0  0  0  0  0  0  0  0
   -3.4730    0.5381   -0.9271 H   0  0  0  0  0  0  0  0  0  0  0  0
   -4.5148   -0.0176    0.3978 H   0  0  0  0  0  0  0  0  0  0  0  0
   -2.5899    1.0106    1.3186 H   0  0  0  0  0  0  0  0  0  0  0  0
   -2.6152   -0.7929    1.6681 H   0  0  0  0  0  0  0  0  0  0  0  0
  1  2  1  0
  2  3  2  0
  2  4  1  0
  4  5  2  0
  4  6  1  0
  6  7  1  0
  7  8  2  0
  8  9  1  0
  9 10  1  0
  9 11  2  0
  8 12  1  0
 12 13  2  0
 13 14  1  0
 14 15  1  0
 15 16  1  0
 16 17  1  0
 13 18  1  0
 18  7  1  0
 17 12  1  0
  1 19  1  0
  6 20  1  0
 10 21  1  0
 14 22  1  0
 14 23  1  0
 15 24  1  0
 16 25  1  0
 16 26  1  0
 17 27  1  0
 17 28  1  0
M  END
$$$$
