
     RDKit          3D

 59 59  0  0  0  0  0  0  0  0999 V2000
   -3.9230    0.2997    0.4716 C   0  0  0  0  0  0  0  0  0  0  0  0
   -4.8530   -0.6464    0.3612 C   0  0  0  0  0  0  0  0  0  0  0  0
   -6.1938   -0.3451   -0.2219 C   0  0  0  0  0  0  0  0  0  0  0  0
   -6.7486    0.9744    0.2334 C   0  0  0  0  0  0  0  0  0  0  0  0
   -6.1635   -0.3786   -1.7298 C   0  0  0  0  0  0  0  0  0  0  0  0
   -7.1364   -1.4400    0.2731 C   0  0  0  0  0  0  0  0  0  0  0  0
   -2.6022   -0.0358    1.0559 C   0  0  1  0  0  0  0  0  0  0  0  0
   -2.4581   -1.4356    1.0866 O   0  0  0  0  0  0  0  0  0  0  0  0
   -1.4639    0.5645    0.2211 C   0  0  2  0  0  0  0  0  0  0  0  0
   -1.4812    0.0914   -1.0684 O   0  0  0  0  0  0  0  0  0  0  0  0
   -0.1932    0.1779    0.9242 C   0  0  1  0  0  0  0  0  0  0  0  0
   -0.1200   -1.2022    0.9393 O   0  0  0  0  0  0  0  0  0  0  0  0
    1.0457    0.7215    0.2554 C   0  0  1  0  0  0  0  0  0  0  0  0
    0.9587    2.1153    0.2470 O   0  0  0  0  0  0  0  0  0  0  0  0
    0.9583    2.6347   -1.0345 C   0  0  0  0  0  0  0  0  0  0  0  0
    2.1836    0.3942    1.1434 C   0  0  0  0  0  0  0  0  0  0  0  0
    2.0471    0.9683    2.4197 O   0  0  0  0  0  0  0  0  0  0  0  0
    3.2268   -0.2871    0.9719 N   0  0  0  0  0  0  0  0  0  0  0  0
    3.6833   -1.0002   -0.1759 C   0  0  1  0  0  0  0  0  0  0  0  0
    4.3101   -0.1171   -1.2238 C   0  0  0  0  0  0  0  0  0  0  0  0
    5.2704    0.7996   -0.5042 C   0  0  0  0  0  0  0  0  0  0  0  0
    6.6822    0.3343   -0.5704 C   0  0  1  0  0  0  0  0  0  0  0  0
    7.3405    0.8024    0.5891 O   0  0  0  0  0  0  0  0  0  0  0  0
    6.8590   -1.1511   -0.7380 C   0  0  0  0  0  0  0  0  0  0  0  0
    6.0667   -1.9671    0.1203 N   0  0  0  0  0  0  0  0  0  0  0  0
    4.7942   -1.8817    0.3245 C   0  0  0  0  0  0  0  0  0  0  0  0
    4.3468   -2.8520    1.2377 O   0  0  0  0  0  0  0  0  0  0  0  0
   -4.1088    1.3295    0.1395 H   0  0  0  0  0  0  0  0  0  0  0  0
   -4.5831   -1.6533    0.7193 H   0  0  0  0  0  0  0  0  0  0  0  0
   -6.4578    1.8036   -0.4469 H   0  0  0  0  0  0  0  0  0  0  0  0
   -6.2554    1.2160    1.2170 H   0  0  0  0  0  0  0  0  0  0  0  0
   -7.8454    0.9569    0.3935 H   0  0  0  0  0  0  0  0  0  0  0  0
   -5.1746   -0.7624   -2.1005 H   0  0  0  0  0  0  0  0  0  0  0  0
   -6.2670    0.6436   -2.1353 H   0  0  0  0  0  0  0  0  0  0  0  0
   -6.9925   -0.9978   -2.1024 H   0  0  0  0  0  0  0  0  0  0  0  0
   -6.5868   -2.2933    0.6920 H   0  0  0  0  0  0  0  0  0  0  0  0
   -7.7677   -1.8029   -0.5794 H   0  0  0  0  0  0  0  0  0  0  0  0
   -7.7943   -1.0624    1.0843 H   0  0  0  0  0  0  0  0  0  0  0  0
   -2.5262    0.3149    2.0861 H   0  0  0  0  0  0  0  0  0  0  0  0
   -2.3538   -1.7780    2.0120 H   0  0  0  0  0  0  0  0  0  0  0  0
   -1.5830    1.6674    0.2580 H   0  0  0  0  0  0  0  0  0  0  0  0
   -1.7194    0.8088   -1.7279 H   0  0  0  0  0  0  0  0  0  0  0  0
   -0.2954    0.5525    1.9753 H   0  0  0  0  0  0  0  0  0  0  0  0
   -0.2334   -1.5247   -0.0011 H   0  0  0  0  0  0  0  0  0  0  0  0
    1.0977    0.2891   -0.7426 H   0  0  0  0  0  0  0  0  0  0  0  0
    1.8806    2.3839   -1.6212 H   0  0  0  0  0  0  0  0  0  0  0  0
    1.0226    3.7534   -0.9011 H   0  0  0  0  0  0  0  0  0  0  0  0
    0.0736    2.4012   -1.6262 H   0  0  0  0  0  0  0  0  0  0  0  0
    2.7479    0.8426    3.1394 H   0  0  0  0  0  0  0  0  0  0  0  0
    2.8610   -1.6198   -0.5848 H   0  0  0  0  0  0  0  0  0  0  0  0
    3.5770    0.3999   -1.8522 H   0  0  0  0  0  0  0  0  0  0  0  0
    4.9145   -0.7683   -1.8892 H   0  0  0  0  0  0  0  0  0  0  0  0
    4.9811    0.9677    0.5519 H   0  0  0  0  0  0  0  0  0  0  0  0
    5.2002    1.7949   -0.9899 H   0  0  0  0  0  0  0  0  0  0  0  0
    7.1706    0.8012   -1.4521 H   0  0  0  0  0  0  0  0  0  0  0  0
    6.9701    1.7193    0.7346 H   0  0  0  0  0  0  0  0  0  0  0  0
    6.8400   -1.4380   -1.8141 H   0  0  0  0  0  0  0  0  0  0  0  0
    7.9294   -1.3443   -0.4341 H   0  0  0  0  0  0  0  0  0  0  0  0
    4.8417   -3.7396    1.2766 H   0  0  0  0  0  0  0  0  0  0  0  0
  1  2  2  0
  2  3  1  0
  3  4  1  0
  3  5  1  0
  3  6  1  0
  1  7  1  0
  7  8  1  0
  7  9  1  0
  9 10  1  0
  9 11  1  0
 11 12  1  0
 11 13  1  0
 13 14  1  0
 14 15  1  0
 13 16  1  0
 16 17  1  0
 16 18  2  3
 18 19  1  0
 19 20  1  0
 20 21  1  0
 21 22  1  0
 22 23  1  0
 22 24  1  0
 24 25  1  0
 25 26  2  0
 26 27  1  0
 26 19  1  0
  1 28  1  0
  2 29  1  0
  4 30  1  0
  4 31  1  0
  4 32  1  0
  5 33  1  0
  5 34  1  0
  5 35  1  0
  6 36  1  0
  6 37  1  0
  6 38  1  0
  7 39  1  1
  8 40  1  0
  9 41  1  6
 10 42  1  0
 11 43  1  1
 12 44  1  0
 13 45  1  6
 15 46  1  0
 15 47  1  0
 15 48  1  0
 17 49  1  0
 19 50  1  6
 20 51  1  0
 20 52  1  0
 21 53  1  0
 21 54  1  0
 22 55  1  6
 23 56  1  0
 24 57  1  0
 24 58  1  0
 27 59  1  0
M  END
$$$$
