@<TRIPOS>MOLECULE
*****
 59 64 0 0 0
SMALL
GASTEIGER

@<TRIPOS>ATOM
      1 N          10.2931    2.5866   -2.2532 N.1     1  UNL1       -0.1908
      2 C           9.4151    2.1692   -1.6027 C.1     1  UNL1        0.1007
      3 C           8.3385    1.6599   -0.7756 C.ar    1  UNL1        0.0699
      4 C           8.5899    1.2924    0.5600 C.ar    1  UNL1       -0.0407
      5 C           7.5268    0.7255    1.2639 C.ar    1  UNL1       -0.0300
      6 C           6.2992    0.5254    0.7120 C.ar    1  UNL1        0.1257
      7 C           5.1949   -0.1984    1.4167 C.2     1  UNL1        0.2666
      8 O           5.2853   -0.4742    2.5968 O.2     1  UNL1       -0.2682
      9 N           4.0845   -0.5342    0.6753 N.am    1  UNL1       -0.2802
     10 C           2.8362   -1.2030    1.0009 C.ar    1  UNL1        0.0343
     11 C           2.8191   -2.4043    1.3143 C.ar    1  UNL1       -0.0370
     12 C           1.6082   -3.1608    1.3948 C.ar    1  UNL1       -0.0172
     13 C           0.4713   -2.3831    1.0819 C.ar    1  UNL1        0.1346
     14 C           0.5085   -1.0538    0.7434 C.ar    1  UNL1        0.0287
     15 C           1.7297   -0.3561    0.6809 C.ar    1  UNL1       -0.0312
     16 C          -0.6940   -0.2976    0.3626 C.3     1  UNL1        0.1265
     17 C          -0.8115    1.0244    1.0788 C.3     1  UNL1        0.0155
     18 C          -0.6165    2.2217    0.2506 C.3     1  UNL1        0.0953
     19 O          -1.2165    2.0914   -1.0473 O.2     1  UNL1       -0.4658
     20 C          -0.6734    0.9391   -1.7549 C.2     1  UNL1        0.2763
     21 N          -0.4120    1.0706   -3.1629 N.pl3   1  UNL1       -0.3134
     22 N          -0.4922   -0.0263   -1.0605 N.2     1  UNL1       -0.2205
     23 C          -1.9517   -1.0415    0.4365 C.ar    1  UNL1        0.0334
     24 C          -3.1518   -0.5224    0.1479 C.ar    1  UNL1       -0.0264
     25 C          -4.3535   -1.2462    0.1943 C.ar    1  UNL1        0.0726
     26 C          -5.5317   -0.5038   -0.1586 C.2     1  UNL1       -0.0003
     27 C          -6.6893   -1.0698   -0.4815 C.2     1  UNL1       -0.0745
     28 C          -7.8327   -0.2055   -0.8544 C.3     1  UNL1       -0.0105
     29 C          -7.4153    1.0965   -1.4480 C.3     1  UNL1        0.0515
     30 O          -6.0568    1.3983   -1.3280 O.3     1  UNL1       -0.3748
     31 C          -5.5832    0.9727   -0.0921 C.3     1  UNL1        0.0744
     32 N          -4.2909   -2.4566    0.5317 N.ar    1  UNL1       -0.2163
     33 C          -3.1365   -3.1557    0.8647 C.ar    1  UNL1        0.2566
     34 F          -3.2023   -4.4355    1.2298 F       1  UNL1       -0.1799
     35 C          -1.9374   -2.4253    0.8134 C.ar    1  UNL1        0.1883
     36 O          -0.7544   -2.9863    1.1017 O.3     1  UNL1       -0.4508
     37 N           6.0902    0.8924   -0.5699 N.ar    1  UNL1       -0.2491
     38 C           7.1121    1.4451   -1.2634 C.ar    1  UNL1        0.0458
     39 H           9.5621    1.4755    0.9498 H       1  UNL1        0.0631
     40 H           7.6485    0.4408    2.3037 H       1  UNL1        0.0641
     41 H           4.1126   -0.2534   -0.3733 H       1  UNL1        0.1552
     42 H           3.7079   -3.0621    1.5724 H       1  UNL1        0.0637
     43 H           1.5881   -4.1697    1.6404 H       1  UNL1        0.0655
     44 H           1.8087    0.6169    0.4340 H       1  UNL1        0.0641
     45 H           0.0339    1.0023    1.8433 H       1  UNL1        0.0328
     46 H          -1.7548    1.0616    1.6945 H       1  UNL1        0.0328
     47 H          -1.1927    3.1263    0.6658 H       1  UNL1        0.0698
     48 H           0.4433    2.5782    0.1958 H       1  UNL1        0.0698
     49 H          -0.7198    1.8737   -3.6813 H       1  UNL1        0.1466
     50 H           0.1137    0.2926   -3.6135 H       1  UNL1        0.1466
     51 H          -3.2175    0.5202   -0.1581 H       1  UNL1        0.0644
     52 H          -6.7923   -2.1666   -0.4784 H       1  UNL1        0.0577
     53 H          -8.4874   -0.0391    0.0131 H       1  UNL1        0.0330
     54 H          -8.4299   -0.7832   -1.6138 H       1  UNL1        0.0330
     55 H          -7.9617    1.9763   -1.0178 H       1  UNL1        0.0563
     56 H          -7.6314    1.0679   -2.5446 H       1  UNL1        0.0563
     57 H          -6.4446    1.2211    0.6278 H       1  UNL1        0.0610
     58 H          -4.6992    1.5072    0.1681 H       1  UNL1        0.0610
     59 H           6.9138    1.7425   -2.2998 H       1  UNL1        0.0843
@<TRIPOS>BOND
     1     1     2    3
     2     2     3    1
     3     3     4   ar
     4     4     5   ar
     5     5     6   ar
     6     6     7    1
     7     7     8    2
     8     7     9   am
     9     9    10    1
    10    10    11   ar
    11    11    12   ar
    12    12    13   ar
    13    13    14   ar
    14    14    15   ar
    15    14    16    1
    16    16    17    1
    17    17    18    1
    18    18    19    1
    19    19    20    1
    20    20    21    1
    21    20    22    2
    22    16    23    1
    23    23    24   ar
    24    24    25   ar
    25    25    26    1
    26    26    27    2
    27    27    28    1
    28    28    29    1
    29    29    30    1
    30    30    31    1
    31    25    32   ar
    32    32    33   ar
    33    33    34    1
    34    33    35   ar
    35    35    36    1
    36     6    37   ar
    37    37    38   ar
    38    38     3   ar
    39    15    10   ar
    40    22    16    1
    41    35    23   ar
    42    36    13    1
    43    31    26    1
    44     4    39    1
    45     5    40    1
    46     9    41    1
    47    11    42    1
    48    12    43    1
    49    15    44    1
    50    17    45    1
    51    17    46    1
    52    18    47    1
    53    18    48    1
    54    21    49    1
    55    21    50    1
    56    24    51    1
    57    27    52    1
    58    28    53    1
    59    28    54    1
    60    29    55    1
    61    29    56    1
    62    31    57    1
    63    31    58    1
    64    38    59    1
