
     RDKit          3D

 59 64  0  0  0  0  0  0  0  0999 V2000
   10.2931    2.5866   -2.2532 N   0  0  0  0  0  0  0  0  0  0  0  0
    9.4151    2.1692   -1.6027 C   0  0  0  0  0  0  0  0  0  0  0  0
    8.3385    1.6599   -0.7756 C   0  0  0  0  0  0  0  0  0  0  0  0
    8.5899    1.2924    0.5600 C   0  0  0  0  0  0  0  0  0  0  0  0
    7.5268    0.7255    1.2639 C   0  0  0  0  0  0  0  0  0  0  0  0
    6.2992    0.5254    0.7120 C   0  0  0  0  0  0  0  0  0  0  0  0
    5.1949   -0.1984    1.4167 C   0  0  0  0  0  0  0  0  0  0  0  0
    5.2853   -0.4742    2.5968 O   0  0  0  0  0  0  0  0  0  0  0  0
    4.0845   -0.5342    0.6753 N   0  0  0  0  0  0  0  0  0  0  0  0
    2.8362   -1.2030    1.0009 C   0  0  0  0  0  0  0  0  0  0  0  0
    2.8191   -2.4043    1.3143 C   0  0  0  0  0  0  0  0  0  0  0  0
    1.6082   -3.1608    1.3948 C   0  0  0  0  0  0  0  0  0  0  0  0
    0.4713   -2.3831    1.0819 C   0  0  0  0  0  0  0  0  0  0  0  0
    0.5085   -1.0538    0.7434 C   0  0  0  0  0  0  0  0  0  0  0  0
    1.7297   -0.3561    0.6809 C   0  0  0  0  0  0  0  0  0  0  0  0
   -0.6940   -0.2976    0.3626 C   0  0  0  0  0  0  0  0  0  0  0  0
   -0.8115    1.0244    1.0788 C   0  0  0  0  0  0  0  0  0  0  0  0
   -0.6165    2.2217    0.2506 C   0  0  0  0  0  0  0  0  0  0  0  0
   -1.2165    2.0914   -1.0473 O   0  0  0  0  0  0  0  0  0  0  0  0
   -0.6734    0.9391   -1.7549 C   0  0  0  0  0  0  0  0  0  0  0  0
   -0.4120    1.0706   -3.1629 N   0  0  0  0  0  0  0  0  0  0  0  0
   -0.4922   -0.0263   -1.0605 N   0  0  0  0  0  0  0  0  0  0  0  0
   -1.9517   -1.0415    0.4365 C   0  0  0  0  0  0  0  0  0  0  0  0
   -3.1518   -0.5224    0.1479 C   0  0  0  0  0  0  0  0  0  0  0  0
   -4.3535   -1.2462    0.1943 C   0  0  0  0  0  0  0  0  0  0  0  0
   -5.5317   -0.5038   -0.1586 C   0  0  0  0  0  0  0  0  0  0  0  0
   -6.6893   -1.0698   -0.4815 C   0  0  0  0  0  0  0  0  0  0  0  0
   -7.8327   -0.2055   -0.8544 C   0  0  0  0  0  0  0  0  0  0  0  0
   -7.4153    1.0965   -1.4480 C   0  0  0  0  0  0  0  0  0  0  0  0
   -6.0568    1.3983   -1.3280 O   0  0  0  0  0  0  0  0  0  0  0  0
   -5.5832    0.9727   -0.0921 C   0  0  0  0  0  0  0  0  0  0  0  0
   -4.2909   -2.4566    0.5317 N   0  0  0  0  0  0  0  0  0  0  0  0
   -3.1365   -3.1557    0.8647 C   0  0  0  0  0  0  0  0  0  0  0  0
   -3.2023   -4.4355    1.2298 F   0  0  0  0  0  0  0  0  0  0  0  0
   -1.9374   -2.4253    0.8134 C   0  0  0  0  0  0  0  0  0  0  0  0
   -0.7544   -2.9863    1.1017 O   0  0  0  0  0  0  0  0  0  0  0  0
    6.0902    0.8924   -0.5699 N   0  0  0  0  0  0  0  0  0  0  0  0
    7.1121    1.4451   -1.2634 C   0  0  0  0  0  0  0  0  0  0  0  0
    9.5621    1.4755    0.9498 H   0  0  0  0  0  0  0  0  0  0  0  0
    7.6485    0.4408    2.3037 H   0  0  0  0  0  0  0  0  0  0  0  0
    4.1126   -0.2534   -0.3733 H   0  0  0  0  0  0  0  0  0  0  0  0
    3.7079   -3.0621    1.5724 H   0  0  0  0  0  0  0  0  0  0  0  0
    1.5881   -4.1697    1.6404 H   0  0  0  0  0  0  0  0  0  0  0  0
    1.8087    0.6169    0.4340 H   0  0  0  0  0  0  0  0  0  0  0  0
    0.0339    1.0023    1.8433 H   0  0  0  0  0  0  0  0  0  0  0  0
   -1.7548    1.0616    1.6945 H   0  0  0  0  0  0  0  0  0  0  0  0
   -1.1927    3.1263    0.6658 H   0  0  0  0  0  0  0  0  0  0  0  0
    0.4433    2.5782    0.1958 H   0  0  0  0  0  0  0  0  0  0  0  0
   -0.7198    1.8737   -3.6813 H   0  0  0  0  0  0  0  0  0  0  0  0
    0.1137    0.2926   -3.6135 H   0  0  0  0  0  0  0  0  0  0  0  0
   -3.2175    0.5202   -0.1581 H   0  0  0  0  0  0  0  0  0  0  0  0
   -6.7923   -2.1666   -0.4784 H   0  0  0  0  0  0  0  0  0  0  0  0
   -8.4874   -0.0391    0.0131 H   0  0  0  0  0  0  0  0  0  0  0  0
   -8.4299   -0.7832   -1.6138 H   0  0  0  0  0  0  0  0  0  0  0  0
   -7.9617    1.9763   -1.0178 H   0  0  0  0  0  0  0  0  0  0  0  0
   -7.6314    1.0679   -2.5446 H   0  0  0  0  0  0  0  0  0  0  0  0
   -6.4446    1.2211    0.6278 H   0  0  0  0  0  0  0  0  0  0  0  0
   -4.6992    1.5072    0.1681 H   0  0  0  0  0  0  0  0  0  0  0  0
    6.9138    1.7425   -2.2998 H   0  0  0  0  0  0  0  0  0  0  0  0
  1  2  3  0
  2  3  1  0
  3  4  2  0
  4  5  1  0
  5  6  2  0
  6  7  1  0
  7  8  2  0
  7  9  1  0
  9 10  1  0
 10 11  2  0
 11 12  1  0
 12 13  2  0
 13 14  1  0
 14 15  2  0
 14 16  1  0
 16 17  1  0
 17 18  1  0
 18 19  1  0
 19 20  1  0
 20 21  1  0
 20 22  2  0
 16 23  1  0
 23 24  2  0
 24 25  1  0
 25 26  1  0
 26 27  2  0
 27 28  1  0
 28 29  1  0
 29 30  1  0
 30 31  1  0
 25 32  2  0
 32 33  1  0
 33 34  1  0
 33 35  2  0
 35 36  1  0
  6 37  1  0
 37 38  2  0
 38  3  1  0
 15 10  1  0
 22 16  1  0
 35 23  1  0
 36 13  1  0
 31 26  1  0
  4 39  1  0
  5 40  1  0
  9 41  1  0
 11 42  1  0
 12 43  1  0
 15 44  1  0
 17 45  1  0
 17 46  1  0
 18 47  1  0
 18 48  1  0
 21 49  1  0
 21 50  1  0
 24 51  1  0
 27 52  1  0
 28 53  1  0
 28 54  1  0
 29 55  1  0
 29 56  1  0
 31 57  1  0
 31 58  1  0
 38 59  1  0
M  END
$$$$
