
     RDKit          3D

 55 57  0  0  0  0  0  0  0  0999 V2000
   -4.3263   -0.7993   -1.6709 C   0  0  0  0  0  0  0  0  0  0  0  0
   -2.9106   -1.0708   -1.2673 C   0  0  0  0  0  0  0  0  0  0  0  0
   -2.5645   -0.4062    0.0039 C   0  0  0  0  0  0  0  0  0  0  0  0
   -3.5308   -0.9089    1.0846 C   0  0  0  0  0  0  0  0  0  0  0  0
   -3.4583   -2.3878    1.2886 C   0  0  0  0  0  0  0  0  0  0  0  0
   -1.2086   -0.7334    0.5068 C   0  0  0  0  0  0  0  0  0  0  0  0
   -1.0944   -1.4182    1.5397 O   0  0  0  0  0  0  0  0  0  0  0  0
   -0.0389   -0.3208   -0.1065 O   0  0  0  0  0  0  0  0  0  0  0  0
    1.2515   -0.6595    0.4134 C   0  0  0  0  0  0  0  0  0  0  0  0
    1.9186   -1.5152   -0.6339 C   0  0  0  0  0  0  0  0  0  0  0  0
    3.4122   -1.3223   -0.6698 C   0  0  0  0  0  0  0  0  0  0  0  0
    3.8629   -1.0483    0.7731 C   0  0  0  0  0  0  0  0  0  0  0  0
    3.5179    0.4153    0.4663 C   0  0  0  0  0  0  0  0  0  0  0  0
    2.0522    0.5698    0.7621 C   0  0  2  0  0  0  0  0  0  0  0  0
    1.9275    0.8359    2.2586 C   0  0  0  0  0  0  0  0  0  0  0  0
    3.8062    0.0927   -0.9705 C   0  0  0  0  0  0  0  0  0  0  0  0
    5.2787    0.2169   -1.2633 C   0  0  0  0  0  0  0  0  0  0  0  0
    2.9885    0.8158   -1.9922 C   0  0  0  0  0  0  0  0  0  0  0  0
   -2.6538    1.0709    0.0045 C   0  0  0  0  0  0  0  0  0  0  0  0
   -3.0654    1.8606   -1.0198 C   0  0  0  0  0  0  0  0  0  0  0  0
   -3.1171    3.2491   -0.8776 C   0  0  0  0  0  0  0  0  0  0  0  0
   -2.7657    3.8510    0.2637 N   0  0  0  0  0  0  0  0  0  0  0  0
   -2.3555    3.1195    1.2947 C   0  0  0  0  0  0  0  0  0  0  0  0
   -2.2951    1.7494    1.1821 C   0  0  0  0  0  0  0  0  0  0  0  0
   -4.9496   -1.7522   -1.6332 H   0  0  0  0  0  0  0  0  0  0  0  0
   -4.4274   -0.4833   -2.7290 H   0  0  0  0  0  0  0  0  0  0  0  0
   -4.8704   -0.0804   -1.0427 H   0  0  0  0  0  0  0  0  0  0  0  0
   -2.2099   -0.7799   -2.0812 H   0  0  0  0  0  0  0  0  0  0  0  0
   -2.7930   -2.1590   -1.1425 H   0  0  0  0  0  0  0  0  0  0  0  0
   -4.5567   -0.5583    0.9146 H   0  0  0  0  0  0  0  0  0  0  0  0
   -3.1940   -0.4184    2.0373 H   0  0  0  0  0  0  0  0  0  0  0  0
   -3.4275   -2.6326    2.3720 H   0  0  0  0  0  0  0  0  0  0  0  0
   -2.6842   -2.9162    0.7369 H   0  0  0  0  0  0  0  0  0  0  0  0
   -4.4370   -2.8094    0.9322 H   0  0  0  0  0  0  0  0  0  0  0  0
    1.1688   -1.2712    1.3346 H   0  0  0  0  0  0  0  0  0  0  0  0
    1.7333   -2.5932   -0.4709 H   0  0  0  0  0  0  0  0  0  0  0  0
    1.5385   -1.2894   -1.6569 H   0  0  0  0  0  0  0  0  0  0  0  0
    3.9752   -2.1214   -1.1367 H   0  0  0  0  0  0  0  0  0  0  0  0
    4.9507   -1.1391    0.9267 H   0  0  0  0  0  0  0  0  0  0  0  0
    3.2199   -1.5119    1.5383 H   0  0  0  0  0  0  0  0  0  0  0  0
    4.1447    1.1524    0.9583 H   0  0  0  0  0  0  0  0  0  0  0  0
    1.6790    1.4284    0.1624 H   0  0  0  0  0  0  0  0  0  0  0  0
    2.9083    1.1242    2.7050 H   0  0  0  0  0  0  0  0  0  0  0  0
    1.6417   -0.1146    2.7926 H   0  0  0  0  0  0  0  0  0  0  0  0
    1.2314    1.6556    2.4804 H   0  0  0  0  0  0  0  0  0  0  0  0
    5.8445    0.5963   -0.3772 H   0  0  0  0  0  0  0  0  0  0  0  0
    5.4788    0.9528   -2.0825 H   0  0  0  0  0  0  0  0  0  0  0  0
    5.7385   -0.7383   -1.5827 H   0  0  0  0  0  0  0  0  0  0  0  0
    3.3102    1.8839   -1.9803 H   0  0  0  0  0  0  0  0  0  0  0  0
    3.2652    0.4269   -2.9895 H   0  0  0  0  0  0  0  0  0  0  0  0
    1.9101    0.8140   -1.7910 H   0  0  0  0  0  0  0  0  0  0  0  0
   -3.3444    1.4472   -1.9519 H   0  0  0  0  0  0  0  0  0  0  0  0
   -3.4477    3.8321   -1.7098 H   0  0  0  0  0  0  0  0  0  0  0  0
   -2.0709    3.5959    2.2157 H   0  0  0  0  0  0  0  0  0  0  0  0
   -1.9573    1.2029    2.0424 H   0  0  0  0  0  0  0  0  0  0  0  0
  1  2  1  0
  2  3  1  0
  3  4  1  0
  4  5  1  0
  3  6  1  0
  6  7  2  0
  6  8  1  0
  8  9  1  0
  9 10  1  0
 10 11  1  0
 11 12  1  0
 12 13  1  0
 13 14  1  0
 14 15  1  0
 13 16  1  0
 16 17  1  0
 16 18  1  0
  3 19  1  0
 19 20  2  0
 20 21  1  0
 21 22  2  0
 22 23  1  0
 23 24  2  0
 14  9  1  0
 24 19  1  0
 16 11  1  0
  1 25  1  0
  1 26  1  0
  1 27  1  0
  2 28  1  0
  2 29  1  0
  4 30  1  0
  4 31  1  0
  5 32  1  0
  5 33  1  0
  5 34  1  0
  9 35  1  0
 10 36  1  0
 10 37  1  0
 11 38  1  0
 12 39  1  0
 12 40  1  0
 13 41  1  0
 14 42  1  6
 15 43  1  0
 15 44  1  0
 15 45  1  0
 17 46  1  0
 17 47  1  0
 17 48  1  0
 18 49  1  0
 18 50  1  0
 18 51  1  0
 20 52  1  0
 21 53  1  0
 23 54  1  0
 24 55  1  0
M  END
$$$$
