@<TRIPOS>MOLECULE
*****
 44 46 0 0 0
SMALL
GASTEIGER

@<TRIPOS>ATOM
      1 O          -4.5283   -0.1667    2.6040 O.2     1  UNL1       -0.2737
      2 C          -4.5305   -0.7931    1.5346 C.2     1  UNL1        0.2354
      3 C          -3.9652   -0.1887    0.2943 C.3     1  UNL1        0.0259
      4 C          -3.4552    1.1943    0.6185 C.3     1  UNL1       -0.0447
      5 C          -2.8931    1.8046   -0.6211 C.3     1  UNL1       -0.0526
      6 C          -1.7574    1.0362   -1.2113 C.3     1  UNL1       -0.0514
      7 C          -1.2979    1.7788   -2.4479 C.3     1  UNL1       -0.0334
      8 C          -0.1469    1.0655   -3.1108 C.3     1  UNL1        0.0415
      9 N           0.9406    0.9961   -2.1555 N.ar    1  UNL1       -0.2708
     10 C           1.1513    0.0032   -1.2727 C.ar    1  UNL1        0.0347
     11 C           2.2837    0.3067   -0.5456 C.ar    1  UNL1        0.0385
     12 C           2.8571   -0.5154    0.5176 C.ar    1  UNL1        0.0863
     13 N           2.0380   -1.0471    1.4542 N.ar    1  UNL1       -0.2346
     14 C           2.5495   -1.8087    2.4433 C.ar    1  UNL1        0.1189
     15 N           3.8734   -2.0495    2.5130 N.ar    1  UNL1       -0.2179
     16 C           4.7214   -1.5338    1.5935 C.ar    1  UNL1        0.1419
     17 N           6.0523   -1.5868    1.3916 N.ar    1  UNL1       -0.3457
     18 C           6.3939   -0.8784    0.3005 C.ar    1  UNL1        0.0042
     19 C           5.2588   -0.3281   -0.2540 C.ar    1  UNL1       -0.0330
     20 C           4.2194   -0.7458    0.5644 C.ar    1  UNL1        0.0447
     21 C           2.7498    1.5104   -1.0149 C.ar    1  UNL1        0.0586
     22 N           1.9144    1.9057   -1.9924 N.ar    1  UNL1       -0.1790
     23 N          -5.0792   -2.0985    1.5009 N.am    1  UNL1       -0.1975
     24 O          -5.6062   -2.6988    2.5934 O.3     1  UNL1       -0.2952
     25 H          -3.1733   -0.8294   -0.1203 H       1  UNL1        0.0359
     26 H          -4.7520   -0.1004   -0.4810 H       1  UNL1        0.0359
     27 H          -4.2561    1.8585    0.9917 H       1  UNL1        0.0270
     28 H          -2.6467    1.0641    1.3835 H       1  UNL1        0.0270
     29 H          -3.6791    1.8895   -1.4128 H       1  UNL1        0.0265
     30 H          -2.5142    2.8425   -0.4192 H       1  UNL1        0.0265
     31 H          -2.0134    0.0122   -1.5437 H       1  UNL1        0.0266
     32 H          -0.9659    0.9413   -0.4442 H       1  UNL1        0.0266
     33 H          -1.0349    2.8267   -2.2074 H       1  UNL1        0.0283
     34 H          -2.1543    1.7863   -3.1521 H       1  UNL1        0.0283
     35 H          -0.4890    0.0083   -3.3028 H       1  UNL1        0.0509
     36 H           0.1713    1.5610   -4.0413 H       1  UNL1        0.0509
     37 H           0.5544   -0.9036   -1.1239 H       1  UNL1        0.0833
     38 H           1.8649   -2.2253    3.1859 H       1  UNL1        0.1048
     39 H           6.7358   -2.1047    1.9940 H       1  UNL1        0.1668
     40 H           7.3897   -0.7369   -0.1112 H       1  UNL1        0.0807
     41 H           5.2274    0.2910   -1.1384 H       1  UNL1        0.0640
     42 H           3.6377    2.0173   -0.6364 H       1  UNL1        0.0854
     43 H          -5.0609   -2.5918    0.5777 H       1  UNL1        0.1822
     44 H          -6.5846   -2.7687    2.4740 H       1  UNL1        0.2414
@<TRIPOS>BOND
     1     1     2    2
     2     2     3    1
     3     3     4    1
     4     4     5    1
     5     5     6    1
     6     6     7    1
     7     7     8    1
     8     8     9    1
     9     9    10   ar
    10    10    11   ar
    11    11    12    1
    12    12    13   ar
    13    13    14   ar
    14    14    15   ar
    15    15    16   ar
    16    16    17   ar
    17    17    18   ar
    18    18    19   ar
    19    19    20   ar
    20    11    21   ar
    21    21    22   ar
    22     2    23   am
    23    23    24    1
    24    22     9   ar
    25    20    12   ar
    26    20    16   ar
    27     3    25    1
    28     3    26    1
    29     4    27    1
    30     4    28    1
    31     5    29    1
    32     5    30    1
    33     6    31    1
    34     6    32    1
    35     7    33    1
    36     7    34    1
    37     8    35    1
    38     8    36    1
    39    10    37    1
    40    14    38    1
    41    17    39    1
    42    18    40    1
    43    19    41    1
    44    21    42    1
    45    23    43    1
    46    24    44    1
