
     RDKit          3D

 59 62  0  0  0  0  0  0  0  0999 V2000
   -6.7074    1.3065   -3.1426 N   0  0  0  0  0  0  0  0  0  0  0  0
   -6.3299    0.7859   -1.8970 C   0  0  0  0  0  0  0  0  0  0  0  0
   -6.0026    0.3396   -0.7778 C   0  0  0  0  0  0  0  0  0  0  0  0
   -4.6837    0.6981   -0.0927 N   0  0  0  0  0  0  0  0  0  0  0  0
   -3.4802    0.0867   -0.6526 C   0  0  0  0  0  0  0  0  0  0  0  0
   -3.6300   -0.6761   -1.5975 O   0  0  0  0  0  0  0  0  0  0  0  0
   -2.1560    0.4701   -0.0119 C   0  0  2  0  0  0  0  0  0  0  0  0
   -2.0235    1.9484   -0.4613 C   0  0  0  0  0  0  0  0  0  0  0  0
   -0.6471    2.4655   -0.2218 C   0  0  0  0  0  0  0  0  0  0  0  0
   -0.2350    3.0883    0.9222 C   0  0  0  0  0  0  0  0  0  0  0  0
    1.1358    3.4444    1.1285 C   0  0  0  0  0  0  0  0  0  0  0  0
    2.0984    3.1784    0.1921 C   0  0  0  0  0  0  0  0  0  0  0  0
    1.6814    2.5770   -0.9516 C   0  0  0  0  0  0  0  0  0  0  0  0
    2.6752    2.1888   -2.4373 Cl  0  0  0  0  0  0  0  0  0  0  0  0
    0.3160    2.2084   -1.1864 C   0  0  0  0  0  0  0  0  0  0  0  0
    3.4278    3.4763    0.4174 O   0  0  0  0  0  0  0  0  0  0  0  0
    4.3493    2.8361    1.2475 C   0  0  0  0  0  0  0  0  0  0  0  0
    4.6246    1.3900    1.1233 C   0  0  0  0  0  0  0  0  0  0  0  0
    3.6726    0.4291    1.7154 C   0  0  0  0  0  0  0  0  0  0  0  0
    2.3198    0.2718    1.2080 C   0  0  0  0  0  0  0  0  0  0  0  0
    2.0825   -0.3539   -0.0463 O   0  0  0  0  0  0  0  0  0  0  0  0
    2.0259   -1.7327   -0.2861 C   0  0  0  0  0  0  0  0  0  0  0  0
    3.0133   -2.5686   -0.6870 C   0  0  0  0  0  0  0  0  0  0  0  0
    2.8767   -3.9416   -0.8852 C   0  0  0  0  0  0  0  0  0  0  0  0
    3.9785   -4.7912   -1.3676 C   0  0  0  0  0  0  0  0  0  0  0  0
    3.3880   -6.0154   -1.7238 F   0  0  0  0  0  0  0  0  0  0  0  0
    4.9915   -5.0139   -0.4671 F   0  0  0  0  0  0  0  0  0  0  0  0
    4.4356   -4.2342   -2.5527 F   0  0  0  0  0  0  0  0  0  0  0  0
    1.5914   -4.4354   -0.6305 C   0  0  0  0  0  0  0  0  0  0  0  0
    0.5891   -3.6353   -0.2300 C   0  0  0  0  0  0  0  0  0  0  0  0
    0.7189   -2.2827   -0.0428 C   0  0  0  0  0  0  0  0  0  0  0  0
   -0.4388   -1.3674    0.2056 C   0  0  0  0  0  0  0  0  0  0  0  0
   -0.9968   -1.5952    1.3707 O   0  0  0  0  0  0  0  0  0  0  0  0
   -1.0510   -0.3445   -0.5034 N   0  0  0  0  0  0  0  0  0  0  0  0
   -7.1270    0.1333    0.3286 C   0  0  0  0  0  0  0  0  0  0  0  0
   -6.4160   -1.0272   -0.2407 C   0  0  0  0  0  0  0  0  0  0  0  0
   -4.6978    1.3268    0.6933 H   0  0  0  0  0  0  0  0  0  0  0  0
   -2.3489    0.4443    1.0416 H   0  0  0  0  0  0  0  0  0  0  0  0
   -2.4992    2.1068   -1.4512 H   0  0  0  0  0  0  0  0  0  0  0  0
   -2.8684    2.4142    0.1339 H   0  0  0  0  0  0  0  0  0  0  0  0
   -0.8214    3.4136    1.8554 H   0  0  0  0  0  0  0  0  0  0  0  0
    1.2542    3.9650    2.1225 H   0  0  0  0  0  0  0  0  0  0  0  0
    0.2909    1.7640   -2.2053 H   0  0  0  0  0  0  0  0  0  0  0  0
    5.3298    3.4397    1.2556 H   0  0  0  0  0  0  0  0  0  0  0  0
    3.9668    3.0136    2.3145 H   0  0  0  0  0  0  0  0  0  0  0  0
    4.9324    1.1001    0.0675 H   0  0  0  0  0  0  0  0  0  0  0  0
    5.6107    1.2204    1.6778 H   0  0  0  0  0  0  0  0  0  0  0  0
    3.5761    0.7597    2.8085 H   0  0  0  0  0  0  0  0  0  0  0  0
    4.2098   -0.5690    1.8276 H   0  0  0  0  0  0  0  0  0  0  0  0
    1.5927    1.0145    1.5164 H   0  0  0  0  0  0  0  0  0  0  0  0
    1.9025   -0.5944    1.9966 H   0  0  0  0  0  0  0  0  0  0  0  0
    4.0524   -2.1946   -0.9329 H   0  0  0  0  0  0  0  0  0  0  0  0
    1.4669   -5.5189   -0.7730 H   0  0  0  0  0  0  0  0  0  0  0  0
   -0.3985   -4.1295   -0.0030 H   0  0  0  0  0  0  0  0  0  0  0  0
   -0.8595    0.0397   -1.5027 H   0  0  0  0  0  0  0  0  0  0  0  0
   -8.1600    0.2978   -0.1090 H   0  0  0  0  0  0  0  0  0  0  0  0
   -6.9489    0.6385    1.2469 H   0  0  0  0  0  0  0  0  0  0  0  0
   -5.7074   -1.5034    0.5060 H   0  0  0  0  0  0  0  0  0  0  0  0
   -6.9420   -1.7561   -0.8525 H   0  0  0  0  0  0  0  0  0  0  0  0
  1  2  3  0
  2  3  1  0
  3  4  1  0
  4  5  1  0
  5  6  2  0
  5  7  1  0
  7  8  1  0
  8  9  1  0
  9 10  2  0
 10 11  1  0
 11 12  2  0
 12 13  1  0
 13 14  1  0
 13 15  2  0
 12 16  1  0
 16 17  1  0
 17 18  1  0
 18 19  1  0
 19 20  1  0
 20 21  1  0
 21 22  1  0
 22 23  2  0
 23 24  1  0
 24 25  1  0
 25 26  1  0
 25 27  1  0
 25 28  1  0
 24 29  2  0
 29 30  1  0
 30 31  2  0
 31 32  1  0
 32 33  2  0
 32 34  1  0
  3 35  1  0
 35 36  1  0
 36  3  1  0
 34  7  1  0
 15  9  1  0
 31 22  1  0
  4 37  1  0
  7 38  1  1
  8 39  1  0
  8 40  1  0
 10 41  1  0
 11 42  1  0
 15 43  1  0
 17 44  1  0
 17 45  1  0
 18 46  1  0
 18 47  1  0
 19 48  1  0
 19 49  1  0
 20 50  1  0
 20 51  1  0
 23 52  1  0
 29 53  1  0
 30 54  1  0
 34 55  1  0
 35 56  1  0
 35 57  1  0
 36 58  1  0
 36 59  1  0
M  END
$$$$
