@<TRIPOS>MOLECULE
*****
 59 62 0 0 0
SMALL
GASTEIGER

@<TRIPOS>ATOM
      1 N          -6.7074    1.3065   -3.1426 N.1     1  UNL1       -0.1943
      2 C          -6.3299    0.7859   -1.8970 C.1     1  UNL1        0.0883
      3 C          -6.0026    0.3396   -0.7778 C.3     1  UNL1        0.1215
      4 N          -4.6837    0.6981   -0.0927 N.am    1  UNL1       -0.2958
      5 C          -3.4802    0.0867   -0.6526 C.2     1  UNL1        0.2348
      6 O          -3.6300   -0.6761   -1.5975 O.2     1  UNL1       -0.2737
      7 C          -2.1560    0.4701   -0.0119 C.3     1  UNL1        0.1036
      8 C          -2.0235    1.9484   -0.4613 C.3     1  UNL1       -0.0006
      9 C          -0.6471    2.4655   -0.2218 C.ar    1  UNL1       -0.0435
     10 C          -0.2350    3.0883    0.9222 C.ar    1  UNL1       -0.0550
     11 C           1.1358    3.4444    1.1285 C.ar    1  UNL1       -0.0182
     12 C           2.0984    3.1784    0.1921 C.ar    1  UNL1        0.1387
     13 C           1.6814    2.5770   -0.9516 C.ar    1  UNL1        0.0828
     14 CL          2.6752    2.1888   -2.4373 Cl      1  UNL1       -0.0797
     15 C           0.3160    2.2084   -1.1864 C.ar    1  UNL1       -0.0366
     16 O           3.4278    3.4763    0.4174 O.3     1  UNL1       -0.4905
     17 C           4.3493    2.8361    1.2475 C.3     1  UNL1        0.0898
     18 C           4.6246    1.3900    1.1233 C.3     1  UNL1       -0.0156
     19 C           3.6726    0.4291    1.7154 C.3     1  UNL1       -0.0156
     20 C           2.3198    0.2718    1.2080 C.3     1  UNL1        0.0897
     21 O           2.0825   -0.3539   -0.0463 O.3     1  UNL1       -0.4912
     22 C           2.0259   -1.7327   -0.2861 C.ar    1  UNL1        0.1331
     23 C           3.0133   -2.5686   -0.6870 C.ar    1  UNL1       -0.0076
     24 C           2.8767   -3.9416   -0.8852 C.ar    1  UNL1        0.0583
     25 C           3.9785   -4.7912   -1.3676 C.3     1  UNL1        0.4175
     26 F           3.3880   -6.0154   -1.7238 F       1  UNL1       -0.1659
     27 F           4.9915   -5.0139   -0.4671 F       1  UNL1       -0.1659
     28 F           4.4356   -4.2342   -2.5527 F       1  UNL1       -0.1659
     29 C           1.5914   -4.4354   -0.6305 C.ar    1  UNL1       -0.0492
     30 C           0.5891   -3.6353   -0.2300 C.ar    1  UNL1       -0.0456
     31 C           0.7189   -2.2827   -0.0428 C.ar    1  UNL1        0.0783
     32 C          -0.4388   -1.3674    0.2056 C.2     1  UNL1        0.2482
     33 O          -0.9968   -1.5952    1.3707 O.2     1  UNL1       -0.2701
     34 N          -1.0510   -0.3445   -0.5034 N.am    1  UNL1       -0.2996
     35 C          -7.1270    0.1333    0.3286 C.3     1  UNL1       -0.0154
     36 C          -6.4160   -1.0272   -0.2407 C.3     1  UNL1       -0.0154
     37 H          -4.6978    1.3268    0.6933 H       1  UNL1        0.1503
     38 H          -2.3489    0.4443    1.0416 H       1  UNL1        0.0598
     39 H          -2.4992    2.1068   -1.4512 H       1  UNL1        0.0336
     40 H          -2.8684    2.4142    0.1339 H       1  UNL1        0.0336
     41 H          -0.8214    3.4136    1.8554 H       1  UNL1        0.0621
     42 H           1.2542    3.9650    2.1225 H       1  UNL1        0.0655
     43 H           0.2909    1.7640   -2.2053 H       1  UNL1        0.0636
     44 H           5.3298    3.4397    1.2556 H       1  UNL1        0.0696
     45 H           3.9668    3.0136    2.3145 H       1  UNL1        0.0696
     46 H           4.9324    1.1001    0.0675 H       1  UNL1        0.0299
     47 H           5.6107    1.2204    1.6778 H       1  UNL1        0.0299
     48 H           3.5761    0.7597    2.8085 H       1  UNL1        0.0299
     49 H           4.2098   -0.5690    1.8276 H       1  UNL1        0.0299
     50 H           1.5927    1.0145    1.5164 H       1  UNL1        0.0696
     51 H           1.9025   -0.5944    1.9966 H       1  UNL1        0.0696
     52 H           4.0524   -2.1946   -0.9329 H       1  UNL1        0.0660
     53 H           1.4669   -5.5189   -0.7730 H       1  UNL1        0.0623
     54 H          -0.3985   -4.1295   -0.0030 H       1  UNL1        0.0626
     55 H          -0.8595    0.0397   -1.5027 H       1  UNL1        0.1498
     56 H          -8.1600    0.2978   -0.1090 H       1  UNL1        0.0297
     57 H          -6.9489    0.6385    1.2469 H       1  UNL1        0.0297
     58 H          -5.7074   -1.5034    0.5060 H       1  UNL1        0.0297
     59 H          -6.9420   -1.7561   -0.8525 H       1  UNL1        0.0297
@<TRIPOS>BOND
     1     1     2    3
     2     2     3    1
     3     3     4    1
     4     4     5   am
     5     5     6    2
     6     5     7    1
     7     7     8    1
     8     8     9    1
     9     9    10   ar
    10    10    11   ar
    11    11    12   ar
    12    12    13   ar
    13    13    14    1
    14    13    15   ar
    15    12    16    1
    16    16    17    1
    17    17    18    1
    18    18    19    1
    19    19    20    1
    20    20    21    1
    21    21    22    1
    22    22    23   ar
    23    23    24   ar
    24    24    25    1
    25    25    26    1
    26    25    27    1
    27    25    28    1
    28    24    29   ar
    29    29    30   ar
    30    30    31   ar
    31    31    32    1
    32    32    33    2
    33    32    34   am
    34     3    35    1
    35    35    36    1
    36    36     3    1
    37    34     7    1
    38    15     9   ar
    39    31    22   ar
    40     4    37    1
    41     7    38    1
    42     8    39    1
    43     8    40    1
    44    10    41    1
    45    11    42    1
    46    15    43    1
    47    17    44    1
    48    17    45    1
    49    18    46    1
    50    18    47    1
    51    19    48    1
    52    19    49    1
    53    20    50    1
    54    20    51    1
    55    23    52    1
    56    29    53    1
    57    30    54    1
    58    34    55    1
    59    35    56    1
    60    35    57    1
    61    36    58    1
    62    36    59    1
