@<TRIPOS>MOLECULE
*****
 43 45 0 0 0
SMALL
GASTEIGER

@<TRIPOS>ATOM
      1 C           6.1793   -1.0039   -1.2029 C.3     1  UNL1       -0.0397
      2 C           4.7973   -0.8004   -0.7073 C.ar    1  UNL1       -0.0503
      3 C           3.7621   -1.4409   -1.3419 C.ar    1  UNL1       -0.0570
      4 C           2.4588   -1.2724   -0.9042 C.ar    1  UNL1       -0.0351
      5 C           2.1561   -0.4653    0.1713 C.ar    1  UNL1        0.1055
      6 S           0.5032   -0.2623    0.7045 S.O2    1  UNL1        0.0618
      7 O          -0.2558   -1.4919    0.2188 O.2     1  UNL1       -0.1528
      8 O           0.4076   -0.2829    2.1939 O.2     1  UNL1       -0.1528
      9 N          -0.1497    1.0922   -0.0359 N.3     1  UNL1       -0.1599
     10 C          -0.1816    0.9693   -1.4613 C.3     1  UNL1        0.0257
     11 C          -1.4207    0.3359   -2.0222 C.3     1  UNL1       -0.0127
     12 C          -2.3524   -0.2041   -1.0346 C.ar    1  UNL1       -0.0375
     13 C          -3.1644   -1.2657   -1.3685 C.ar    1  UNL1       -0.0166
     14 C          -4.0383   -1.7745   -0.4347 C.ar    1  UNL1        0.1171
     15 O          -4.8915   -2.8477   -0.6992 O.3     1  UNL1       -0.5068
     16 C          -4.0693   -1.1968    0.8144 C.ar    1  UNL1       -0.0198
     17 C          -3.2457   -0.1190    1.1547 C.ar    1  UNL1       -0.0529
     18 C          -2.3864    0.3778    0.2286 C.ar    1  UNL1       -0.0164
     19 C          -1.4479    1.5092    0.4224 C.3     1  UNL1        0.1349
     20 C          -1.4645    2.1100    1.7469 C.2     1  UNL1        0.2588
     21 O          -0.4458    2.1983    2.5022 O.2     1  UNL1       -0.2716
     22 N          -2.6561    2.6570    2.3042 N.am    1  UNL1       -0.1959
     23 O          -2.6730    3.2233    3.5549 O.3     1  UNL1       -0.2951
     24 C           3.2082    0.1704    0.7969 C.ar    1  UNL1       -0.0351
     25 C           4.5122    0.0137    0.3742 C.ar    1  UNL1       -0.0570
     26 H           6.2269   -0.7625   -2.2786 H       1  UNL1        0.0278
     27 H           6.8649   -0.3952   -0.5795 H       1  UNL1        0.0278
     28 H           6.4183   -2.0747   -1.0868 H       1  UNL1        0.0278
     29 H           3.9340   -2.0896   -2.1942 H       1  UNL1        0.0621
     30 H           1.6667   -1.7944   -1.4248 H       1  UNL1        0.0637
     31 H           0.6855    0.3475   -1.7653 H       1  UNL1        0.0447
     32 H          -0.0208    1.9824   -1.8925 H       1  UNL1        0.0447
     33 H          -1.9629    1.1136   -2.6044 H       1  UNL1        0.0326
     34 H          -1.1827   -0.4669   -2.7564 H       1  UNL1        0.0326
     35 H          -3.1638   -1.7413   -2.3400 H       1  UNL1        0.0657
     36 H          -5.8747   -2.7224   -0.9002 H       1  UNL1        0.2921
     37 H          -4.7544   -1.5906    1.5570 H       1  UNL1        0.0654
     38 H          -3.2698    0.3253    2.1259 H       1  UNL1        0.0622
     39 H          -1.7708    2.2991   -0.3204 H       1  UNL1        0.0626
     40 H          -3.5780    2.6607    1.7932 H       1  UNL1        0.1823
     41 H          -1.7499    3.3620    3.8545 H       1  UNL1        0.2414
     42 H           3.0373    0.8153    1.6443 H       1  UNL1        0.0637
     43 H           5.3525    0.5023    0.8498 H       1  UNL1        0.0621
@<TRIPOS>BOND
     1     1     2    1
     2     2     3   ar
     3     3     4   ar
     4     4     5   ar
     5     5     6    1
     6     6     7    2
     7     6     8    2
     8     6     9    1
     9     9    10    1
    10    10    11    1
    11    11    12    1
    12    12    13   ar
    13    13    14   ar
    14    14    15    1
    15    14    16   ar
    16    16    17   ar
    17    17    18   ar
    18    18    19    1
    19    19    20    1
    20    20    21    2
    21    20    22   am
    22    22    23    1
    23     5    24   ar
    24    24    25   ar
    25    25     2   ar
    26    19     9    1
    27    18    12   ar
    28     1    26    1
    29     1    27    1
    30     1    28    1
    31     3    29    1
    32     4    30    1
    33    10    31    1
    34    10    32    1
    35    11    33    1
    36    11    34    1
    37    13    35    1
    38    15    36    1
    39    16    37    1
    40    17    38    1
    41    19    39    1
    42    22    40    1
    43    23    41    1
    44    24    42    1
    45    25    43    1
