
     RDKit          3D

 43 45  0  0  0  0  0  0  0  0999 V2000
    6.1793   -1.0039   -1.2029 C   0  0  0  0  0  0  0  0  0  0  0  0
    4.7973   -0.8004   -0.7073 C   0  0  0  0  0  0  0  0  0  0  0  0
    3.7621   -1.4409   -1.3419 C   0  0  0  0  0  0  0  0  0  0  0  0
    2.4588   -1.2724   -0.9042 C   0  0  0  0  0  0  0  0  0  0  0  0
    2.1561   -0.4653    0.1713 C   0  0  0  0  0  0  0  0  0  0  0  0
    0.5032   -0.2623    0.7045 S   0  0  0  0  0  6  0  0  0  0  0  0
   -0.2558   -1.4919    0.2188 O   0  0  0  0  0  0  0  0  0  0  0  0
    0.4076   -0.2829    2.1939 O   0  0  0  0  0  0  0  0  0  0  0  0
   -0.1497    1.0922   -0.0359 N   0  0  0  0  0  0  0  0  0  0  0  0
   -0.1816    0.9693   -1.4613 C   0  0  0  0  0  0  0  0  0  0  0  0
   -1.4207    0.3359   -2.0222 C   0  0  0  0  0  0  0  0  0  0  0  0
   -2.3524   -0.2041   -1.0346 C   0  0  0  0  0  0  0  0  0  0  0  0
   -3.1644   -1.2657   -1.3685 C   0  0  0  0  0  0  0  0  0  0  0  0
   -4.0383   -1.7745   -0.4347 C   0  0  0  0  0  0  0  0  0  0  0  0
   -4.8915   -2.8477   -0.6992 O   0  0  0  0  0  0  0  0  0  0  0  0
   -4.0693   -1.1968    0.8144 C   0  0  0  0  0  0  0  0  0  0  0  0
   -3.2457   -0.1190    1.1547 C   0  0  0  0  0  0  0  0  0  0  0  0
   -2.3864    0.3778    0.2286 C   0  0  0  0  0  0  0  0  0  0  0  0
   -1.4479    1.5092    0.4224 C   0  0  0  0  0  0  0  0  0  0  0  0
   -1.4645    2.1100    1.7469 C   0  0  0  0  0  0  0  0  0  0  0  0
   -0.4458    2.1983    2.5022 O   0  0  0  0  0  0  0  0  0  0  0  0
   -2.6561    2.6570    2.3042 N   0  0  0  0  0  0  0  0  0  0  0  0
   -2.6730    3.2233    3.5549 O   0  0  0  0  0  0  0  0  0  0  0  0
    3.2082    0.1704    0.7969 C   0  0  0  0  0  0  0  0  0  0  0  0
    4.5122    0.0137    0.3742 C   0  0  0  0  0  0  0  0  0  0  0  0
    6.2269   -0.7625   -2.2786 H   0  0  0  0  0  0  0  0  0  0  0  0
    6.8649   -0.3952   -0.5795 H   0  0  0  0  0  0  0  0  0  0  0  0
    6.4183   -2.0747   -1.0868 H   0  0  0  0  0  0  0  0  0  0  0  0
    3.9340   -2.0896   -2.1942 H   0  0  0  0  0  0  0  0  0  0  0  0
    1.6667   -1.7944   -1.4248 H   0  0  0  0  0  0  0  0  0  0  0  0
    0.6855    0.3475   -1.7653 H   0  0  0  0  0  0  0  0  0  0  0  0
   -0.0208    1.9824   -1.8925 H   0  0  0  0  0  0  0  0  0  0  0  0
   -1.9629    1.1136   -2.6044 H   0  0  0  0  0  0  0  0  0  0  0  0
   -1.1827   -0.4669   -2.7564 H   0  0  0  0  0  0  0  0  0  0  0  0
   -3.1638   -1.7413   -2.3400 H   0  0  0  0  0  0  0  0  0  0  0  0
   -5.8747   -2.7224   -0.9002 H   0  0  0  0  0  0  0  0  0  0  0  0
   -4.7544   -1.5906    1.5570 H   0  0  0  0  0  0  0  0  0  0  0  0
   -3.2698    0.3253    2.1259 H   0  0  0  0  0  0  0  0  0  0  0  0
   -1.7708    2.2991   -0.3204 H   0  0  0  0  0  0  0  0  0  0  0  0
   -3.5780    2.6607    1.7932 H   0  0  0  0  0  0  0  0  0  0  0  0
   -1.7499    3.3620    3.8545 H   0  0  0  0  0  0  0  0  0  0  0  0
    3.0373    0.8153    1.6443 H   0  0  0  0  0  0  0  0  0  0  0  0
    5.3525    0.5023    0.8498 H   0  0  0  0  0  0  0  0  0  0  0  0
  1  2  1  0
  2  3  2  0
  3  4  1  0
  4  5  2  0
  5  6  1  0
  6  7  2  0
  6  8  2  0
  6  9  1  0
  9 10  1  0
 10 11  1  0
 11 12  1  0
 12 13  2  0
 13 14  1  0
 14 15  1  0
 14 16  2  0
 16 17  1  0
 17 18  2  0
 18 19  1  0
 19 20  1  0
 20 21  2  0
 20 22  1  0
 22 23  1  0
  5 24  1  0
 24 25  2  0
 25  2  1  0
 19  9  1  0
 18 12  1  0
  1 26  1  0
  1 27  1  0
  1 28  1  0
  3 29  1  0
  4 30  1  0
 10 31  1  0
 10 32  1  0
 11 33  1  0
 11 34  1  0
 13 35  1  0
 15 36  1  0
 16 37  1  0
 17 38  1  0
 19 39  1  0
 22 40  1  0
 23 41  1  0
 24 42  1  0
 25 43  1  0
M  END
$$$$
