
     RDKit          3D

 21 21  0  0  0  0  0  0  0  0999 V2000
    2.0712   -0.5252   -1.4518 C   0  0  0  0  0  0  0  0  0  0  0  0
    1.2020    0.4824   -0.7711 C   0  0  0  0  0  0  0  0  0  0  0  0
    1.3330    1.7967   -1.0456 N   0  0  0  0  0  0  0  0  0  0  0  0
    0.4292    2.4829   -0.2955 C   0  0  0  0  0  0  0  0  0  0  0  0
   -0.2176    1.5196    0.4119 C   0  0  0  0  0  0  0  0  0  0  0  0
    0.2206    0.2980    0.1524 N   0  0  0  0  0  0  0  0  0  0  0  0
   -0.1700   -0.9682    0.6599 C   0  0  0  0  0  0  0  0  0  0  0  0
   -1.2355   -1.7025   -0.0408 C   0  0  0  0  0  0  0  0  0  0  0  0
   -0.8184   -1.9409   -1.3653 O   0  0  0  0  0  0  0  0  0  0  0  0
   -1.2600    1.7931    1.3378 N   0  0  0  0  0  4  0  0  0  0  0  0
   -2.0066    0.9342    2.1246 O   0  0  0  0  0  1  0  0  0  0  0  0
   -1.7023    2.9268    1.6113 O   0  0  0  0  0  0  0  0  0  0  0  0
    2.0783   -1.4219   -0.7899 H   0  0  0  0  0  0  0  0  0  0  0  0
    3.0529   -0.1129   -1.6836 H   0  0  0  0  0  0  0  0  0  0  0  0
    1.5236   -0.8561   -2.3792 H   0  0  0  0  0  0  0  0  0  0  0  0
    0.2929    3.5472   -0.2950 H   0  0  0  0  0  0  0  0  0  0  0  0
   -0.4672   -0.8180    1.7382 H   0  0  0  0  0  0  0  0  0  0  0  0
    0.7302   -1.6148    0.7304 H   0  0  0  0  0  0  0  0  0  0  0  0
   -1.2801   -2.7196    0.4205 H   0  0  0  0  0  0  0  0  0  0  0  0
   -2.2463   -1.3098    0.0190 H   0  0  0  0  0  0  0  0  0  0  0  0
   -1.5299   -1.7910   -2.0260 H   0  0  0  0  0  0  0  0  0  0  0  0
  1  2  1  0
  2  3  2  0
  3  4  1  0
  4  5  2  0
  5  6  1  0
  6  7  1  0
  7  8  1  0
  8  9  1  0
  5 10  1  0
 10 11  1  0
 10 12  2  0
  6  2  1  0
  1 13  1  0
  1 14  1  0
  1 15  1  0
  4 16  1  0
  7 17  1  0
  7 18  1  0
  8 19  1  0
  8 20  1  0
  9 21  1  0
M  CHG  2  10   1  11  -1
M  END
$$$$
