@<TRIPOS>MOLECULE
*****
 21 21 0 0 0
SMALL
GASTEIGER

@<TRIPOS>ATOM
      1 C           2.0712   -0.5252   -1.4518 C.3     1  UNL1       -0.0061
      2 C           1.2020    0.4824   -0.7711 C.ar    1  UNL1        0.1116
      3 N           1.3330    1.7967   -1.0456 N.ar    1  UNL1       -0.2338
      4 C           0.4292    2.4829   -0.2955 C.ar    1  UNL1        0.1255
      5 C          -0.2176    1.5196    0.4119 C.ar    1  UNL1        0.3680
      6 N           0.2206    0.2980    0.1524 N.ar    1  UNL1       -0.2684
      7 C          -0.1700   -0.9682    0.6599 C.3     1  UNL1        0.0535
      8 C          -1.2355   -1.7025   -0.0408 C.3     1  UNL1        0.0623
      9 O          -0.8184   -1.9409   -1.3653 O.3     1  UNL1       -0.3932
     10 N          -1.2600    1.7931    1.3378 N.pl3   1  UNL1        0.1004
     11 O          -2.0066    0.9342    2.1246 O.co2   1  UNL1       -0.5747
     12 O          -1.7023    2.9268    1.6113 O.2     1  UNL1        0.0431
     13 H           2.0783   -1.4219   -0.7899 H       1  UNL1        0.0307
     14 H           3.0529   -0.1129   -1.6836 H       1  UNL1        0.0307
     15 H           1.5236   -0.8561   -2.3792 H       1  UNL1        0.0307
     16 H           0.2929    3.5472   -0.2950 H       1  UNL1        0.0917
     17 H          -0.4672   -0.8180    1.7382 H       1  UNL1        0.0517
     18 H           0.7302   -1.6148    0.7304 H       1  UNL1        0.0517
     19 H          -1.2801   -2.7196    0.4205 H       1  UNL1        0.0575
     20 H          -2.2463   -1.3098    0.0190 H       1  UNL1        0.0575
     21 H          -1.5299   -1.7910   -2.0260 H       1  UNL1        0.2095
@<TRIPOS>UNITY_ATOM_ATTR
10 1
charge 1
11 1
charge -1
@<TRIPOS>BOND
     1     1     2    1
     2     2     3   ar
     3     3     4   ar
     4     4     5   ar
     5     5     6   ar
     6     6     7    1
     7     7     8    1
     8     8     9    1
     9     5    10    1
    10    10    11    1
    11    10    12    2
    12     6     2   ar
    13     1    13    1
    14     1    14    1
    15     1    15    1
    16     4    16    1
    17     7    17    1
    18     7    18    1
    19     8    19    1
    20     8    20    1
    21     9    21    1
