
     RDKit          3D

 32 33  0  0  0  0  0  0  0  0999 V2000
   -4.3470    0.9063    2.2840 C   0  0  0  0  0  0  0  0  0  0  0  0
   -4.1292   -0.0119    1.1396 C   0  0  0  0  0  0  0  0  0  0  0  0
   -4.9654   -0.9158    0.8982 O   0  0  0  0  0  0  0  0  0  0  0  0
   -2.9600    0.1150    0.2875 C   0  0  0  0  0  0  0  0  0  0  0  0
   -2.0281    1.1020    0.5353 C   0  0  0  0  0  0  0  0  0  0  0  0
   -0.9048    1.2576   -0.2482 C   0  0  0  0  0  0  0  0  0  0  0  0
   -0.7064    0.3953   -1.3176 C   0  0  0  0  0  0  0  0  0  0  0  0
    0.6740    0.5333   -2.3361 S   0  0  0  0  0  6  0  0  0  0  0  0
    0.2904    0.4751   -3.8008 O   0  0  0  0  0  0  0  0  0  0  0  0
    1.2531    1.9367   -2.1309 O   0  0  0  0  0  0  0  0  0  0  0  0
    1.9436   -0.5619   -2.0286 N   0  0  0  0  0  0  0  0  0  0  0  0
    2.6217   -0.5906   -0.8071 C   0  0  0  0  0  0  0  0  0  0  0  0
    2.0148   -0.6838    0.4131 C   0  0  0  0  0  0  0  0  0  0  0  0
    2.7566   -0.7295    1.6009 C   0  0  0  0  0  0  0  0  0  0  0  0
    4.1293   -0.6821    1.5727 C   0  0  0  0  0  0  0  0  0  0  0  0
    4.7480   -0.5888    0.3457 C   0  0  0  0  0  0  0  0  0  0  0  0
    4.0113   -0.5443   -0.8140 C   0  0  0  0  0  0  0  0  0  0  0  0
   -1.6524   -0.5830   -1.5444 C   0  0  0  0  0  0  0  0  0  0  0  0
   -2.7575   -0.7355   -0.7730 C   0  0  0  0  0  0  0  0  0  0  0  0
   -5.2741    0.6374    2.8142 H   0  0  0  0  0  0  0  0  0  0  0  0
   -4.3937    1.9629    1.9338 H   0  0  0  0  0  0  0  0  0  0  0  0
   -3.4738    0.7829    2.9855 H   0  0  0  0  0  0  0  0  0  0  0  0
   -2.1492    1.7902    1.3574 H   0  0  0  0  0  0  0  0  0  0  0  0
   -0.1611    2.0076   -0.0899 H   0  0  0  0  0  0  0  0  0  0  0  0
    2.2137   -1.2376   -2.8033 H   0  0  0  0  0  0  0  0  0  0  0  0
    0.9418   -0.7356    0.4366 H   0  0  0  0  0  0  0  0  0  0  0  0
    2.2303   -0.8025    2.5372 H   0  0  0  0  0  0  0  0  0  0  0  0
    4.7234   -0.7175    2.5025 H   0  0  0  0  0  0  0  0  0  0  0  0
    5.8272   -0.5530    0.3429 H   0  0  0  0  0  0  0  0  0  0  0  0
    4.5076   -0.4711   -1.7703 H   0  0  0  0  0  0  0  0  0  0  0  0
   -1.4946   -1.2523   -2.3777 H   0  0  0  0  0  0  0  0  0  0  0  0
   -3.4894   -1.5055   -0.9622 H   0  0  0  0  0  0  0  0  0  0  0  0
  1  2  1  0
  2  3  2  0
  2  4  1  0
  4  5  2  0
  5  6  1  0
  6  7  2  0
  7  8  1  0
  8  9  2  0
  8 10  2  0
  8 11  1  0
 11 12  1  0
 12 13  2  0
 13 14  1  0
 14 15  2  0
 15 16  1  0
 16 17  2  0
  7 18  1  0
 18 19  2  0
 19  4  1  0
 17 12  1  0
  1 20  1  0
  1 21  1  0
  1 22  1  0
  5 23  1  0
  6 24  1  0
 11 25  1  0
 13 26  1  0
 14 27  1  0
 15 28  1  0
 16 29  1  0
 17 30  1  0
 18 31  1  0
 19 32  1  0
M  END
$$$$
