@<TRIPOS>MOLECULE
*****
 32 33 0 0 0
SMALL
GASTEIGER

@<TRIPOS>ATOM
      1 C          -4.3470    0.9063    2.2840 C.3     1  UNL1       -0.0014
      2 C          -4.1292   -0.0119    1.1396 C.2     1  UNL1        0.1601
      3 O          -4.9654   -0.9158    0.8982 O.2     1  UNL1       -0.2924
      4 C          -2.9600    0.1150    0.2875 C.ar    1  UNL1        0.0172
      5 C          -2.0281    1.1020    0.5353 C.ar    1  UNL1       -0.0494
      6 C          -0.9048    1.2576   -0.2482 C.ar    1  UNL1       -0.0344
      7 C          -0.7064    0.3953   -1.3176 C.ar    1  UNL1        0.1085
      8 S           0.6740    0.5333   -2.3361 S.O2    1  UNL1        0.0723
      9 O           0.2904    0.4751   -3.8008 O.2     1  UNL1       -0.1500
     10 O           1.2531    1.9367   -2.1309 O.2     1  UNL1       -0.1500
     11 N           1.9436   -0.5619   -2.0286 N.pl3   1  UNL1       -0.2163
     12 C           2.6217   -0.5906   -0.8071 C.ar    1  UNL1        0.0480
     13 C           2.0148   -0.6838    0.4131 C.ar    1  UNL1       -0.0393
     14 C           2.7566   -0.7295    1.6009 C.ar    1  UNL1       -0.0600
     15 C           4.1293   -0.6821    1.5727 C.ar    1  UNL1       -0.0616
     16 C           4.7480   -0.5888    0.3457 C.ar    1  UNL1       -0.0600
     17 C           4.0113   -0.5443   -0.8140 C.ar    1  UNL1       -0.0393
     18 C          -1.6524   -0.5830   -1.5444 C.ar    1  UNL1       -0.0344
     19 C          -2.7575   -0.7355   -0.7730 C.ar    1  UNL1       -0.0494
     20 H          -5.2741    0.6374    2.8142 H       1  UNL1        0.0309
     21 H          -4.3937    1.9629    1.9338 H       1  UNL1        0.0309
     22 H          -3.4738    0.7829    2.9855 H       1  UNL1        0.0309
     23 H          -2.1492    1.7902    1.3574 H       1  UNL1        0.0625
     24 H          -0.1611    2.0076   -0.0899 H       1  UNL1        0.0637
     25 H           2.2137   -1.2376   -2.8033 H       1  UNL1        0.1737
     26 H           0.9418   -0.7356    0.4366 H       1  UNL1        0.0636
     27 H           2.2303   -0.8025    2.5372 H       1  UNL1        0.0618
     28 H           4.7234   -0.7175    2.5025 H       1  UNL1        0.0618
     29 H           5.8272   -0.5530    0.3429 H       1  UNL1        0.0618
     30 H           4.5076   -0.4711   -1.7703 H       1  UNL1        0.0636
     31 H          -1.4946   -1.2523   -2.3777 H       1  UNL1        0.0637
     32 H          -3.4894   -1.5055   -0.9622 H       1  UNL1        0.0625
@<TRIPOS>BOND
     1     1     2    1
     2     2     3    2
     3     2     4    1
     4     4     5   ar
     5     5     6   ar
     6     6     7   ar
     7     7     8    1
     8     8     9    2
     9     8    10    2
    10     8    11    1
    11    11    12    1
    12    12    13   ar
    13    13    14   ar
    14    14    15   ar
    15    15    16   ar
    16    16    17   ar
    17     7    18   ar
    18    18    19   ar
    19    19     4   ar
    20    17    12   ar
    21     1    20    1
    22     1    21    1
    23     1    22    1
    24     5    23    1
    25     6    24    1
    26    11    25    1
    27    13    26    1
    28    14    27    1
    29    15    28    1
    30    16    29    1
    31    17    30    1
    32    18    31    1
    33    19    32    1
