@<TRIPOS>MOLECULE
*****
 48 52 0 0 0
SMALL
GASTEIGER

@<TRIPOS>ATOM
      1 C          -4.0838    4.2191   -0.6391 C.3     1  UNL1       -0.0223
      2 C          -3.5489    3.0254    0.0783 C.ar    1  UNL1        0.0390
      3 C          -4.2159    2.5568    1.1901 C.ar    1  UNL1       -0.0406
      4 C          -3.7621    1.4527    1.8922 C.ar    1  UNL1       -0.0580
      5 C          -2.6092    0.8303    1.4383 C.ar    1  UNL1       -0.0342
      6 C          -1.9483    1.3028    0.3281 C.ar    1  UNL1        0.0895
      7 C          -0.7394    0.6431   -0.1498 C.ar    1  UNL1        0.0926
      8 N           0.5038    1.1530   -0.1589 N.ar    1  UNL1       -0.3389
      9 C           1.3711    0.2693   -0.6690 C.ar    1  UNL1        0.1254
     10 C           2.8356    0.4816   -0.8398 C.3     1  UNL1        0.0673
     11 N           3.5331    0.0472    0.3422 N.pl3   1  UNL1       -0.3345
     12 C           4.9573    0.1221    0.4591 C.ar    1  UNL1        0.0631
     13 C           5.7398    0.6165   -0.5628 C.ar    1  UNL1       -0.0380
     14 C           7.1210    0.6849   -0.4431 C.ar    1  UNL1       -0.0598
     15 C           7.7636    0.2615    0.7014 C.ar    1  UNL1       -0.0589
     16 C           6.9904   -0.2345    1.7289 C.ar    1  UNL1       -0.0246
     17 C           5.6019   -0.3000    1.6006 C.ar    1  UNL1        0.1441
     18 F           4.8621   -0.7924    2.6254 F       1  UNL1       -0.2036
     19 N           0.6421   -0.8133   -0.9821 N.ar    1  UNL1       -0.2302
     20 C          -0.6547   -0.6264   -0.6805 C.ar    1  UNL1        0.0998
     21 C          -1.7492   -1.5880   -0.8821 C.ar    1  UNL1        0.0208
     22 C          -2.3646   -1.7934   -2.0972 C.ar    1  UNL1       -0.0475
     23 C          -3.3910   -2.7075   -2.2617 C.ar    1  UNL1       -0.0167
     24 C          -3.7717   -3.4115   -1.1333 C.ar    1  UNL1        0.1557
     25 N          -4.7242   -4.3608   -0.9569 N.ar    1  UNL1       -0.2149
     26 C          -4.7302   -4.7652    0.3426 C.ar    1  UNL1        0.1390
     27 N          -3.7717   -4.0470    0.9371 N.ar    1  UNL1       -0.1535
     28 N          -3.1896   -3.2350    0.0740 N.ar    1  UNL1       -0.2198
     29 C          -2.1806   -2.3242    0.1956 C.ar    1  UNL1        0.0407
     30 N          -2.4357    2.3955   -0.3302 N.ar    1  UNL1       -0.2503
     31 H          -5.0260    4.5749   -0.1980 H       1  UNL1        0.0292
     32 H          -4.2216    3.9766   -1.7248 H       1  UNL1        0.0292
     33 H          -3.3506    5.0489   -0.5842 H       1  UNL1        0.0292
     34 H          -5.1258    3.0841    1.5106 H       1  UNL1        0.0635
     35 H          -4.2766    1.0887    2.7526 H       1  UNL1        0.0619
     36 H          -2.2212   -0.0232    1.9503 H       1  UNL1        0.0639
     37 H           0.7849    2.0965    0.1754 H       1  UNL1        0.1672
     38 H           3.0444    1.5533   -1.0832 H       1  UNL1        0.0541
     39 H           3.1309   -0.0883   -1.7435 H       1  UNL1        0.0541
     40 H           2.9974   -0.3307    1.1358 H       1  UNL1        0.1466
     41 H           5.2249    0.9519   -1.4704 H       1  UNL1        0.0637
     42 H           7.7116    1.0819   -1.2710 H       1  UNL1        0.0618
     43 H           8.8449    0.3213    0.7795 H       1  UNL1        0.0618
     44 H           7.4475   -0.5791    2.6461 H       1  UNL1        0.0647
     45 H          -2.0246   -1.2141   -2.9437 H       1  UNL1        0.0626
     46 H          -3.8770   -2.8729   -3.2131 H       1  UNL1        0.0655
     47 H          -5.3538   -5.4978    0.8204 H       1  UNL1        0.1066
     48 H          -1.7603   -2.2350    1.1813 H       1  UNL1        0.0837
@<TRIPOS>BOND
     1     1     2    1
     2     2     3   ar
     3     3     4   ar
     4     4     5   ar
     5     5     6   ar
     6     6     7    1
     7     7     8   ar
     8     8     9   ar
     9     9    10    1
    10    10    11    1
    11    11    12    1
    12    12    13   ar
    13    13    14   ar
    14    14    15   ar
    15    15    16   ar
    16    16    17   ar
    17    17    18    1
    18     9    19   ar
    19    19    20   ar
    20    20    21    1
    21    21    22   ar
    22    22    23   ar
    23    23    24   ar
    24    24    25   ar
    25    25    26   ar
    26    26    27   ar
    27    27    28   ar
    28    28    29   ar
    29     6    30   ar
    30    30     2   ar
    31    20     7   ar
    32    29    21   ar
    33    17    12   ar
    34    28    24   ar
    35     1    31    1
    36     1    32    1
    37     1    33    1
    38     3    34    1
    39     4    35    1
    40     5    36    1
    41     8    37    1
    42    10    38    1
    43    10    39    1
    44    11    40    1
    45    13    41    1
    46    14    42    1
    47    15    43    1
    48    16    44    1
    49    22    45    1
    50    23    46    1
    51    26    47    1
    52    29    48    1
