
     RDKit          3D

 52 56  0  0  0  0  0  0  0  0999 V2000
   -1.3199    2.1055   -0.3597 O   0  0  0  0  0  0  0  0  0  0  0  0
   -1.8896    1.3086    0.4292 C   0  0  0  0  0  0  0  0  0  0  0  0
   -3.3435    1.3971    0.5096 C   0  0  0  0  0  0  0  0  0  0  0  0
   -3.9835    2.2174    1.4125 C   0  0  0  0  0  0  0  0  0  0  0  0
   -5.3678    2.2557    1.4407 C   0  0  0  0  0  0  0  0  0  0  0  0
   -6.1088    1.4743    0.5671 C   0  0  0  0  0  0  0  0  0  0  0  0
   -5.4589    0.6611   -0.3279 C   0  0  0  0  0  0  0  0  0  0  0  0
   -4.0711    0.6100   -0.3703 C   0  0  0  0  0  0  0  0  0  0  0  0
   -3.3891   -0.2300   -1.2951 N   0  0  0  0  0  0  0  0  0  0  0  0
   -3.5822   -1.5369   -1.3619 N   0  0  0  0  0  0  0  0  0  0  0  0
   -2.8135   -2.0746   -2.3176 C   0  0  0  0  0  0  0  0  0  0  0  0
   -2.1015   -1.0452   -2.8776 C   0  0  0  0  0  0  0  0  0  0  0  0
   -2.4915    0.0713   -2.2134 N   0  0  0  0  0  0  0  0  0  0  0  0
   -1.1444    0.3706    1.2008 N   0  0  0  0  0  0  0  0  0  0  0  0
   -1.8555   -0.5105    2.0839 C   0  0  0  0  0  0  0  0  0  0  0  0
   -0.9724   -1.4162    2.8611 C   0  0  0  0  0  0  0  0  0  0  0  0
    0.2560   -0.9644    3.2088 O   0  0  0  0  0  0  0  0  0  0  0  0
    0.8011    0.0681    2.5134 C   0  0  0  0  0  0  0  0  0  0  0  0
    0.2909    0.2779    1.1278 C   0  0  1  0  0  0  0  0  0  0  0  0
    0.7288   -0.7403    0.1204 C   0  0  0  0  0  0  0  0  0  0  0  0
    2.2032   -0.8571    0.0257 C   0  0  0  0  0  0  0  0  0  0  0  0
    2.8318   -1.7709    0.8435 C   0  0  0  0  0  0  0  0  0  0  0  0
    4.2039   -1.8766    0.7509 C   0  0  0  0  0  0  0  0  0  0  0  0
    4.8360   -2.7839    1.5615 F   0  0  0  0  0  0  0  0  0  0  0  0
    4.9245   -1.0956   -0.1292 C   0  0  0  0  0  0  0  0  0  0  0  0
    4.3075   -0.1774   -0.9532 C   0  0  0  0  0  0  0  0  0  0  0  0
    5.0275    0.6420   -1.8718 N   0  0  0  0  0  0  0  0  0  0  0  0
    5.7870    1.6701   -1.6207 N   0  0  0  0  0  0  0  0  0  0  0  0
    6.3070    2.2000   -2.7448 C   0  0  0  0  0  0  0  0  0  0  0  0
    5.8101    1.4115   -3.7707 C   0  0  0  0  0  0  0  0  0  0  0  0
    5.0464    0.4902   -3.1880 N   0  0  0  0  0  0  0  0  0  0  0  0
    2.9350   -0.0826   -0.8497 C   0  0  0  0  0  0  0  0  0  0  0  0
   -3.4265    2.8285    2.0964 H   0  0  0  0  0  0  0  0  0  0  0  0
   -5.8727    2.8975    2.1492 H   0  0  0  0  0  0  0  0  0  0  0  0
   -7.2069    1.5076    0.5932 H   0  0  0  0  0  0  0  0  0  0  0  0
   -6.0380    0.0418   -1.0214 H   0  0  0  0  0  0  0  0  0  0  0  0
   -2.7489   -3.1031   -2.6071 H   0  0  0  0  0  0  0  0  0  0  0  0
   -1.3706   -1.1061   -3.6916 H   0  0  0  0  0  0  0  0  0  0  0  0
   -2.4681    0.0632    2.8330 H   0  0  0  0  0  0  0  0  0  0  0  0
   -2.6089   -1.0583    1.4687 H   0  0  0  0  0  0  0  0  0  0  0  0
   -1.5658   -1.8005    3.7310 H   0  0  0  0  0  0  0  0  0  0  0  0
   -0.8266   -2.3462    2.2314 H   0  0  0  0  0  0  0  0  0  0  0  0
    0.7536    1.0444    3.0418 H   0  0  0  0  0  0  0  0  0  0  0  0
    1.9094   -0.1375    2.4299 H   0  0  0  0  0  0  0  0  0  0  0  0
    0.6690    1.2847    0.7950 H   0  0  0  0  0  0  0  0  0  0  0  0
    0.3809   -0.3778   -0.8853 H   0  0  0  0  0  0  0  0  0  0  0  0
    0.3061   -1.7378    0.2361 H   0  0  0  0  0  0  0  0  0  0  0  0
    2.2594   -2.3961    1.5477 H   0  0  0  0  0  0  0  0  0  0  0  0
    5.9956   -1.1806   -0.1994 H   0  0  0  0  0  0  0  0  0  0  0  0
    6.9683    3.0517   -2.8525 H   0  0  0  0  0  0  0  0  0  0  0  0
    6.0536    1.5917   -4.8113 H   0  0  0  0  0  0  0  0  0  0  0  0
    2.4334    0.6342   -1.4903 H   0  0  0  0  0  0  0  0  0  0  0  0
  1  2  2  0
  2  3  1  0
  3  4  2  0
  4  5  1  0
  5  6  2  0
  6  7  1  0
  7  8  2  0
  8  9  1  0
  9 10  1  0
 10 11  2  0
 11 12  1  0
 12 13  2  0
  2 14  1  0
 14 15  1  0
 15 16  1  0
 16 17  1  0
 17 18  1  0
 18 19  1  0
 19 20  1  0
 20 21  1  0
 21 22  2  0
 22 23  1  0
 23 24  1  0
 23 25  2  0
 25 26  1  0
 26 27  1  0
 27 28  1  0
 28 29  2  0
 29 30  1  0
 30 31  2  0
 26 32  2  0
  8  3  1  0
 13  9  1  0
 19 14  1  0
 32 21  1  0
 31 27  1  0
  4 33  1  0
  5 34  1  0
  6 35  1  0
  7 36  1  0
 11 37  1  0
 12 38  1  0
 15 39  1  0
 15 40  1  0
 16 41  1  0
 16 42  1  0
 18 43  1  0
 18 44  1  0
 19 45  1  6
 20 46  1  0
 20 47  1  0
 22 48  1  0
 25 49  1  0
 29 50  1  0
 30 51  1  0
 32 52  1  0
M  END
$$$$
