@<TRIPOS>MOLECULE
*****
 52 56 0 0 0
SMALL
GASTEIGER

@<TRIPOS>ATOM
      1 O          -1.3199    2.1055   -0.3597 O.2     1  UNL1       -0.2699
      2 C          -1.8896    1.3086    0.4292 C.2     1  UNL1        0.2491
      3 C          -3.3435    1.3971    0.5096 C.ar    1  UNL1        0.0640
      4 C          -3.9835    2.2174    1.4125 C.ar    1  UNL1       -0.0475
      5 C          -5.3678    2.2557    1.4407 C.ar    1  UNL1       -0.0609
      6 C          -6.1088    1.4743    0.5671 C.ar    1  UNL1       -0.0597
      7 C          -5.4589    0.6611   -0.3279 C.ar    1  UNL1       -0.0338
      8 C          -4.0711    0.6100   -0.3703 C.ar    1  UNL1        0.0982
      9 N          -3.3891   -0.2300   -1.2951 N.ar    1  UNL1       -0.1496
     10 N          -3.5822   -1.5369   -1.3619 N.ar    1  UNL1       -0.1556
     11 C          -2.8135   -2.0746   -2.3176 C.ar    1  UNL1        0.0697
     12 C          -2.1015   -1.0452   -2.8776 C.ar    1  UNL1        0.0697
     13 N          -2.4915    0.0713   -2.2134 N.ar    1  UNL1       -0.1556
     14 N          -1.1444    0.3706    1.2008 N.am    1  UNL1       -0.2897
     15 C          -1.8555   -0.5105    2.0839 C.3     1  UNL1        0.0388
     16 C          -0.9724   -1.4162    2.8611 C.3     1  UNL1        0.0635
     17 O           0.2560   -0.9644    3.2088 O.3     1  UNL1       -0.3764
     18 C           0.8011    0.0681    2.5134 C.3     1  UNL1        0.0666
     19 C           0.2909    0.2779    1.1278 C.3     1  UNL1        0.0537
     20 C           0.7288   -0.7403    0.1204 C.3     1  UNL1       -0.0067
     21 C           2.2032   -0.8571    0.0257 C.ar    1  UNL1       -0.0408
     22 C           2.8318   -1.7709    0.8435 C.ar    1  UNL1       -0.0231
     23 C           4.2039   -1.8766    0.7509 C.ar    1  UNL1        0.1257
     24 F           4.8360   -2.7839    1.5615 F       1  UNL1       -0.2054
     25 C           4.9245   -1.0956   -0.1292 C.ar    1  UNL1        0.0007
     26 C           4.3075   -0.1774   -0.9532 C.ar    1  UNL1        0.0891
     27 N           5.0275    0.6420   -1.8718 N.ar    1  UNL1       -0.1502
     28 N           5.7870    1.6701   -1.6207 N.ar    1  UNL1       -0.1556
     29 C           6.3070    2.2000   -2.7448 C.ar    1  UNL1        0.0697
     30 C           5.8101    1.4115   -3.7707 C.ar    1  UNL1        0.0697
     31 N           5.0464    0.4902   -3.1880 N.ar    1  UNL1       -0.1556
     32 C           2.9350   -0.0826   -0.8497 C.ar    1  UNL1       -0.0311
     33 H          -3.4265    2.8285    2.0964 H       1  UNL1        0.0626
     34 H          -5.8727    2.8975    2.1492 H       1  UNL1        0.0618
     35 H          -7.2069    1.5076    0.5932 H       1  UNL1        0.0618
     36 H          -6.0380    0.0418   -1.0214 H       1  UNL1        0.0639
     37 H          -2.7489   -3.1031   -2.6071 H       1  UNL1        0.0864
     38 H          -1.3706   -1.1061   -3.6916 H       1  UNL1        0.0864
     39 H          -2.4681    0.0632    2.8330 H       1  UNL1        0.0487
     40 H          -2.6089   -1.0583    1.4687 H       1  UNL1        0.0487
     41 H          -1.5658   -1.8005    3.7310 H       1  UNL1        0.0575
     42 H          -0.8266   -2.3462    2.2314 H       1  UNL1        0.0575
     43 H           0.7536    1.0444    3.0418 H       1  UNL1        0.0578
     44 H           1.9094   -0.1375    2.4299 H       1  UNL1        0.0578
     45 H           0.6690    1.2847    0.7950 H       1  UNL1        0.0526
     46 H           0.3809   -0.3778   -0.8853 H       1  UNL1        0.0332
     47 H           0.3061   -1.7378    0.2361 H       1  UNL1        0.0332
     48 H           2.2594   -2.3961    1.5477 H       1  UNL1        0.0649
     49 H           5.9956   -1.1806   -0.1994 H       1  UNL1        0.0668
     50 H           6.9683    3.0517   -2.8525 H       1  UNL1        0.0864
     51 H           6.0536    1.5917   -4.8113 H       1  UNL1        0.0864
     52 H           2.4334    0.6342   -1.4903 H       1  UNL1        0.0642
@<TRIPOS>BOND
     1     1     2    2
     2     2     3    1
     3     3     4   ar
     4     4     5   ar
     5     5     6   ar
     6     6     7   ar
     7     7     8   ar
     8     8     9    1
     9     9    10   ar
    10    10    11   ar
    11    11    12   ar
    12    12    13   ar
    13     2    14   am
    14    14    15    1
    15    15    16    1
    16    16    17    1
    17    17    18    1
    18    18    19    1
    19    19    20    1
    20    20    21    1
    21    21    22   ar
    22    22    23   ar
    23    23    24    1
    24    23    25   ar
    25    25    26   ar
    26    26    27    1
    27    27    28   ar
    28    28    29   ar
    29    29    30   ar
    30    30    31   ar
    31    26    32   ar
    32     8     3   ar
    33    13     9   ar
    34    19    14    1
    35    32    21   ar
    36    31    27   ar
    37     4    33    1
    38     5    34    1
    39     6    35    1
    40     7    36    1
    41    11    37    1
    42    12    38    1
    43    15    39    1
    44    15    40    1
    45    16    41    1
    46    16    42    1
    47    18    43    1
    48    18    44    1
    49    19    45    1
    50    20    46    1
    51    20    47    1
    52    22    48    1
    53    25    49    1
    54    29    50    1
    55    30    51    1
    56    32    52    1
