
     RDKit          3D

 32 33  0  0  0  0  0  0  0  0999 V2000
    5.5376    1.1571    0.4390 C   0  0  0  0  0  0  0  0  0  0  0  0
    4.2386    1.6945    0.0022 C   0  0  0  0  0  0  0  0  0  0  0  0
    4.1873    2.9127   -0.3038 O   0  0  0  0  0  0  0  0  0  0  0  0
    3.0507    0.8316   -0.0705 C   0  0  0  0  0  0  0  0  0  0  0  0
    1.8380    1.3386   -0.4789 C   0  0  0  0  0  0  0  0  0  0  0  0
    0.6946    0.5305   -0.5544 C   0  0  0  0  0  0  0  0  0  0  0  0
    0.7418   -0.8027   -0.2219 C   0  0  0  0  0  0  0  0  0  0  0  0
   -0.3672   -1.6919   -0.2498 N   0  0  0  0  0  0  0  0  0  0  0  0
   -1.7199   -1.3542   -0.1122 C   0  0  0  0  0  0  0  0  0  0  0  0
   -2.7049   -2.1562   -0.6580 C   0  0  0  0  0  0  0  0  0  0  0  0
   -4.0432   -1.8667   -0.5253 C   0  0  0  0  0  0  0  0  0  0  0  0
   -4.4478   -0.7541    0.1645 C   0  0  0  0  0  0  0  0  0  0  0  0
   -3.4874    0.0678    0.7223 C   0  0  0  0  0  0  0  0  0  0  0  0
   -3.8721    1.2598    1.4632 C   0  0  0  0  0  0  0  0  0  0  0  0
   -2.9864    1.9949    1.9632 O   0  0  0  0  0  0  0  0  0  0  0  0
   -5.1944    1.6191    1.6404 O   0  0  0  0  0  0  0  0  0  0  0  0
   -2.1344   -0.2457    0.5754 C   0  0  0  0  0  0  0  0  0  0  0  0
    1.9765   -1.2942    0.1876 C   0  0  0  0  0  0  0  0  0  0  0  0
    3.1030   -0.5026    0.2628 C   0  0  0  0  0  0  0  0  0  0  0  0
    6.2294    1.9336    0.8050 H   0  0  0  0  0  0  0  0  0  0  0  0
    5.4474    0.4115    1.2546 H   0  0  0  0  0  0  0  0  0  0  0  0
    6.0550    0.6318   -0.3955 H   0  0  0  0  0  0  0  0  0  0  0  0
    1.7643    2.3867   -0.7484 H   0  0  0  0  0  0  0  0  0  0  0  0
   -0.2452    0.9474   -0.8909 H   0  0  0  0  0  0  0  0  0  0  0  0
   -0.1403   -2.7345   -0.3930 H   0  0  0  0  0  0  0  0  0  0  0  0
   -2.3949   -3.0323   -1.2015 H   0  0  0  0  0  0  0  0  0  0  0  0
   -4.7813   -2.5087   -0.9603 H   0  0  0  0  0  0  0  0  0  0  0  0
   -5.4835   -0.4708    0.3044 H   0  0  0  0  0  0  0  0  0  0  0  0
   -5.5140    2.5498    1.8478 H   0  0  0  0  0  0  0  0  0  0  0  0
   -1.4256    0.4157    1.0377 H   0  0  0  0  0  0  0  0  0  0  0  0
    2.0286   -2.3563    0.4553 H   0  0  0  0  0  0  0  0  0  0  0  0
    4.0497   -0.9120    0.5844 H   0  0  0  0  0  0  0  0  0  0  0  0
  1  2  1  0
  2  3  2  0
  2  4  1  0
  4  5  2  0
  5  6  1  0
  6  7  2  0
  7  8  1  0
  8  9  1  0
  9 10  2  0
 10 11  1  0
 11 12  2  0
 12 13  1  0
 13 14  1  0
 14 15  2  0
 14 16  1  0
 13 17  2  0
  7 18  1  0
 18 19  2  0
 19  4  1  0
 17  9  1  0
  1 20  1  0
  1 21  1  0
  1 22  1  0
  5 23  1  0
  6 24  1  0
  8 25  1  0
 10 26  1  0
 11 27  1  0
 12 28  1  0
 16 29  1  0
 17 30  1  0
 18 31  1  0
 19 32  1  0
M  END
$$$$
