@<TRIPOS>MOLECULE
*****
 32 33 0 0 0
SMALL
GASTEIGER

@<TRIPOS>ATOM
      1 C           5.5376    1.1571    0.4390 C.3     1  UNL1       -0.0014
      2 C           4.2386    1.6945    0.0022 C.2     1  UNL1        0.1601
      3 O           4.1873    2.9127   -0.3038 O.2     1  UNL1       -0.2924
      4 C           3.0507    0.8316   -0.0705 C.ar    1  UNL1        0.0172
      5 C           1.8380    1.3386   -0.4789 C.ar    1  UNL1       -0.0495
      6 C           0.6946    0.5305   -0.5544 C.ar    1  UNL1       -0.0399
      7 C           0.7418   -0.8027   -0.2219 C.ar    1  UNL1        0.0313
      8 N          -0.3672   -1.6919   -0.2498 N.pl3   1  UNL1       -0.3145
      9 C          -1.7199   -1.3542   -0.1122 C.ar    1  UNL1        0.0321
     10 C          -2.7049   -2.1562   -0.6580 C.ar    1  UNL1       -0.0405
     11 C          -4.0432   -1.8667   -0.5253 C.ar    1  UNL1       -0.0592
     12 C          -4.4478   -0.7541    0.1645 C.ar    1  UNL1       -0.0477
     13 C          -3.4874    0.0678    0.7223 C.ar    1  UNL1        0.0606
     14 C          -3.8721    1.2598    1.4632 C.2     1  UNL1        0.3369
     15 O          -2.9864    1.9949    1.9632 O.2     1  UNL1       -0.2451
     16 O          -5.1944    1.6191    1.6404 O.3     1  UNL1       -0.4771
     17 C          -2.1344   -0.2457    0.5754 C.ar    1  UNL1       -0.0266
     18 C           1.9765   -1.2942    0.1876 C.ar    1  UNL1       -0.0399
     19 C           3.1030   -0.5026    0.2628 C.ar    1  UNL1       -0.0495
     20 H           6.2294    1.9336    0.8050 H       1  UNL1        0.0309
     21 H           5.4474    0.4115    1.2546 H       1  UNL1        0.0309
     22 H           6.0550    0.6318   -0.3955 H       1  UNL1        0.0309
     23 H           1.7643    2.3867   -0.7484 H       1  UNL1        0.0625
     24 H          -0.2452    0.9474   -0.8909 H       1  UNL1        0.0636
     25 H          -0.1403   -2.7345   -0.3930 H       1  UNL1        0.1522
     26 H          -2.3949   -3.0323   -1.2015 H       1  UNL1        0.0636
     27 H          -4.7813   -2.5087   -0.9603 H       1  UNL1        0.0618
     28 H          -5.4835   -0.4708    0.3044 H       1  UNL1        0.0626
     29 H          -5.5140    2.5498    1.8478 H       1  UNL1        0.2954
     30 H          -1.4256    0.4157    1.0377 H       1  UNL1        0.0644
     31 H           2.0286   -2.3563    0.4553 H       1  UNL1        0.0636
     32 H           4.0497   -0.9120    0.5844 H       1  UNL1        0.0625
@<TRIPOS>BOND
     1     1     2    1
     2     2     3    2
     3     2     4    1
     4     4     5   ar
     5     5     6   ar
     6     6     7   ar
     7     7     8    1
     8     8     9    1
     9     9    10   ar
    10    10    11   ar
    11    11    12   ar
    12    12    13   ar
    13    13    14    1
    14    14    15    2
    15    14    16    1
    16    13    17   ar
    17     7    18   ar
    18    18    19   ar
    19    19     4   ar
    20    17     9   ar
    21     1    20    1
    22     1    21    1
    23     1    22    1
    24     5    23    1
    25     6    24    1
    26     8    25    1
    27    10    26    1
    28    11    27    1
    29    12    28    1
    30    16    29    1
    31    17    30    1
    32    18    31    1
    33    19    32    1
