
     RDKit          3D

 41 42  0  0  0  0  0  0  0  0999 V2000
   -2.4302    1.1191    2.5961 C   0  0  0  0  0  0  0  0  0  0  0  0
   -1.6939    0.4571    1.4569 C   0  0  0  0  0  0  0  0  0  0  0  0
   -0.3899    0.3821    1.4620 N   0  0  0  0  0  0  0  0  0  0  0  0
    0.3353   -0.1140    0.6394 C   0  0  0  0  0  0  0  0  0  0  0  0
    1.7152   -0.3239    0.4079 N   0  0  0  0  0  0  0  0  0  0  0  0
    2.4920    0.6349   -0.2992 C   0  0  0  0  0  0  0  0  0  0  0  0
    1.9069    1.6707   -0.7082 O   0  0  0  0  0  0  0  0  0  0  0  0
    3.9542    0.4310   -0.5544 C   0  0  0  0  0  0  0  0  0  0  0  0
    4.6742    0.3078    0.7793 C   0  0  0  0  0  0  0  0  0  0  0  0
    4.4921    1.5994   -1.3133 C   0  0  0  0  0  0  0  0  0  0  0  0
    4.0830   -0.8788   -1.2920 C   0  0  0  0  0  0  0  0  0  0  0  0
    5.5100   -1.2263   -1.6232 C   0  0  0  0  0  0  0  0  0  0  0  0
    5.4926   -2.4361   -2.2911 F   0  0  0  0  0  0  0  0  0  0  0  0
    6.2470   -1.4167   -0.4563 F   0  0  0  0  0  0  0  0  0  0  0  0
    6.0971   -0.3095   -2.4496 F   0  0  0  0  0  0  0  0  0  0  0  0
   -0.9717   -0.6982   -0.5633 S   0  0  0  0  0  0  0  0  0  0  0  0
   -2.3271   -0.0953    0.3843 C   0  0  0  0  0  0  0  0  0  0  0  0
   -3.7305   -0.2420   -0.0198 C   0  0  0  0  0  0  0  0  0  0  0  0
   -4.8137    0.2370    0.6395 C   0  0  0  0  0  0  0  0  0  0  0  0
   -6.1195    0.0170    0.1482 C   0  0  0  0  0  0  0  0  0  0  0  0
   -6.3533   -0.6828   -1.0053 C   0  0  0  0  0  0  0  0  0  0  0  0
   -7.6581   -0.9183   -1.5212 N   0  0  0  0  0  0  0  0  0  0  0  0
   -5.2653   -1.1450   -1.6376 N   0  0  0  0  0  0  0  0  0  0  0  0
   -4.0178   -0.9532   -1.1977 C   0  0  0  0  0  0  0  0  0  0  0  0
   -3.1069    0.3927    3.0346 H   0  0  0  0  0  0  0  0  0  0  0  0
   -1.7244    1.4283    3.4150 H   0  0  0  0  0  0  0  0  0  0  0  0
   -2.9589    2.0115    2.2266 H   0  0  0  0  0  0  0  0  0  0  0  0
    2.1530   -1.1864    0.7608 H   0  0  0  0  0  0  0  0  0  0  0  0
    5.7293    0.6038    0.6495 H   0  0  0  0  0  0  0  0  0  0  0  0
    4.5562   -0.7542    1.0973 H   0  0  0  0  0  0  0  0  0  0  0  0
    4.2429    1.0106    1.5357 H   0  0  0  0  0  0  0  0  0  0  0  0
    4.4835    1.4147   -2.4104 H   0  0  0  0  0  0  0  0  0  0  0  0
    5.5003    1.9209   -0.9579 H   0  0  0  0  0  0  0  0  0  0  0  0
    3.8259    2.4754   -1.1356 H   0  0  0  0  0  0  0  0  0  0  0  0
    3.5014   -0.8564   -2.2323 H   0  0  0  0  0  0  0  0  0  0  0  0
    3.6944   -1.6680   -0.6073 H   0  0  0  0  0  0  0  0  0  0  0  0
   -4.6910    0.7930    1.5386 H   0  0  0  0  0  0  0  0  0  0  0  0
   -6.9649    0.4082    0.6912 H   0  0  0  0  0  0  0  0  0  0  0  0
   -8.1222   -0.3377   -2.2517 H   0  0  0  0  0  0  0  0  0  0  0  0
   -8.1971   -1.7279   -1.1478 H   0  0  0  0  0  0  0  0  0  0  0  0
   -3.1503   -1.3443   -1.7376 H   0  0  0  0  0  0  0  0  0  0  0  0
  1  2  1  0
  2  3  1  0
  3  4  2  0
  4  5  1  0
  5  6  1  0
  6  7  2  0
  6  8  1  0
  8  9  1  0
  8 10  1  0
  8 11  1  0
 11 12  1  0
 12 13  1  0
 12 14  1  0
 12 15  1  0
  4 16  1  0
 16 17  1  0
 17 18  1  0
 18 19  2  0
 19 20  1  0
 20 21  2  0
 21 22  1  0
 21 23  1  0
 23 24  2  0
 17  2  2  0
 24 18  1  0
  1 25  1  0
  1 26  1  0
  1 27  1  0
  5 28  1  0
  9 29  1  0
  9 30  1  0
  9 31  1  0
 10 32  1  0
 10 33  1  0
 10 34  1  0
 11 35  1  0
 11 36  1  0
 19 37  1  0
 20 38  1  0
 22 39  1  0
 22 40  1  0
 24 41  1  0
M  END
$$$$
