@<TRIPOS>MOLECULE
*****
 41 42 0 0 0
SMALL
GASTEIGER

@<TRIPOS>ATOM
      1 C          -2.4302    1.1191    2.5961 C.3     1  UNL1       -0.0212
      2 C          -1.6939    0.4571    1.4569 C.ar    1  UNL1        0.0552
      3 N          -0.3899    0.3821    1.4620 N.ar    1  UNL1       -0.2292
      4 C           0.3353   -0.1140    0.6394 C.ar    1  UNL1        0.1651
      5 N           1.7152   -0.3239    0.4079 N.am    1  UNL1       -0.2642
      6 C           2.4920    0.6349   -0.2992 C.2     1  UNL1        0.2246
      7 O           1.9069    1.6707   -0.7082 O.2     1  UNL1       -0.2748
      8 C           3.9542    0.4310   -0.5544 C.3     1  UNL1        0.0499
      9 C           4.6742    0.3078    0.7793 C.3     1  UNL1       -0.0512
     10 C           4.4921    1.5994   -1.3133 C.3     1  UNL1       -0.0512
     11 C           4.0830   -0.8788   -1.2920 C.3     1  UNL1        0.0562
     12 C           5.5100   -1.2263   -1.6232 C.3     1  UNL1        0.3911
     13 F           5.4926   -2.4361   -2.2911 F       1  UNL1       -0.1707
     14 F           6.2470   -1.4167   -0.4563 F       1  UNL1       -0.1707
     15 F           6.0971   -0.3095   -2.4496 F       1  UNL1       -0.1707
     16 S          -0.9717   -0.6982   -0.5633 S.2     1  UNL1       -0.0517
     17 C          -2.3271   -0.0953    0.3843 C.ar    1  UNL1        0.0450
     18 C          -3.7305   -0.2420   -0.0198 C.ar    1  UNL1        0.0087
     19 C          -4.8137    0.2370    0.6395 C.ar    1  UNL1       -0.0488
     20 C          -6.1195    0.0170    0.1482 C.ar    1  UNL1       -0.0215
     21 C          -6.3533   -0.6828   -1.0053 C.ar    1  UNL1        0.1161
     22 N          -7.6581   -0.9183   -1.5212 N.pl3   1  UNL1       -0.3431
     23 N          -5.2653   -1.1450   -1.6376 N.ar    1  UNL1       -0.2401
     24 C          -4.0178   -0.9532   -1.1977 C.ar    1  UNL1        0.0379
     25 H          -3.1069    0.3927    3.0346 H       1  UNL1        0.0293
     26 H          -1.7244    1.4283    3.4150 H       1  UNL1        0.0293
     27 H          -2.9589    2.0115    2.2266 H       1  UNL1        0.0293
     28 H           2.1530   -1.1864    0.7608 H       1  UNL1        0.1567
     29 H           5.7293    0.6038    0.6495 H       1  UNL1        0.0240
     30 H           4.5562   -0.7542    1.0973 H       1  UNL1        0.0240
     31 H           4.2429    1.0106    1.5357 H       1  UNL1        0.0240
     32 H           4.4835    1.4147   -2.4104 H       1  UNL1        0.0240
     33 H           5.5003    1.9209   -0.9579 H       1  UNL1        0.0240
     34 H           3.8259    2.4754   -1.1356 H       1  UNL1        0.0240
     35 H           3.5014   -0.8564   -2.2323 H       1  UNL1        0.0362
     36 H           3.6944   -1.6680   -0.6073 H       1  UNL1        0.0362
     37 H          -4.6910    0.7930    1.5386 H       1  UNL1        0.0625
     38 H          -6.9649    0.4082    0.6912 H       1  UNL1        0.0652
     39 H          -8.1222   -0.3377   -2.2517 H       1  UNL1        0.1437
     40 H          -8.1971   -1.7279   -1.1478 H       1  UNL1        0.1437
     41 H          -3.1503   -1.3443   -1.7376 H       1  UNL1        0.0836
@<TRIPOS>BOND
     1     1     2    1
     2     2     3   ar
     3     3     4   ar
     4     4     5    1
     5     5     6   am
     6     6     7    2
     7     6     8    1
     8     8     9    1
     9     8    10    1
    10     8    11    1
    11    11    12    1
    12    12    13    1
    13    12    14    1
    14    12    15    1
    15     4    16   ar
    16    16    17   ar
    17    17    18    1
    18    18    19   ar
    19    19    20   ar
    20    20    21   ar
    21    21    22    1
    22    21    23   ar
    23    23    24   ar
    24    17     2   ar
    25    24    18   ar
    26     1    25    1
    27     1    26    1
    28     1    27    1
    29     5    28    1
    30     9    29    1
    31     9    30    1
    32     9    31    1
    33    10    32    1
    34    10    33    1
    35    10    34    1
    36    11    35    1
    37    11    36    1
    38    19    37    1
    39    20    38    1
    40    22    39    1
    41    22    40    1
    42    24    41    1
