
     RDKit          3D

 50 52  0  0  0  0  0  0  0  0999 V2000
   -4.5630   -1.2589    1.5582 C   0  0  0  0  0  0  0  0  0  0  0  0
   -3.4028   -1.8756    0.8196 C   0  0  0  0  0  0  0  0  0  0  0  0
   -2.3911   -1.1882    0.2316 C   0  0  0  0  0  0  0  0  0  0  0  0
   -1.3858   -2.5147   -0.3023 S   0  0  0  0  0  0  0  0  0  0  0  0
   -2.3365   -3.8739    0.2641 C   0  0  0  0  0  0  0  0  0  0  0  0
   -3.4829   -3.2220    0.8948 C   0  0  0  0  0  0  0  0  0  0  0  0
   -2.1482    0.1786   -0.0573 C   0  0  0  0  0  0  0  0  0  0  0  0
   -0.8301    0.4608   -0.2423 C   0  0  0  0  0  0  0  0  0  0  0  0
    0.5143   -0.0612   -0.2726 C   0  0  0  0  0  0  0  0  0  0  0  0
    1.4446    0.6480    0.7085 C   0  0  0  0  0  0  0  0  0  0  0  0
    2.7579    0.1273    0.6721 N   0  0  0  0  0  0  0  0  0  0  0  0
    3.7108    0.7209    1.5506 C   0  0  0  0  0  0  0  0  0  0  0  0
    4.7546    1.5393    0.8317 C   0  0  0  0  0  0  0  0  0  0  0  0
    5.4641    0.8124   -0.2628 C   0  0  0  0  0  0  0  0  0  0  0  0
    4.7245   -0.4266   -0.6649 C   0  0  2  0  0  0  0  0  0  0  0  0
    3.2303   -0.2670   -0.6107 C   0  0  0  0  0  0  0  0  0  0  0  0
    5.1926   -1.6077    0.1082 C   0  0  0  0  0  0  0  0  0  0  0  0
    4.5105   -2.7790   -0.2554 O   0  0  0  0  0  0  0  0  0  0  0  0
    6.0727   -1.7649    1.0176 O   0  0  0  0  0  0  0  0  0  0  0  0
   -2.8850    1.3690   -0.2161 C   0  0  0  0  0  0  0  0  0  0  0  0
   -4.3018    1.7099   -0.5347 C   0  0  0  0  0  0  0  0  0  0  0  0
   -5.1959    0.6232   -0.9820 C   0  0  0  0  0  0  0  0  0  0  0  0
   -4.7115    2.9913   -0.4923 C   0  0  0  0  0  0  0  0  0  0  0  0
   -3.7953    4.0256   -0.1474 C   0  0  0  0  0  0  0  0  0  0  0  0
   -2.2095    3.0308    0.1363 S   0  0  0  0  0  0  0  0  0  0  0  0
   -4.6547   -1.6334    2.6007 H   0  0  0  0  0  0  0  0  0  0  0  0
   -5.5344   -1.4972    1.0850 H   0  0  0  0  0  0  0  0  0  0  0  0
   -4.3972   -0.1694    1.6642 H   0  0  0  0  0  0  0  0  0  0  0  0
   -2.0851   -4.9798    0.1482 H   0  0  0  0  0  0  0  0  0  0  0  0
   -4.1411   -3.9680    1.2816 H   0  0  0  0  0  0  0  0  0  0  0  0
   -0.5432    1.5057   -0.4734 H   0  0  0  0  0  0  0  0  0  0  0  0
    0.5285   -1.1181    0.0847 H   0  0  0  0  0  0  0  0  0  0  0  0
    0.9703    0.0201   -1.2660 H   0  0  0  0  0  0  0  0  0  0  0  0
    1.4701    1.7130    0.3916 H   0  0  0  0  0  0  0  0  0  0  0  0
    0.9571    0.6130    1.6945 H   0  0  0  0  0  0  0  0  0  0  0  0
    3.1330    1.4734    2.1648 H   0  0  0  0  0  0  0  0  0  0  0  0
    4.1483    0.0424    2.3030 H   0  0  0  0  0  0  0  0  0  0  0  0
    5.4772    1.8871    1.6277 H   0  0  0  0  0  0  0  0  0  0  0  0
    4.3277    2.4737    0.4141 H   0  0  0  0  0  0  0  0  0  0  0  0
    6.4374    0.4505    0.1800 H   0  0  0  0  0  0  0  0  0  0  0  0
    5.6391    1.4383   -1.1437 H   0  0  0  0  0  0  0  0  0  0  0  0
    4.9803   -0.6337   -1.7359 H   0  0  0  0  0  0  0  0  0  0  0  0
    2.8052   -1.2113   -0.9927 H   0  0  0  0  0  0  0  0  0  0  0  0
    2.9475    0.5130   -1.3484 H   0  0  0  0  0  0  0  0  0  0  0  0
    4.8078   -3.7061    0.0452 H   0  0  0  0  0  0  0  0  0  0  0  0
   -6.0102    0.4120   -0.2666 H   0  0  0  0  0  0  0  0  0  0  0  0
   -5.7467    0.9229   -1.9267 H   0  0  0  0  0  0  0  0  0  0  0  0
   -4.6709   -0.3031   -1.2027 H   0  0  0  0  0  0  0  0  0  0  0  0
   -5.7034    3.3272   -0.7007 H   0  0  0  0  0  0  0  0  0  0  0  0
   -3.8801    5.0305   -0.0557 H   0  0  0  0  0  0  0  0  0  0  0  0
  1  2  1  0
  2  3  2  0
  3  4  1  0
  4  5  1  0
  5  6  2  0
  3  7  1  0
  7  8  2  3
  8  9  1  0
  9 10  1  0
 10 11  1  0
 11 12  1  0
 12 13  1  0
 13 14  1  0
 14 15  1  0
 15 16  1  0
 15 17  1  0
 17 18  1  0
 17 19  2  0
  7 20  1  0
 20 21  2  0
 21 22  1  0
 21 23  1  0
 23 24  2  0
 24 25  1  0
  6  2  1  0
 16 11  1  0
 25 20  1  0
  1 26  1  0
  1 27  1  0
  1 28  1  0
  5 29  1  0
  6 30  1  0
  8 31  1  0
  9 32  1  0
  9 33  1  0
 10 34  1  0
 10 35  1  0
 12 36  1  0
 12 37  1  0
 13 38  1  0
 13 39  1  0
 14 40  1  0
 14 41  1  0
 15 42  1  6
 16 43  1  0
 16 44  1  0
 18 45  1  0
 22 46  1  0
 22 47  1  0
 22 48  1  0
 23 49  1  0
 24 50  1  0
M  END
$$$$
