@<TRIPOS>MOLECULE
*****
 50 52 0 0 0
SMALL
GASTEIGER

@<TRIPOS>ATOM
      1 C          -4.5630   -1.2589    1.5582 C.3     1  UNL1       -0.0386
      2 C          -3.4028   -1.8756    0.8196 C.ar    1  UNL1       -0.0357
      3 C          -2.3911   -1.1882    0.2316 C.ar    1  UNL1        0.0230
      4 S          -1.3858   -2.5147   -0.3023 S.2     1  UNL1       -0.0964
      5 C          -2.3365   -3.8739    0.2641 C.ar    1  UNL1       -0.0235
      6 C          -3.4829   -3.2220    0.8948 C.ar    1  UNL1       -0.0512
      7 C          -2.1482    0.1786   -0.0573 C.2     1  UNL1       -0.0010
      8 C          -0.8301    0.4608   -0.2423 C.2     1  UNL1       -0.0735
      9 C           0.5143   -0.0612   -0.2726 C.3     1  UNL1       -0.0210
     10 C           1.4446    0.6480    0.7085 C.3     1  UNL1        0.0024
     11 N           2.7579    0.1273    0.6721 N.3     1  UNL1       -0.3012
     12 C           3.7108    0.7209    1.5506 C.3     1  UNL1       -0.0011
     13 C           4.7546    1.5393    0.8317 C.3     1  UNL1       -0.0394
     14 C           5.4641    0.8124   -0.2628 C.3     1  UNL1       -0.0378
     15 C           4.7245   -0.4266   -0.6649 C.3     1  UNL1        0.0690
     16 C           3.2303   -0.2670   -0.6107 C.3     1  UNL1        0.0118
     17 C           5.1926   -1.6077    0.1082 C.2     1  UNL1        0.3091
     18 O           4.5105   -2.7790   -0.2554 O.3     1  UNL1       -0.4804
     19 O           6.0727   -1.7649    1.0176 O.2     1  UNL1       -0.2507
     20 C          -2.8850    1.3690   -0.2161 C.ar    1  UNL1        0.0230
     21 C          -4.3018    1.7099   -0.5347 C.ar    1  UNL1       -0.0357
     22 C          -5.1959    0.6232   -0.9820 C.3     1  UNL1       -0.0386
     23 C          -4.7115    2.9913   -0.4923 C.ar    1  UNL1       -0.0512
     24 C          -3.7953    4.0256   -0.1474 C.ar    1  UNL1       -0.0235
     25 S          -2.2095    3.0308    0.1363 S.2     1  UNL1       -0.0964
     26 H          -4.6547   -1.6334    2.6007 H       1  UNL1        0.0278
     27 H          -5.5344   -1.4972    1.0850 H       1  UNL1        0.0278
     28 H          -4.3972   -0.1694    1.6642 H       1  UNL1        0.0278
     29 H          -2.0851   -4.9798    0.1482 H       1  UNL1        0.0693
     30 H          -4.1411   -3.9680    1.2816 H       1  UNL1        0.0626
     31 H          -0.5432    1.5057   -0.4734 H       1  UNL1        0.0579
     32 H           0.5285   -1.1181    0.0847 H       1  UNL1        0.0320
     33 H           0.9703    0.0201   -1.2660 H       1  UNL1        0.0320
     34 H           1.4701    1.7130    0.3916 H       1  UNL1        0.0429
     35 H           0.9571    0.6130    1.6945 H       1  UNL1        0.0429
     36 H           3.1330    1.4734    2.1648 H       1  UNL1        0.0426
     37 H           4.1483    0.0424    2.3030 H       1  UNL1        0.0426
     38 H           5.4772    1.8871    1.6277 H       1  UNL1        0.0278
     39 H           4.3277    2.4737    0.4141 H       1  UNL1        0.0278
     40 H           6.4374    0.4505    0.1800 H       1  UNL1        0.0274
     41 H           5.6391    1.4383   -1.1437 H       1  UNL1        0.0274
     42 H           4.9803   -0.6337   -1.7359 H       1  UNL1        0.0426
     43 H           2.8052   -1.2113   -0.9927 H       1  UNL1        0.0434
     44 H           2.9475    0.5130   -1.3484 H       1  UNL1        0.0434
     45 H           4.8078   -3.7061    0.0452 H       1  UNL1        0.2951
     46 H          -6.0102    0.4120   -0.2666 H       1  UNL1        0.0278
     47 H          -5.7467    0.9229   -1.9267 H       1  UNL1        0.0278
     48 H          -4.6709   -0.3031   -1.2027 H       1  UNL1        0.0278
     49 H          -5.7034    3.3272   -0.7007 H       1  UNL1        0.0626
     50 H          -3.8801    5.0305   -0.0557 H       1  UNL1        0.0693
@<TRIPOS>BOND
     1     1     2    1
     2     2     3   ar
     3     3     4   ar
     4     4     5   ar
     5     5     6   ar
     6     3     7    1
     7     7     8    2
     8     8     9    1
     9     9    10    1
    10    10    11    1
    11    11    12    1
    12    12    13    1
    13    13    14    1
    14    14    15    1
    15    15    16    1
    16    15    17    1
    17    17    18    1
    18    17    19    2
    19     7    20    1
    20    20    21   ar
    21    21    22    1
    22    21    23   ar
    23    23    24   ar
    24    24    25   ar
    25     6     2   ar
    26    16    11    1
    27    25    20   ar
    28     1    26    1
    29     1    27    1
    30     1    28    1
    31     5    29    1
    32     6    30    1
    33     8    31    1
    34     9    32    1
    35     9    33    1
    36    10    34    1
    37    10    35    1
    38    12    36    1
    39    12    37    1
    40    13    38    1
    41    13    39    1
    42    14    40    1
    43    14    41    1
    44    15    42    1
    45    16    43    1
    46    16    44    1
    47    18    45    1
    48    22    46    1
    49    22    47    1
    50    22    48    1
    51    23    49    1
    52    24    50    1
