
     RDKit          3D

 38 41  0  0  0  0  0  0  0  0999 V2000
   -3.4073    3.8166   -0.7130 F   0  0  0  0  0  0  0  0  0  0  0  0
   -2.1714    3.2621   -1.0033 C   0  0  0  0  0  0  0  0  0  0  0  0
   -1.4216    3.0882    0.2791 C   0  0  0  0  0  0  0  0  0  0  0  0
   -0.1206    2.5181    0.0648 N   0  0  0  0  0  0  0  0  0  0  0  0
    0.9874    3.2587   -0.2319 C   0  0  0  0  0  0  0  0  0  0  0  0
    2.0548    2.4516   -0.3922 N   0  0  0  0  0  0  0  0  0  0  0  0
    1.6321    1.1734   -0.1973 C   0  0  0  0  0  0  0  0  0  0  0  0
    2.4109   -0.0470   -0.2699 C   0  0  0  0  0  0  0  0  0  0  0  0
    3.2810   -0.3845    0.7671 C   0  0  0  0  0  0  0  0  0  0  0  0
    4.0611   -1.5181    0.7599 C   0  0  0  0  0  0  0  0  0  0  0  0
    3.9915   -2.3739   -0.3183 C   0  0  0  0  0  0  0  0  0  0  0  0
    4.7707   -3.5031   -0.3231 F   0  0  0  0  0  0  0  0  0  0  0  0
    3.1365   -2.0764   -1.3759 C   0  0  0  0  0  0  0  0  0  0  0  0
    3.0595   -3.1817   -2.7544 Cl  0  0  0  0  0  0  0  0  0  0  0  0
    2.3651   -0.9282   -1.3377 C   0  0  0  0  0  0  0  0  0  0  0  0
    0.2829    1.2412    0.0847 C   0  0  0  0  0  0  0  0  0  0  0  0
   -0.5631    0.1078    0.3956 C   0  0  0  0  0  0  0  0  0  0  0  0
   -0.3505   -0.5219    1.6153 C   0  0  0  0  0  0  0  0  0  0  0  0
   -1.0939   -1.6031    2.0182 C   0  0  0  0  0  0  0  0  0  0  0  0
   -2.0901   -2.0663    1.1570 C   0  0  0  0  0  0  0  0  0  0  0  0
   -2.9721   -3.0785    1.2593 N   0  0  0  0  0  0  0  0  0  0  0  0
   -3.7289   -3.1083    0.1529 C   0  0  0  0  0  0  0  0  0  0  0  0
   -3.2925   -2.0801   -0.6497 C   0  0  0  0  0  0  0  0  0  0  0  0
   -2.2912   -1.4540   -0.0206 N   0  0  0  0  0  0  0  0  0  0  0  0
   -1.5568   -0.3948   -0.4075 C   0  0  0  0  0  0  0  0  0  0  0  0
   -2.2320    2.3424   -1.5659 H   0  0  0  0  0  0  0  0  0  0  0  0
   -1.6472    4.0059   -1.6386 H   0  0  0  0  0  0  0  0  0  0  0  0
   -2.0195    2.5111    1.0209 H   0  0  0  0  0  0  0  0  0  0  0  0
   -1.3005    4.1192    0.7216 H   0  0  0  0  0  0  0  0  0  0  0  0
    0.9936    4.3433   -0.3224 H   0  0  0  0  0  0  0  0  0  0  0  0
    3.3180    0.3056    1.6071 H   0  0  0  0  0  0  0  0  0  0  0  0
    4.7024   -1.6887    1.6179 H   0  0  0  0  0  0  0  0  0  0  0  0
    1.7127   -0.7121   -2.1592 H   0  0  0  0  0  0  0  0  0  0  0  0
    0.4201   -0.1541    2.2655 H   0  0  0  0  0  0  0  0  0  0  0  0
   -0.9529   -2.1106    2.9573 H   0  0  0  0  0  0  0  0  0  0  0  0
   -4.5391   -3.7975   -0.0944 H   0  0  0  0  0  0  0  0  0  0  0  0
   -3.6854   -1.8164   -1.6186 H   0  0  0  0  0  0  0  0  0  0  0  0
   -1.7438    0.0543   -1.3504 H   0  0  0  0  0  0  0  0  0  0  0  0
  1  2  1  0
  2  3  1  0
  3  4  1  0
  4  5  1  0
  5  6  2  0
  6  7  1  0
  7  8  1  0
  8  9  2  0
  9 10  1  0
 10 11  2  0
 11 12  1  0
 11 13  1  0
 13 14  1  0
 13 15  2  0
  7 16  2  0
 16 17  1  0
 17 18  1  0
 18 19  2  0
 19 20  1  0
 20 21  2  0
 21 22  1  0
 22 23  2  0
 23 24  1  0
 24 25  1  0
 16  4  1  0
 25 17  2  0
 15  8  1  0
 24 20  1  0
  2 26  1  0
  2 27  1  0
  3 28  1  0
  3 29  1  0
  5 30  1  0
  9 31  1  0
 10 32  1  0
 15 33  1  0
 18 34  1  0
 19 35  1  0
 22 36  1  0
 23 37  1  0
 25 38  1  0
M  END
$$$$
