@<TRIPOS>MOLECULE
*****
 38 41 0 0 0
SMALL
GASTEIGER

@<TRIPOS>ATOM
      1 F          -3.4073    3.8166   -0.7130 F       1  UNL1       -0.2472
      2 C          -2.1714    3.2621   -1.0033 C.3     1  UNL1        0.1080
      3 C          -1.4216    3.0882    0.2791 C.3     1  UNL1        0.0530
      4 N          -0.1206    2.5181    0.0648 N.ar    1  UNL1       -0.3271
      5 C           0.9874    3.2587   -0.2319 C.ar    1  UNL1        0.0972
      6 N           2.0548    2.4516   -0.3922 N.ar    1  UNL1       -0.2351
      7 C           1.6321    1.1734   -0.1973 C.ar    1  UNL1        0.0968
      8 C           2.4109   -0.0470   -0.2699 C.ar    1  UNL1        0.0040
      9 C           3.2810   -0.3845    0.7671 C.ar    1  UNL1       -0.0497
     10 C           4.0611   -1.5181    0.7599 C.ar    1  UNL1       -0.0244
     11 C           3.9915   -2.3739   -0.3183 C.ar    1  UNL1        0.1417
     12 F           4.7707   -3.5031   -0.3231 F       1  UNL1       -0.2040
     13 C           3.1365   -2.0764   -1.3759 C.ar    1  UNL1        0.0767
     14 CL          3.0595   -3.1817   -2.7544 Cl      1  UNL1       -0.0806
     15 C           2.3651   -0.9282   -1.3377 C.ar    1  UNL1       -0.0313
     16 C           0.2829    1.2412    0.0847 C.ar    1  UNL1        0.0779
     17 C          -0.5631    0.1078    0.3956 C.ar    1  UNL1        0.0172
     18 C          -0.3505   -0.5219    1.6153 C.ar    1  UNL1       -0.0477
     19 C          -1.0939   -1.6031    2.0182 C.ar    1  UNL1       -0.0182
     20 C          -2.0901   -2.0663    1.1570 C.ar    1  UNL1        0.1375
     21 N          -2.9721   -3.0785    1.2593 N.ar    1  UNL1       -0.2361
     22 C          -3.7289   -3.1083    0.1529 C.ar    1  UNL1        0.0464
     23 C          -3.2925   -2.0801   -0.6497 C.ar    1  UNL1        0.0293
     24 N          -2.2912   -1.4540   -0.0206 N.ar    1  UNL1       -0.3060
     25 C          -1.5568   -0.3948   -0.4075 C.ar    1  UNL1        0.0204
     26 H          -2.2320    2.3424   -1.5659 H       1  UNL1        0.0633
     27 H          -1.6472    4.0059   -1.6386 H       1  UNL1        0.0633
     28 H          -2.0195    2.5111    1.0209 H       1  UNL1        0.0518
     29 H          -1.3005    4.1192    0.7216 H       1  UNL1        0.0518
     30 H           0.9936    4.3433   -0.3224 H       1  UNL1        0.1029
     31 H           3.3180    0.3056    1.6071 H       1  UNL1        0.0625
     32 H           4.7024   -1.6887    1.6179 H       1  UNL1        0.0647
     33 H           1.7127   -0.7121   -2.1592 H       1  UNL1        0.0640
     34 H           0.4201   -0.1541    2.2655 H       1  UNL1        0.0626
     35 H          -0.9529   -2.1106    2.9573 H       1  UNL1        0.0654
     36 H          -4.5391   -3.7975   -0.0944 H       1  UNL1        0.0845
     37 H          -3.6854   -1.8164   -1.6186 H       1  UNL1        0.0829
     38 H          -1.7438    0.0543   -1.3504 H       1  UNL1        0.0820
@<TRIPOS>BOND
     1     1     2    1
     2     2     3    1
     3     3     4    1
     4     4     5   ar
     5     5     6   ar
     6     6     7   ar
     7     7     8    1
     8     8     9   ar
     9     9    10   ar
    10    10    11   ar
    11    11    12    1
    12    11    13   ar
    13    13    14    1
    14    13    15   ar
    15     7    16   ar
    16    16    17    1
    17    17    18   ar
    18    18    19   ar
    19    19    20   ar
    20    20    21   ar
    21    21    22   ar
    22    22    23   ar
    23    23    24   ar
    24    24    25   ar
    25    16     4   ar
    26    25    17   ar
    27    15     8   ar
    28    24    20   ar
    29     2    26    1
    30     2    27    1
    31     3    28    1
    32     3    29    1
    33     5    30    1
    34     9    31    1
    35    10    32    1
    36    15    33    1
    37    18    34    1
    38    19    35    1
    39    22    36    1
    40    23    37    1
    41    25    38    1
