
     RDKit          3D

 70 74  0  0  0  0  0  0  0  0999 V2000
   -8.8989    1.0673   -2.1437 C   0  0  0  0  0  0  0  0  0  0  0  0
   -9.0010    1.9285   -0.8921 C   0  0  0  0  0  0  0  0  0  0  0  0
   -7.7978    1.8663   -0.1536 O   0  0  0  0  0  0  0  0  0  0  0  0
   -7.3535    0.6191    0.3283 C   0  0  0  0  0  0  0  0  0  0  0  0
   -7.9803   -0.5607    0.1507 N   0  0  0  0  0  0  0  0  0  0  0  0
   -7.3042   -1.5396    0.7270 N   0  0  0  0  0  0  0  0  0  0  0  0
   -7.6627   -2.9640    0.7535 C   0  0  0  0  0  0  0  0  0  0  0  0
   -6.2153   -0.9885    1.2917 C   0  0  0  0  0  0  0  0  0  0  0  0
   -6.2093    0.3837    1.0609 C   0  0  0  0  0  0  0  0  0  0  0  0
   -5.2375    1.3282    1.4873 N   0  0  0  0  0  0  0  0  0  0  0  0
   -4.1104    0.9487    2.2343 C   0  0  0  0  0  0  0  0  0  0  0  0
   -4.1552    0.9335    3.5856 N   0  0  0  0  0  0  0  0  0  0  0  0
   -3.1191    0.5826    4.3517 C   0  0  0  0  0  0  0  0  0  0  0  0
   -1.9258    0.2110    3.7509 C   0  0  0  0  0  0  0  0  0  0  0  0
   -0.8916   -0.1402    4.5599 F   0  0  0  0  0  0  0  0  0  0  0  0
   -1.8682    0.2224    2.3850 C   0  0  0  0  0  0  0  0  0  0  0  0
   -0.6423   -0.1582    1.7097 C   0  0  0  0  0  0  0  0  0  0  0  0
    0.5739   -0.5620    2.2160 C   0  0  0  0  0  0  0  0  0  0  0  0
    1.4426   -0.8199    1.1946 N   0  0  0  0  0  0  0  0  0  0  0  0
    0.8288   -0.5957    0.0180 C   0  0  0  0  0  0  0  0  0  0  0  0
    1.2798   -0.7121   -1.3041 C   0  0  0  0  0  0  0  0  0  0  0  0
    2.6303   -1.1446   -1.4708 N   0  0  0  0  0  0  0  0  0  0  0  0
    3.7216   -0.2082   -1.5327 C   0  0  0  0  0  0  0  0  0  0  0  0
    3.3900    1.0000   -1.4291 O   0  0  0  0  0  0  0  0  0  0  0  0
    5.1246   -0.6716   -1.7070 C   0  0  1  0  0  0  0  0  0  0  0  0
    5.1942   -1.4978   -2.9730 C   0  0  0  0  0  0  0  0  0  0  0  0
    6.0035    0.4537   -1.7284 N   0  0  0  0  0  0  0  0  0  0  0  0
    7.3838    0.1447   -1.9057 C   0  0  0  0  0  0  0  0  0  0  0  0
    7.9359   -0.4354   -0.6246 C   0  0  0  0  0  0  0  0  0  0  0  0
    8.0348    0.6464    0.3375 N   0  0  0  0  0  0  0  0  0  0  0  0
    7.9317    0.0780    1.6617 C   0  0  0  0  0  0  0  0  0  0  0  0
    7.1076    1.7009    0.0802 C   0  0  0  0  0  0  0  0  0  0  0  0
    5.8124    1.2464   -0.5556 C   0  0  0  0  0  0  0  0  0  0  0  0
    0.4498   -0.4212   -2.3377 C   0  0  0  0  0  0  0  0  0  0  0  0
   -0.8308   -0.0142   -2.0479 C   0  0  0  0  0  0  0  0  0  0  0  0
   -1.2809    0.1020   -0.7314 C   0  0  0  0  0  0  0  0  0  0  0  0
   -0.4528   -0.1885    0.3150 C   0  0  0  0  0  0  0  0  0  0  0  0
   -2.9500    0.5865    1.6892 N   0  0  0  0  0  0  0  0  0  0  0  0
   -9.2609    0.0340   -1.9380 H   0  0  0  0  0  0  0  0  0  0  0  0
   -9.5194    1.4762   -2.9732 H   0  0  0  0  0  0  0  0  0  0  0  0
   -7.8174    1.0200   -2.4044 H   0  0  0  0  0  0  0  0  0  0  0  0
   -9.8723    1.5596   -0.2996 H   0  0  0  0  0  0  0  0  0  0  0  0
   -9.1659    2.9608   -1.2331 H   0  0  0  0  0  0  0  0  0  0  0  0
   -6.7951   -3.5794    0.9903 H   0  0  0  0  0  0  0  0  0  0  0  0
   -8.4255   -3.0958    1.5610 H   0  0  0  0  0  0  0  0  0  0  0  0
   -8.1751   -3.2259   -0.1910 H   0  0  0  0  0  0  0  0  0  0  0  0
   -5.4477   -1.5046    1.8443 H   0  0  0  0  0  0  0  0  0  0  0  0
   -5.3915    2.3248    1.2235 H   0  0  0  0  0  0  0  0  0  0  0  0
   -3.1602    0.5721    5.4325 H   0  0  0  0  0  0  0  0  0  0  0  0
    0.8152   -0.6633    3.2707 H   0  0  0  0  0  0  0  0  0  0  0  0
    2.4185   -1.1390    1.3721 H   0  0  0  0  0  0  0  0  0  0  0  0
    2.7950   -2.1638   -1.5458 H   0  0  0  0  0  0  0  0  0  0  0  0
    5.3500   -1.3365   -0.8707 H   0  0  0  0  0  0  0  0  0  0  0  0
    6.1797   -1.9144   -3.1770 H   0  0  0  0  0  0  0  0  0  0  0  0
    4.7375   -0.9595   -3.8395 H   0  0  0  0  0  0  0  0  0  0  0  0
    4.5150   -2.3819   -2.7911 H   0  0  0  0  0  0  0  0  0  0  0  0
    7.9088    1.1195   -2.1259 H   0  0  0  0  0  0  0  0  0  0  0  0
    7.5894   -0.4943   -2.7821 H   0  0  0  0  0  0  0  0  0  0  0  0
    8.9494   -0.8757   -0.8046 H   0  0  0  0  0  0  0  0  0  0  0  0
    7.2517   -1.1829   -0.1760 H   0  0  0  0  0  0  0  0  0  0  0  0
    6.8768   -0.0330    1.9759 H   0  0  0  0  0  0  0  0  0  0  0  0
    8.3557   -0.9530    1.6072 H   0  0  0  0  0  0  0  0  0  0  0  0
    8.5051    0.7207    2.3703 H   0  0  0  0  0  0  0  0  0  0  0  0
    6.8167    2.1323    1.0823 H   0  0  0  0  0  0  0  0  0  0  0  0
    7.5341    2.5417   -0.4852 H   0  0  0  0  0  0  0  0  0  0  0  0
    5.1134    0.8066    0.1853 H   0  0  0  0  0  0  0  0  0  0  0  0
    5.3115    2.2028   -0.8919 H   0  0  0  0  0  0  0  0  0  0  0  0
    0.8351   -0.5234   -3.3446 H   0  0  0  0  0  0  0  0  0  0  0  0
   -1.4918    0.2175   -2.8723 H   0  0  0  0  0  0  0  0  0  0  0  0
   -2.2933    0.4242   -0.5206 H   0  0  0  0  0  0  0  0  0  0  0  0
  1  2  1  0
  2  3  1  0
  3  4  1  0
  4  5  2  0
  5  6  1  0
  6  7  1  0
  6  8  1  0
  8  9  2  0
  9 10  1  0
 10 11  1  0
 11 12  2  0
 12 13  1  0
 13 14  2  0
 14 15  1  0
 14 16  1  0
 16 17  1  0
 17 18  2  0
 18 19  1  0
 19 20  1  0
 20 21  2  0
 21 22  1  0
 22 23  1  0
 23 24  2  0
 23 25  1  0
 25 26  1  0
 25 27  1  0
 27 28  1  0
 28 29  1  0
 29 30  1  0
 30 31  1  0
 30 32  1  0
 32 33  1  0
 21 34  1  0
 34 35  2  0
 35 36  1  0
 36 37  2  0
 16 38  2  0
  9  4  1  0
 38 11  1  0
 37 17  1  0
 37 20  1  0
 33 27  1  0
  1 39  1  0
  1 40  1  0
  1 41  1  0
  2 42  1  0
  2 43  1  0
  7 44  1  0
  7 45  1  0
  7 46  1  0
  8 47  1  0
 10 48  1  0
 13 49  1  0
 18 50  1  0
 19 51  1  0
 22 52  1  0
 25 53  1  1
 26 54  1  0
 26 55  1  0
 26 56  1  0
 28 57  1  0
 28 58  1  0
 29 59  1  0
 29 60  1  0
 31 61  1  0
 31 62  1  0
 31 63  1  0
 32 64  1  0
 32 65  1  0
 33 66  1  0
 33 67  1  0
 34 68  1  0
 35 69  1  0
 36 70  1  0
M  END
$$$$
