@<TRIPOS>MOLECULE
*****
 70 74 0 0 0
SMALL
GASTEIGER

@<TRIPOS>ATOM
      1 C          -8.8989    1.0673   -2.1437 C.3     1  UNL1       -0.0306
      2 C          -9.0010    1.9285   -0.8921 C.3     1  UNL1        0.0885
      3 O          -7.7978    1.8663   -0.1536 O.3     1  UNL1       -0.4744
      4 C          -7.3535    0.6191    0.3283 C.ar    1  UNL1        0.2555
      5 N          -7.9803   -0.5607    0.1507 N.ar    1  UNL1       -0.1317
      6 N          -7.3042   -1.5396    0.7270 N.ar    1  UNL1       -0.2692
      7 C          -7.6627   -2.9640    0.7535 C.3     1  UNL1        0.0304
      8 C          -6.2153   -0.9885    1.2917 C.ar    1  UNL1        0.0503
      9 C          -6.2093    0.3837    1.0609 C.ar    1  UNL1        0.1152
     10 N          -5.2375    1.3282    1.4873 N.pl3   1  UNL1       -0.2782
     11 C          -4.1104    0.9487    2.2343 C.ar    1  UNL1        0.2203
     12 N          -4.1552    0.9335    3.5856 N.ar    1  UNL1       -0.2198
     13 C          -3.1191    0.5826    4.3517 C.ar    1  UNL1        0.0685
     14 C          -1.9258    0.2110    3.7509 C.ar    1  UNL1        0.1674
     15 F          -0.8916   -0.1402    4.5599 F       1  UNL1       -0.2016
     16 C          -1.8682    0.2224    2.3850 C.ar    1  UNL1        0.1132
     17 C          -0.6423   -0.1582    1.7097 C.ar    1  UNL1        0.0284
     18 C           0.5739   -0.5620    2.2160 C.ar    1  UNL1        0.0121
     19 N           1.4426   -0.8199    1.1946 N.ar    1  UNL1       -0.3586
     20 C           0.8288   -0.5957    0.0180 C.ar    1  UNL1        0.0686
     21 C           1.2798   -0.7121   -1.3041 C.ar    1  UNL1        0.0576
     22 N           2.6303   -1.1446   -1.4708 N.am    1  UNL1       -0.2825
     23 C           3.7216   -0.2082   -1.5327 C.2     1  UNL1        0.2342
     24 O           3.3900    1.0000   -1.4291 O.2     1  UNL1       -0.2738
     25 C           5.1246   -0.6716   -1.7070 C.3     1  UNL1        0.0848
     26 C           5.1942   -1.4978   -2.9730 C.3     1  UNL1       -0.0409
     27 N           6.0035    0.4537   -1.7284 N.3     1  UNL1       -0.2893
     28 C           7.3838    0.1447   -1.9057 C.3     1  UNL1        0.0124
     29 C           7.9359   -0.4354   -0.6246 C.3     1  UNL1        0.0114
     30 N           8.0348    0.6464    0.3375 N.3     1  UNL1       -0.3029
     31 C           7.9317    0.0780    1.6617 C.3     1  UNL1       -0.0127
     32 C           7.1076    1.7009    0.0802 C.3     1  UNL1        0.0114
     33 C           5.8124    1.2464   -0.5556 C.3     1  UNL1        0.0124
     34 C           0.4498   -0.4212   -2.3377 C.ar    1  UNL1       -0.0384
     35 C          -0.8308   -0.0142   -2.0479 C.ar    1  UNL1       -0.0593
     36 C          -1.2809    0.1020   -0.7314 C.ar    1  UNL1       -0.0518
     37 C          -0.4528   -0.1885    0.3150 C.ar    1  UNL1        0.0107
     38 N          -2.9500    0.5865    1.6892 N.ar    1  UNL1       -0.2113
     39 H          -9.2609    0.0340   -1.9380 H       1  UNL1        0.0262
     40 H          -9.5194    1.4762   -2.9732 H       1  UNL1        0.0262
     41 H          -7.8174    1.0200   -2.4044 H       1  UNL1        0.0262
     42 H          -9.8723    1.5596   -0.2996 H       1  UNL1        0.0694
     43 H          -9.1659    2.9608   -1.2331 H       1  UNL1        0.0694
     44 H          -6.7951   -3.5794    0.9903 H       1  UNL1        0.0473
     45 H          -8.4255   -3.0958    1.5610 H       1  UNL1        0.0473
     46 H          -8.1751   -3.2259   -0.1910 H       1  UNL1        0.0473
     47 H          -5.4477   -1.5046    1.8443 H       1  UNL1        0.0846
     48 H          -5.3915    2.3248    1.2235 H       1  UNL1        0.1552
     49 H          -3.1602    0.5721    5.4325 H       1  UNL1        0.0861
     50 H           0.8152   -0.6633    3.2707 H       1  UNL1        0.0814
     51 H           2.4185   -1.1390    1.3721 H       1  UNL1        0.1654
     52 H           2.7950   -2.1638   -1.5458 H       1  UNL1        0.1549
     53 H           5.3500   -1.3365   -0.8707 H       1  UNL1        0.0556
     54 H           6.1797   -1.9144   -3.1770 H       1  UNL1        0.0249
     55 H           4.7375   -0.9595   -3.8395 H       1  UNL1        0.0249
     56 H           4.5150   -2.3819   -2.7911 H       1  UNL1        0.0249
     57 H           7.9088    1.1195   -2.1259 H       1  UNL1        0.0439
     58 H           7.5894   -0.4943   -2.7821 H       1  UNL1        0.0439
     59 H           8.9494   -0.8757   -0.8046 H       1  UNL1        0.0439
     60 H           7.2517   -1.1829   -0.1760 H       1  UNL1        0.0439
     61 H           6.8768   -0.0330    1.9759 H       1  UNL1        0.0391
     62 H           8.3557   -0.9530    1.6072 H       1  UNL1        0.0391
     63 H           8.5051    0.7207    2.3703 H       1  UNL1        0.0391
     64 H           6.8167    2.1323    1.0823 H       1  UNL1        0.0439
     65 H           7.5341    2.5417   -0.4852 H       1  UNL1        0.0439
     66 H           5.1134    0.8066    0.1853 H       1  UNL1        0.0439
     67 H           5.3115    2.2028   -0.8919 H       1  UNL1        0.0439
     68 H           0.8351   -0.5234   -3.3446 H       1  UNL1        0.0637
     69 H          -1.4918    0.2175   -2.8723 H       1  UNL1        0.0618
     70 H          -2.2933    0.4242   -0.5206 H       1  UNL1        0.0624
@<TRIPOS>BOND
     1     1     2    1
     2     2     3    1
     3     3     4    1
     4     4     5   ar
     5     5     6   ar
     6     6     7    1
     7     6     8   ar
     8     8     9   ar
     9     9    10    1
    10    10    11    1
    11    11    12   ar
    12    12    13   ar
    13    13    14   ar
    14    14    15    1
    15    14    16   ar
    16    16    17    1
    17    17    18   ar
    18    18    19   ar
    19    19    20   ar
    20    20    21   ar
    21    21    22    1
    22    22    23   am
    23    23    24    2
    24    23    25    1
    25    25    26    1
    26    25    27    1
    27    27    28    1
    28    28    29    1
    29    29    30    1
    30    30    31    1
    31    30    32    1
    32    32    33    1
    33    21    34   ar
    34    34    35   ar
    35    35    36   ar
    36    36    37   ar
    37    16    38   ar
    38     9     4   ar
    39    38    11   ar
    40    37    17   ar
    41    37    20   ar
    42    33    27    1
    43     1    39    1
    44     1    40    1
    45     1    41    1
    46     2    42    1
    47     2    43    1
    48     7    44    1
    49     7    45    1
    50     7    46    1
    51     8    47    1
    52    10    48    1
    53    13    49    1
    54    18    50    1
    55    19    51    1
    56    22    52    1
    57    25    53    1
    58    26    54    1
    59    26    55    1
    60    26    56    1
    61    28    57    1
    62    28    58    1
    63    29    59    1
    64    29    60    1
    65    31    61    1
    66    31    62    1
    67    31    63    1
    68    32    64    1
    69    32    65    1
    70    33    66    1
    71    33    67    1
    72    34    68    1
    73    35    69    1
    74    36    70    1
