
     RDKit          3D

 44 47  0  0  0  0  0  0  0  0999 V2000
   -2.5671    3.4349    3.4667 N   0  0  0  0  0  0  0  0  0  0  0  0
   -1.9745    3.0918    2.5482 C   0  0  0  0  0  0  0  0  0  0  0  0
   -1.2298    2.6421    1.4092 C   0  0  0  0  0  0  0  0  0  0  0  0
   -0.7632    3.5158    0.5258 N   0  0  0  0  0  0  0  0  0  0  0  0
   -0.0652    3.0713   -0.5624 C   0  0  0  0  0  0  0  0  0  0  0  0
    0.1578    1.7104   -0.7486 C   0  0  0  0  0  0  0  0  0  0  0  0
    0.8823    1.2126   -1.8688 N   0  0  0  0  0  0  0  0  0  0  0  0
    2.3059    1.2651   -1.9432 C   0  0  0  0  0  0  0  0  0  0  0  0
    2.9675    1.9403   -0.9002 C   0  0  0  0  0  0  0  0  0  0  0  0
    4.3533    1.9958   -0.9787 C   0  0  0  0  0  0  0  0  0  0  0  0
    5.2869    2.5622   -0.1646 N   0  0  0  0  0  0  0  0  0  0  0  0
    6.5058    2.3233   -0.7233 C   0  0  0  0  0  0  0  0  0  0  0  0
    6.3820    1.6310   -1.8554 N   0  0  0  0  0  0  0  0  0  0  0  0
    5.0458    1.4347   -2.0020 C   0  0  0  0  0  0  0  0  0  0  0  0
    4.3409    0.7805   -3.0040 C   0  0  0  0  0  0  0  0  0  0  0  0
    3.0087    0.7287   -2.9225 N   0  0  0  0  0  0  0  0  0  0  0  0
   -0.3448    0.8970    0.1830 N   0  0  0  0  0  0  0  0  0  0  0  0
   -1.0278    1.2955    1.2514 C   0  0  0  0  0  0  0  0  0  0  0  0
   -1.5425    0.3990    2.2084 O   0  0  0  0  0  0  0  0  0  0  0  0
   -1.3955   -0.9850    2.1371 C   0  0  0  0  0  0  0  0  0  0  0  0
   -1.9962   -1.5825    0.8605 C   0  0  0  0  0  0  0  0  0  0  0  0
   -1.7867   -3.0685    0.9392 C   0  0  0  0  0  0  0  0  0  0  0  0
   -3.1513   -3.6799    1.2158 C   0  0  0  0  0  0  0  0  0  0  0  0
   -3.9695   -3.5030    0.0472 N   0  0  0  0  0  0  0  0  0  0  0  0
   -4.1942   -2.1132   -0.2644 C   0  0  0  0  0  0  0  0  0  0  0  0
   -3.4404   -1.2290    0.6901 C   0  0  0  0  0  0  0  0  0  0  0  0
    0.3253    3.7454   -1.2934 H   0  0  0  0  0  0  0  0  0  0  0  0
    0.3723    0.7946   -2.6655 H   0  0  0  0  0  0  0  0  0  0  0  0
    2.4433    2.3799   -0.1017 H   0  0  0  0  0  0  0  0  0  0  0  0
    7.4302    2.6565   -0.2943 H   0  0  0  0  0  0  0  0  0  0  0  0
    7.1555    1.3172   -2.4732 H   0  0  0  0  0  0  0  0  0  0  0  0
    4.8973    0.3423   -3.8078 H   0  0  0  0  0  0  0  0  0  0  0  0
   -0.2897   -1.2112    2.1413 H   0  0  0  0  0  0  0  0  0  0  0  0
   -1.8044   -1.5010    3.0233 H   0  0  0  0  0  0  0  0  0  0  0  0
   -1.4442   -1.1963   -0.0254 H   0  0  0  0  0  0  0  0  0  0  0  0
   -1.4304   -3.4908   -0.0206 H   0  0  0  0  0  0  0  0  0  0  0  0
   -1.0691   -3.3424    1.7440 H   0  0  0  0  0  0  0  0  0  0  0  0
   -3.0625   -4.6856    1.6032 H   0  0  0  0  0  0  0  0  0  0  0  0
   -3.6509   -3.0785    2.0175 H   0  0  0  0  0  0  0  0  0  0  0  0
   -4.8567   -4.0673    0.0754 H   0  0  0  0  0  0  0  0  0  0  0  0
   -4.0226   -1.8706   -1.3184 H   0  0  0  0  0  0  0  0  0  0  0  0
   -5.2814   -1.9288   -0.0470 H   0  0  0  0  0  0  0  0  0  0  0  0
   -3.5185   -0.1787    0.2381 H   0  0  0  0  0  0  0  0  0  0  0  0
   -3.9819   -1.1185    1.6602 H   0  0  0  0  0  0  0  0  0  0  0  0
  1  2  3  0
  2  3  1  0
  3  4  2  0
  4  5  1  0
  5  6  2  0
  6  7  1  0
  7  8  1  0
  8  9  2  0
  9 10  1  0
 10 11  1  0
 11 12  2  0
 12 13  1  0
 13 14  1  0
 14 15  1  0
 15 16  2  0
  6 17  1  0
 17 18  2  0
 18 19  1  0
 19 20  1  0
 20 21  1  0
 21 22  1  0
 22 23  1  0
 23 24  1  0
 24 25  1  0
 25 26  1  0
 18  3  1  0
 26 21  1  0
 16  8  1  0
 14 10  2  0
  5 27  1  0
  7 28  1  0
  9 29  1  0
 12 30  1  0
 13 31  1  0
 15 32  1  0
 20 33  1  0
 20 34  1  0
 21 35  1  0
 22 36  1  0
 22 37  1  0
 23 38  1  0
 23 39  1  0
 24 40  1  0
 25 41  1  0
 25 42  1  0
 26 43  1  0
 26 44  1  0
M  END
$$$$
