@<TRIPOS>MOLECULE
*****
 44 47 0 0 0
SMALL
GASTEIGER

@<TRIPOS>ATOM
      1 N          -2.5671    3.4349    3.4667 N.1     1  UNL1       -0.1891
      2 C          -1.9745    3.0918    2.5482 C.1     1  UNL1        0.1246
      3 C          -1.2298    2.6421    1.4092 C.ar    1  UNL1        0.2019
      4 N          -0.7632    3.5158    0.5258 N.ar    1  UNL1       -0.2364
      5 C          -0.0652    3.0713   -0.5624 C.ar    1  UNL1        0.0693
      6 C           0.1578    1.7104   -0.7486 C.ar    1  UNL1        0.1461
      7 N           0.8823    1.2126   -1.8688 N.pl3   1  UNL1       -0.2830
      8 C           2.3059    1.2651   -1.9432 C.ar    1  UNL1        0.1261
      9 C           2.9675    1.9403   -0.9002 C.ar    1  UNL1        0.0059
     10 C           4.3533    1.9958   -0.9787 C.ar    1  UNL1        0.0935
     11 N           5.2869    2.5622   -0.1646 N.ar    1  UNL1       -0.2358
     12 C           6.5058    2.3233   -0.7233 C.ar    1  UNL1        0.0945
     13 N           6.3820    1.6310   -1.8554 N.ar    1  UNL1       -0.3432
     14 C           5.0458    1.4347   -2.0020 C.ar    1  UNL1        0.0845
     15 C           4.3409    0.7805   -3.0040 C.ar    1  UNL1        0.0551
     16 N           3.0087    0.7287   -2.9225 N.ar    1  UNL1       -0.2380
     17 N          -0.3448    0.8970    0.1830 N.ar    1  UNL1       -0.1938
     18 C          -1.0278    1.2955    1.2514 C.ar    1  UNL1        0.2536
     19 O          -1.5425    0.3990    2.2084 O.3     1  UNL1       -0.4741
     20 C          -1.3955   -0.9850    2.1371 C.3     1  UNL1        0.0942
     21 C          -1.9962   -1.5825    0.8605 C.3     1  UNL1       -0.0044
     22 C          -1.7867   -3.0685    0.9392 C.3     1  UNL1       -0.0345
     23 C          -3.1513   -3.6799    1.2158 C.3     1  UNL1       -0.0037
     24 N          -3.9695   -3.5030    0.0472 N.3     1  UNL1       -0.3159
     25 C          -4.1942   -2.1132   -0.2644 C.3     1  UNL1       -0.0037
     26 C          -3.4404   -1.2290    0.6901 C.3     1  UNL1       -0.0345
     27 H           0.3253    3.7454   -1.2934 H       1  UNL1        0.0865
     28 H           0.3723    0.7946   -2.6655 H       1  UNL1        0.1550
     29 H           2.4433    2.3799   -0.1017 H       1  UNL1        0.0674
     30 H           7.4302    2.6565   -0.2943 H       1  UNL1        0.1027
     31 H           7.1555    1.3172   -2.4732 H       1  UNL1        0.1668
     32 H           4.8973    0.3423   -3.8078 H       1  UNL1        0.0852
     33 H          -0.2897   -1.2112    2.1413 H       1  UNL1        0.0700
     34 H          -1.8044   -1.5010    3.0233 H       1  UNL1        0.0700
     35 H          -1.4442   -1.1963   -0.0254 H       1  UNL1        0.0334
     36 H          -1.4304   -3.4908   -0.0206 H       1  UNL1        0.0281
     37 H          -1.0691   -3.3424    1.7440 H       1  UNL1        0.0281
     38 H          -3.0625   -4.6856    1.6032 H       1  UNL1        0.0424
     39 H          -3.6509   -3.0785    2.0175 H       1  UNL1        0.0424
     40 H          -4.8567   -4.0673    0.0754 H       1  UNL1        0.1219
     41 H          -4.0226   -1.8706   -1.3184 H       1  UNL1        0.0424
     42 H          -5.2814   -1.9288   -0.0470 H       1  UNL1        0.0424
     43 H          -3.5185   -0.1787    0.2381 H       1  UNL1        0.0281
     44 H          -3.9819   -1.1185    1.6602 H       1  UNL1        0.0281
@<TRIPOS>BOND
     1     1     2    3
     2     2     3    1
     3     3     4   ar
     4     4     5   ar
     5     5     6   ar
     6     6     7    1
     7     7     8    1
     8     8     9   ar
     9     9    10   ar
    10    10    11   ar
    11    11    12   ar
    12    12    13   ar
    13    13    14   ar
    14    14    15   ar
    15    15    16   ar
    16     6    17   ar
    17    17    18   ar
    18    18    19    1
    19    19    20    1
    20    20    21    1
    21    21    22    1
    22    22    23    1
    23    23    24    1
    24    24    25    1
    25    25    26    1
    26    18     3   ar
    27    26    21    1
    28    16     8   ar
    29    14    10   ar
    30     5    27    1
    31     7    28    1
    32     9    29    1
    33    12    30    1
    34    13    31    1
    35    15    32    1
    36    20    33    1
    37    20    34    1
    38    21    35    1
    39    22    36    1
    40    22    37    1
    41    23    38    1
    42    23    39    1
    43    24    40    1
    44    25    41    1
    45    25    42    1
    46    26    43    1
    47    26    44    1
