@<TRIPOS>MOLECULE
*****
 80 84 0 0 0
SMALL
GASTEIGER

@<TRIPOS>ATOM
      1 C           3.8559    4.0003   -3.3777 C.3     1  UNL1        0.0364
      2 O           3.4814    2.7398   -2.9434 O.3     1  UNL1       -0.3830
      3 C           4.3738    1.7541   -3.3719 C.3     1  UNL1        0.0473
      4 C           3.9170    0.3977   -2.8703 C.3     1  UNL1       -0.0294
      5 C           3.8938    0.4805   -1.3082 C.3     1  UNL1       -0.0498
      6 C           3.4590   -0.7980   -0.7452 C.3     1  UNL1       -0.0376
      7 C           3.2890   -0.9633    0.7405 C.3     1  UNL1        0.0430
      8 C           2.2645   -0.1353    1.3948 C.3     1  UNL1        0.0255
      9 N           0.9019   -0.1223    1.1705 N.am    1  UNL1       -0.3139
     10 C           0.1945    0.2570    0.0166 C.2     1  UNL1        0.2174
     11 O           0.7446    0.6606   -1.0382 O.2     1  UNL1       -0.2755
     12 C          -1.3170    0.1699    0.0694 C.3     1  UNL1        0.0495
     13 C          -1.6817   -1.2557    0.2915 C.3     1  UNL1        0.0071
     14 N          -3.1229   -1.4626    0.2801 N.3     1  UNL1       -0.3137
     15 C          -3.7282   -0.8949   -0.9084 C.3     1  UNL1        0.0130
     16 C          -3.4248    0.5697   -1.0433 C.3     1  UNL1        0.0420
     17 N          -4.1913    1.2347   -2.0223 N.3     1  UNL1       -0.1857
     18 S          -5.2127    2.4750   -1.5106 S.O2    1  UNL1        0.0587
     19 O          -4.5184    3.5869   -0.7866 O.2     1  UNL1       -0.1530
     20 O          -5.9837    3.0487   -2.6701 O.2     1  UNL1       -0.1530
     21 C          -6.3928    1.8093   -0.4094 C.ar    1  UNL1        0.1053
     22 C          -6.1008    1.8166    0.9326 C.ar    1  UNL1       -0.0351
     23 C          -7.0071    1.2977    1.8393 C.ar    1  UNL1       -0.0570
     24 C          -8.2112    0.7659    1.4350 C.ar    1  UNL1       -0.0503
     25 C          -9.1786    0.2113    2.4149 C.3     1  UNL1       -0.0397
     26 C          -8.4802    0.7710    0.0784 C.ar    1  UNL1       -0.0570
     27 C          -7.5824    1.2864   -0.8349 C.ar    1  UNL1       -0.0351
     28 C          -1.9293    0.7385   -1.1936 C.3     1  UNL1       -0.0225
     29 C           3.0729   -2.4271    0.9304 C.ar    1  UNL1        0.0070
     30 C           1.8353   -2.9183    0.4728 C.ar    1  UNL1       -0.0542
     31 C           1.5890   -4.2627    0.5843 C.ar    1  UNL1       -0.0612
     32 C           2.4862   -5.1559    1.1184 C.ar    1  UNL1       -0.0583
     33 C           3.6750   -4.6309    1.5491 C.ar    1  UNL1       -0.0190
     34 C           3.9872   -3.2556    1.4618 C.ar    1  UNL1        0.1325
     35 O           5.2316   -2.8581    1.9400 O.3     1  UNL1       -0.4554
     36 C           5.4867   -1.4988    1.8356 C.ar    1  UNL1        0.1325
     37 C           6.7517   -1.0983    2.3378 C.ar    1  UNL1       -0.0190
     38 C           7.1524    0.2139    2.3191 C.ar    1  UNL1       -0.0583
     39 C           6.2575    1.1067    1.7884 C.ar    1  UNL1       -0.0612
     40 C           5.0247    0.7514    1.2929 C.ar    1  UNL1       -0.0542
     41 C           4.6347   -0.5842    1.3169 C.ar    1  UNL1        0.0070
     42 H           3.1055    4.7194   -3.0009 H       1  UNL1        0.0523
     43 H           4.0014    4.0548   -4.4694 H       1  UNL1        0.0523
     44 H           4.8336    4.3194   -2.9205 H       1  UNL1        0.0523
     45 H           5.3603    2.0317   -2.9480 H       1  UNL1        0.0560
     46 H           4.4769    1.7199   -4.4743 H       1  UNL1        0.0560
     47 H           4.6521   -0.3452   -3.2069 H       1  UNL1        0.0287
     48 H           2.9329    0.1234   -3.2607 H       1  UNL1        0.0287
     49 H           4.9793    0.7160   -1.1158 H       1  UNL1        0.0266
     50 H           3.2531    1.3173   -1.0979 H       1  UNL1        0.0266
     51 H           4.2849   -1.5517   -1.0557 H       1  UNL1        0.0277
     52 H           2.5837   -1.2639   -1.3029 H       1  UNL1        0.0277
     53 H           2.5983    0.9598    1.2962 H       1  UNL1        0.0474
     54 H           2.4438   -0.2853    2.5255 H       1  UNL1        0.0474
     55 H           0.2317   -0.4455    1.9753 H       1  UNL1        0.1487
     56 H          -1.6597    0.8388    0.9015 H       1  UNL1        0.0407
     57 H          -1.3099   -1.5782    1.2796 H       1  UNL1        0.0431
     58 H          -1.1801   -1.8674   -0.4799 H       1  UNL1        0.0431
     59 H          -3.3901   -2.4331    0.4534 H       1  UNL1        0.1220
     60 H          -3.4262   -1.4786   -1.7864 H       1  UNL1        0.0440
     61 H          -4.8327   -1.0064   -0.7811 H       1  UNL1        0.0440
     62 H          -3.6630    1.0285   -0.0423 H       1  UNL1        0.0490
     63 H          -3.7617    1.3572   -2.9526 H       1  UNL1        0.1484
     64 H          -5.1881    2.2095    1.3640 H       1  UNL1        0.0637
     65 H          -6.7970    1.2922    2.9133 H       1  UNL1        0.0621
     66 H          -9.0334   -0.8932    2.5557 H       1  UNL1        0.0278
     67 H         -10.2154    0.4742    2.1694 H       1  UNL1        0.0278
     68 H          -8.9837    0.6547    3.4299 H       1  UNL1        0.0278
     69 H          -9.4407    0.3460   -0.2356 H       1  UNL1        0.0621
     70 H          -7.8522    1.2625   -1.8982 H       1  UNL1        0.0637
     71 H          -1.5260    0.1464   -2.0354 H       1  UNL1        0.0289
     72 H          -1.6975    1.8029   -1.2266 H       1  UNL1        0.0289
     73 H           1.0889   -2.2825    0.0323 H       1  UNL1        0.0622
     74 H           0.6176   -4.6306    0.2226 H       1  UNL1        0.0618
     75 H           2.2254   -6.1980    1.1742 H       1  UNL1        0.0619
     76 H           4.4355   -5.2810    1.9844 H       1  UNL1        0.0654
     77 H           7.3972   -1.8631    2.7391 H       1  UNL1        0.0654
     78 H           8.1102    0.5395    2.6956 H       1  UNL1        0.0619
     79 H           6.4963    2.1823    1.7348 H       1  UNL1        0.0618
     80 H           4.3516    1.4854    0.9096 H       1  UNL1        0.0622
@<TRIPOS>BOND
     1     1     2    1
     2     2     3    1
     3     3     4    1
     4     4     5    1
     5     5     6    1
     6     6     7    1
     7     7     8    1
     8     8     9    1
     9     9    10   am
    10    10    11    2
    11    10    12    1
    12    12    13    1
    13    13    14    1
    14    14    15    1
    15    15    16    1
    16    16    17    1
    17    17    18    1
    18    18    19    2
    19    18    20    2
    20    18    21    1
    21    21    22   ar
    22    22    23   ar
    23    23    24   ar
    24    24    25    1
    25    24    26   ar
    26    26    27   ar
    27    16    28    1
    28     7    29    1
    29    29    30   ar
    30    30    31   ar
    31    31    32   ar
    32    32    33   ar
    33    33    34   ar
    34    34    35    1
    35    35    36    1
    36    36    37   ar
    37    37    38   ar
    38    38    39   ar
    39    39    40   ar
    40    40    41   ar
    41    41     7    1
    42    28    12    1
    43    34    29   ar
    44    41    36   ar
    45    27    21   ar
    46     1    42    1
    47     1    43    1
    48     1    44    1
    49     3    45    1
    50     3    46    1
    51     4    47    1
    52     4    48    1
    53     5    49    1
    54     5    50    1
    55     6    51    1
    56     6    52    1
    57     8    53    1
    58     8    54    1
    59     9    55    1
    60    12    56    1
    61    13    57    1
    62    13    58    1
    63    14    59    1
    64    15    60    1
    65    15    61    1
    66    16    62    1
    67    17    63    1
    68    22    64    1
    69    23    65    1
    70    25    66    1
    71    25    67    1
    72    25    68    1
    73    26    69    1
    74    27    70    1
    75    28    71    1
    76    28    72    1
    77    30    73    1
    78    31    74    1
    79    32    75    1
    80    33    76    1
    81    37    77    1
    82    38    78    1
    83    39    79    1
    84    40    80    1
