@<TRIPOS>MOLECULE
*****
 59 62 0 0 0
SMALL
GASTEIGER

@<TRIPOS>ATOM
      1 C          -5.8438    3.6961   -3.5087 C.3     1  UNL1       -0.0306
      2 C          -6.3941    2.3081   -3.5101 C.3     1  UNL1        0.0900
      3 O          -5.8992    1.5017   -2.4683 O.3     1  UNL1       -0.4603
      4 C          -4.5448    1.2147   -2.3152 C.2     1  UNL1        0.3595
      5 O          -3.7651    1.7150   -3.1624 O.2     1  UNL1       -0.2432
      6 C          -4.0404    0.3813   -1.2371 C.ar    1  UNL1        0.1702
      7 C          -2.7251    0.0656   -1.0380 C.ar    1  UNL1       -0.0015
      8 C          -2.6186   -0.7493    0.0887 C.ar    1  UNL1        0.0755
      9 C          -1.3864   -1.3023    0.6367 C.ar    1  UNL1        0.0040
     10 C          -1.3210   -2.6355    1.0310 C.ar    1  UNL1       -0.0523
     11 C          -0.1518   -3.1488    1.5475 C.ar    1  UNL1       -0.0577
     12 C           0.9751   -2.3718    1.6891 C.ar    1  UNL1       -0.0191
     13 C           0.9256   -1.0296    1.2972 C.ar    1  UNL1        0.1339
     14 O           2.0845   -0.2590    1.4506 O.3     1  UNL1       -0.4115
     15 C           3.0370   -0.1588    0.4525 C.2     1  UNL1        0.4058
     16 O           2.8467   -0.7811   -0.6185 O.2     1  UNL1       -0.2260
     17 N           4.2260    0.6072    0.5579 N.am    1  UNL1       -0.2779
     18 C           5.1958    0.6921   -0.4943 C.3     1  UNL1        0.0263
     19 C           5.4164    2.0757   -1.0197 C.3     1  UNL1       -0.0344
     20 C           6.7254    2.0382   -1.8200 C.3     1  UNL1       -0.0514
     21 C           7.9169    1.8689   -0.9052 C.3     1  UNL1       -0.0529
     22 C           7.4674    1.1812    0.3644 C.3     1  UNL1       -0.0514
     23 C           6.5075    0.0677   -0.0671 C.3     1  UNL1       -0.0344
     24 C          -0.2460   -0.5431    0.7875 C.ar    1  UNL1       -0.0100
     25 N          -3.8809   -0.8977    0.5328 N.ar    1  UNL1       -0.2313
     26 C          -4.2042   -1.6770    1.6887 C.ar    1  UNL1        0.0660
     27 C          -5.1976   -2.6487    1.6414 C.ar    1  UNL1       -0.0362
     28 C          -5.5460   -3.4206    2.7139 C.ar    1  UNL1       -0.0598
     29 C          -4.8831   -3.2378    3.9219 C.ar    1  UNL1       -0.0616
     30 C          -3.8952   -2.2859    4.0054 C.ar    1  UNL1       -0.0598
     31 C          -3.5576   -1.5099    2.8952 C.ar    1  UNL1       -0.0362
     32 N          -4.7261   -0.2221   -0.2603 N.ar    1  UNL1       -0.1592
     33 H          -6.6872    4.4027   -3.7175 H       1  UNL1        0.0262
     34 H          -5.1361    3.8373   -4.3614 H       1  UNL1        0.0262
     35 H          -5.3994    3.9991   -2.5398 H       1  UNL1        0.0262
     36 H          -6.2229    1.8681   -4.5184 H       1  UNL1        0.0695
     37 H          -7.5160    2.3132   -3.3909 H       1  UNL1        0.0695
     38 H          -1.8859    0.3797   -1.6364 H       1  UNL1        0.0663
     39 H          -2.1818   -3.2879    0.9394 H       1  UNL1        0.0624
     40 H          -0.1238   -4.2049    1.8524 H       1  UNL1        0.0619
     41 H           1.9025   -2.7571    2.0927 H       1  UNL1        0.0654
     42 H           4.4041    1.1296    1.4335 H       1  UNL1        0.1523
     43 H           4.8217    0.0661   -1.3423 H       1  UNL1        0.0499
     44 H           5.4857    2.8547   -0.2471 H       1  UNL1        0.0283
     45 H           4.6267    2.3000   -1.7873 H       1  UNL1        0.0283
     46 H           6.6694    1.2158   -2.5489 H       1  UNL1        0.0266
     47 H           6.8191    2.9969   -2.3375 H       1  UNL1        0.0266
     48 H           8.4062    2.8188   -0.6709 H       1  UNL1        0.0265
     49 H           8.6617    1.1958   -1.4125 H       1  UNL1        0.0265
     50 H           6.8908    1.8981    0.9719 H       1  UNL1        0.0266
     51 H           8.2967    0.7095    0.9073 H       1  UNL1        0.0266
     52 H           6.3097   -0.5974    0.7819 H       1  UNL1        0.0283
     53 H           7.0055   -0.4443   -0.9238 H       1  UNL1        0.0283
     54 H          -0.2999    0.4950    0.4795 H       1  UNL1        0.0661
     55 H          -5.7320   -2.8068    0.6948 H       1  UNL1        0.0639
     56 H          -6.3161   -4.1710    2.6700 H       1  UNL1        0.0618
     57 H          -5.1683   -3.8618    4.7801 H       1  UNL1        0.0618
     58 H          -3.3564   -2.1187    4.9395 H       1  UNL1        0.0618
     59 H          -2.7715   -0.7650    2.9937 H       1  UNL1        0.0639
@<TRIPOS>BOND
     1     1     2    1
     2     2     3    1
     3     3     4    1
     4     4     5    2
     5     4     6    1
     6     6     7   ar
     7     7     8   ar
     8     8     9    1
     9     9    10   ar
    10    10    11   ar
    11    11    12   ar
    12    12    13   ar
    13    13    14    1
    14    14    15    1
    15    15    16    2
    16    15    17   am
    17    17    18    1
    18    18    19    1
    19    19    20    1
    20    20    21    1
    21    21    22    1
    22    22    23    1
    23    13    24   ar
    24     8    25   ar
    25    25    26    1
    26    26    27   ar
    27    27    28   ar
    28    28    29   ar
    29    29    30   ar
    30    30    31   ar
    31    25    32   ar
    32    32     6   ar
    33    24     9   ar
    34    31    26   ar
    35    23    18    1
    36     1    33    1
    37     1    34    1
    38     1    35    1
    39     2    36    1
    40     2    37    1
    41     7    38    1
    42    10    39    1
    43    11    40    1
    44    12    41    1
    45    17    42    1
    46    18    43    1
    47    19    44    1
    48    19    45    1
    49    20    46    1
    50    20    47    1
    51    21    48    1
    52    21    49    1
    53    22    50    1
    54    22    51    1
    55    23    52    1
    56    23    53    1
    57    24    54    1
    58    27    55    1
    59    28    56    1
    60    29    57    1
    61    30    58    1
    62    31    59    1
