@<TRIPOS>MOLECULE
*****
 64 68 0 0 0
SMALL
GASTEIGER

@<TRIPOS>ATOM
      1 C          -5.6307    2.7189   -1.2515 C.3     1  UNL1       -0.0558
      2 C          -5.3302    1.2542   -1.5255 C.3     1  UNL1        0.0120
      3 C          -6.5090    0.7096   -2.3303 C.3     1  UNL1       -0.0558
      4 C          -5.2337    0.5321   -0.2246 C.ar    1  UNL1        0.1190
      5 N          -6.2179    0.4138    0.6838 N.ar    1  UNL1       -0.2300
      6 C          -5.7758   -0.3083    1.7452 C.ar    1  UNL1        0.1086
      7 C          -6.3768   -0.7048    2.9156 C.ar    1  UNL1       -0.0312
      8 C          -5.6488   -1.4458    3.8146 C.ar    1  UNL1       -0.0414
      9 C          -4.3453   -1.7535    3.4914 C.ar    1  UNL1        0.0300
     10 N          -3.7725   -1.3585    2.3436 N.ar    1  UNL1       -0.2355
     11 C          -4.4608   -0.6260    1.4331 C.ar    1  UNL1        0.1650
     12 N          -4.1437   -0.1069    0.2286 N.ar    1  UNL1       -0.2805
     13 C          -2.8523   -0.2613   -0.3781 C.ar    1  UNL1        0.0497
     14 C          -2.0584    0.8392   -0.5849 C.ar    1  UNL1       -0.0375
     15 C          -0.8190    0.7023   -1.1639 C.ar    1  UNL1       -0.0565
     16 C          -0.3278   -0.5310   -1.5562 C.ar    1  UNL1       -0.0450
     17 C           0.9824   -0.6467   -2.1916 C.3     1  UNL1        0.0011
     18 CA          2.0998   -0.7585   -1.1925 C.3     1  UNL1        0.1221
     19 N           3.3855   -0.8748   -1.8636 N.pl3   1  UNL1       -0.3328
     20 C           4.6262   -0.9989   -1.1173 C.2     1  UNL1        0.0359
     21 C           5.4755   -1.9759   -1.1229 C.2     1  UNL1        0.0788
     22 BR          5.6062   -3.6962   -2.0332 Br      1  UNL1       -0.0451
     23 C           6.3266   -1.3149   -0.1736 C.2     1  UNL1        0.1830
     24 O           7.4394   -1.6320    0.3866 O.2     1  UNL1       -0.2905
     25 C           5.3854   -0.2263   -0.1749 C.3     1  UNL1        0.0728
     26 C           6.0103    1.0581   -0.6997 C.3     1  UNL1       -0.0350
     27 C           6.6384    1.7664    0.4766 C.3     1  UNL1       -0.0518
     28 C           5.5054    2.4582    1.2230 C.3     1  UNL1       -0.0530
     29 C           4.3121    1.5425    1.1522 C.3     1  UNL1       -0.0518
     30 C           4.7119    0.0838    1.1513 C.3     1  UNL1       -0.0350
     31 C           1.8693   -1.8888   -0.2920 C.2     1  UNL1        0.3255
     32 O           0.8608   -1.9691    0.4330 O.2     1  UNL1       -0.2489
     33 OXT         2.7861   -2.9504   -0.2015 O.3     1  UNL1       -0.4793
     34 C          -1.1431   -1.6478   -1.3424 C.ar    1  UNL1       -0.0565
     35 C          -2.3830   -1.5003   -0.7616 C.ar    1  UNL1       -0.0375
     36 H          -5.2906    3.2899   -2.1226 H       1  UNL1        0.0236
     37 H          -5.0833    3.0613   -0.3501 H       1  UNL1        0.0236
     38 H          -6.7463    2.7834   -1.1110 H       1  UNL1        0.0236
     39 H          -4.4040    1.2156   -2.0973 H       1  UNL1        0.0374
     40 H          -6.8534   -0.2180   -1.8375 H       1  UNL1        0.0236
     41 H          -6.1513    0.4516   -3.3531 H       1  UNL1        0.0236
     42 H          -7.3360    1.4416   -2.3993 H       1  UNL1        0.0236
     43 H          -7.3953   -0.4601    3.1598 H       1  UNL1        0.0640
     44 H          -6.1052   -1.7726    4.7516 H       1  UNL1        0.0633
     45 H          -3.7920   -2.3477    4.2337 H       1  UNL1        0.0830
     46 H          -2.4360    1.8271   -0.2777 H       1  UNL1        0.0638
     47 H          -0.2180    1.6164   -1.3088 H       1  UNL1        0.0621
     48 H           0.9743   -1.6124   -2.7653 H       1  UNL1        0.0337
     49 H           1.1708    0.1436   -2.9507 H       1  UNL1        0.0337
     50 HA          2.1205    0.2268   -0.6432 H       1  UNL1        0.0617
     51 H           3.4256   -0.8699   -2.8966 H       1  UNL1        0.1466
     52 H           6.8158    0.7993   -1.4227 H       1  UNL1        0.0278
     53 H           5.2797    1.7354   -1.1645 H       1  UNL1        0.0278
     54 H           7.2091    1.0831    1.1324 H       1  UNL1        0.0266
     55 H           7.3429    2.5749    0.1407 H       1  UNL1        0.0266
     56 H           5.3228    3.4207    0.7077 H       1  UNL1        0.0265
     57 H           5.8180    2.6788    2.2618 H       1  UNL1        0.0265
     58 H           3.5995    1.7755    1.9754 H       1  UNL1        0.0266
     59 H           3.7722    1.7449    0.2048 H       1  UNL1        0.0266
     60 H           3.8257   -0.5173    1.3491 H       1  UNL1        0.0278
     61 H           5.4331   -0.1336    1.9871 H       1  UNL1        0.0278
     62 HXT         2.5240   -3.8371    0.2030 H       1  UNL1        0.2951
     63 H          -0.7972   -2.6202   -1.6371 H       1  UNL1        0.0621
     64 H          -3.0176   -2.3833   -0.5969 H       1  UNL1        0.0638
@<TRIPOS>BOND
     1     1     2    1
     2     2     3    1
     3     2     4    1
     4     4     5   ar
     5     5     6   ar
     6     6     7   ar
     7     7     8   ar
     8     8     9   ar
     9     9    10   ar
    10    10    11   ar
    11    11    12   ar
    12    12    13    1
    13    13    14   ar
    14    14    15   ar
    15    15    16   ar
    16    16    17    1
    17    17    18    1
    18    18    19    1
    19    19    20    1
    20    20    21    2
    21    21    22    1
    22    21    23    1
    23    23    24    2
    24    23    25    1
    25    25    26    1
    26    26    27    1
    27    27    28    1
    28    28    29    1
    29    29    30    1
    30    18    31    1
    31    31    32    2
    32    31    33    1
    33    16    34   ar
    34    34    35   ar
    35    12     4   ar
    36    35    13   ar
    37    11     6   ar
    38    25    20    1
    39    30    25    1
    40     1    36    1
    41     1    37    1
    42     1    38    1
    43     2    39    1
    44     3    40    1
    45     3    41    1
    46     3    42    1
    47     7    43    1
    48     8    44    1
    49     9    45    1
    50    14    46    1
    51    15    47    1
    52    17    48    1
    53    17    49    1
    54    18    50    1
    55    19    51    1
    56    26    52    1
    57    26    53    1
    58    27    54    1
    59    27    55    1
    60    28    56    1
    61    28    57    1
    62    29    58    1
    63    29    59    1
    64    30    60    1
    65    30    61    1
    66    33    62    1
    67    34    63    1
    68    35    64    1
