
     RDKit          3D

 64 68  0  0  0  0  0  0  0  0999 V2000
   -5.6307    2.7189   -1.2515 C   0  0  0  0  0  0  0  0  0  0  0  0
   -5.3302    1.2542   -1.5255 C   0  0  0  0  0  0  0  0  0  0  0  0
   -6.5090    0.7096   -2.3303 C   0  0  0  0  0  0  0  0  0  0  0  0
   -5.2337    0.5321   -0.2246 C   0  0  0  0  0  0  0  0  0  0  0  0
   -6.2179    0.4138    0.6838 N   0  0  0  0  0  0  0  0  0  0  0  0
   -5.7758   -0.3083    1.7452 C   0  0  0  0  0  0  0  0  0  0  0  0
   -6.3768   -0.7048    2.9156 C   0  0  0  0  0  0  0  0  0  0  0  0
   -5.6488   -1.4458    3.8146 C   0  0  0  0  0  0  0  0  0  0  0  0
   -4.3453   -1.7535    3.4914 C   0  0  0  0  0  0  0  0  0  0  0  0
   -3.7725   -1.3585    2.3436 N   0  0  0  0  0  0  0  0  0  0  0  0
   -4.4608   -0.6260    1.4331 C   0  0  0  0  0  0  0  0  0  0  0  0
   -4.1437   -0.1069    0.2286 N   0  0  0  0  0  0  0  0  0  0  0  0
   -2.8523   -0.2613   -0.3781 C   0  0  0  0  0  0  0  0  0  0  0  0
   -2.0584    0.8392   -0.5849 C   0  0  0  0  0  0  0  0  0  0  0  0
   -0.8190    0.7023   -1.1639 C   0  0  0  0  0  0  0  0  0  0  0  0
   -0.3278   -0.5310   -1.5562 C   0  0  0  0  0  0  0  0  0  0  0  0
    0.9824   -0.6467   -2.1916 C   0  0  0  0  0  0  0  0  0  0  0  0
    2.0998   -0.7585   -1.1925 C   0  0  2  0  0  0  0  0  0  0  0  0
    3.3855   -0.8748   -1.8636 N   0  0  0  0  0  0  0  0  0  0  0  0
    4.6262   -0.9989   -1.1173 C   0  0  0  0  0  0  0  0  0  0  0  0
    5.4755   -1.9759   -1.1229 C   0  0  0  0  0  0  0  0  0  0  0  0
    5.6062   -3.6962   -2.0332 Br  0  0  0  0  0  0  0  0  0  0  0  0
    6.3266   -1.3149   -0.1736 C   0  0  0  0  0  0  0  0  0  0  0  0
    7.4394   -1.6320    0.3866 O   0  0  0  0  0  0  0  0  0  0  0  0
    5.3854   -0.2263   -0.1749 C   0  0  0  0  0  0  0  0  0  0  0  0
    6.0103    1.0581   -0.6997 C   0  0  0  0  0  0  0  0  0  0  0  0
    6.6384    1.7664    0.4766 C   0  0  0  0  0  0  0  0  0  0  0  0
    5.5054    2.4582    1.2230 C   0  0  0  0  0  0  0  0  0  0  0  0
    4.3121    1.5425    1.1522 C   0  0  0  0  0  0  0  0  0  0  0  0
    4.7119    0.0838    1.1513 C   0  0  0  0  0  0  0  0  0  0  0  0
    1.8693   -1.8888   -0.2920 C   0  0  0  0  0  0  0  0  0  0  0  0
    0.8608   -1.9691    0.4330 O   0  0  0  0  0  0  0  0  0  0  0  0
    2.7861   -2.9504   -0.2015 O   0  0  0  0  0  0  0  0  0  0  0  0
   -1.1431   -1.6478   -1.3424 C   0  0  0  0  0  0  0  0  0  0  0  0
   -2.3830   -1.5003   -0.7616 C   0  0  0  0  0  0  0  0  0  0  0  0
   -5.2906    3.2899   -2.1226 H   0  0  0  0  0  0  0  0  0  0  0  0
   -5.0833    3.0613   -0.3501 H   0  0  0  0  0  0  0  0  0  0  0  0
   -6.7463    2.7834   -1.1110 H   0  0  0  0  0  0  0  0  0  0  0  0
   -4.4040    1.2156   -2.0973 H   0  0  0  0  0  0  0  0  0  0  0  0
   -6.8534   -0.2180   -1.8375 H   0  0  0  0  0  0  0  0  0  0  0  0
   -6.1513    0.4516   -3.3531 H   0  0  0  0  0  0  0  0  0  0  0  0
   -7.3360    1.4416   -2.3993 H   0  0  0  0  0  0  0  0  0  0  0  0
   -7.3953   -0.4601    3.1598 H   0  0  0  0  0  0  0  0  0  0  0  0
   -6.1052   -1.7726    4.7516 H   0  0  0  0  0  0  0  0  0  0  0  0
   -3.7920   -2.3477    4.2337 H   0  0  0  0  0  0  0  0  0  0  0  0
   -2.4360    1.8271   -0.2777 H   0  0  0  0  0  0  0  0  0  0  0  0
   -0.2180    1.6164   -1.3088 H   0  0  0  0  0  0  0  0  0  0  0  0
    0.9743   -1.6124   -2.7653 H   0  0  0  0  0  0  0  0  0  0  0  0
    1.1708    0.1436   -2.9507 H   0  0  0  0  0  0  0  0  0  0  0  0
    2.1205    0.2268   -0.6432 H   0  0  0  0  0  0  0  0  0  0  0  0
    3.4256   -0.8699   -2.8966 H   0  0  0  0  0  0  0  0  0  0  0  0
    6.8158    0.7993   -1.4227 H   0  0  0  0  0  0  0  0  0  0  0  0
    5.2797    1.7354   -1.1645 H   0  0  0  0  0  0  0  0  0  0  0  0
    7.2091    1.0831    1.1324 H   0  0  0  0  0  0  0  0  0  0  0  0
    7.3429    2.5749    0.1407 H   0  0  0  0  0  0  0  0  0  0  0  0
    5.3228    3.4207    0.7077 H   0  0  0  0  0  0  0  0  0  0  0  0
    5.8180    2.6788    2.2618 H   0  0  0  0  0  0  0  0  0  0  0  0
    3.5995    1.7755    1.9754 H   0  0  0  0  0  0  0  0  0  0  0  0
    3.7722    1.7449    0.2048 H   0  0  0  0  0  0  0  0  0  0  0  0
    3.8257   -0.5173    1.3491 H   0  0  0  0  0  0  0  0  0  0  0  0
    5.4331   -0.1336    1.9871 H   0  0  0  0  0  0  0  0  0  0  0  0
    2.5240   -3.8371    0.2030 H   0  0  0  0  0  0  0  0  0  0  0  0
   -0.7972   -2.6202   -1.6371 H   0  0  0  0  0  0  0  0  0  0  0  0
   -3.0176   -2.3833   -0.5969 H   0  0  0  0  0  0  0  0  0  0  0  0
  1  2  1  0
  2  3  1  0
  2  4  1  0
  4  5  2  0
  5  6  1  0
  6  7  2  0
  7  8  1  0
  8  9  2  0
  9 10  1  0
 10 11  2  0
 11 12  1  0
 12 13  1  0
 13 14  2  0
 14 15  1  0
 15 16  2  0
 16 17  1  0
 17 18  1  0
 18 19  1  0
 19 20  1  0
 20 21  2  0
 21 22  1  0
 21 23  1  0
 23 24  2  0
 23 25  1  0
 25 26  1  0
 26 27  1  0
 27 28  1  0
 28 29  1  0
 29 30  1  0
 18 31  1  0
 31 32  2  0
 31 33  1  0
 16 34  1  0
 34 35  2  0
 12  4  1  0
 35 13  1  0
 11  6  1  0
 25 20  1  0
 30 25  1  0
  1 36  1  0
  1 37  1  0
  1 38  1  0
  2 39  1  0
  3 40  1  0
  3 41  1  0
  3 42  1  0
  7 43  1  0
  8 44  1  0
  9 45  1  0
 14 46  1  0
 15 47  1  0
 17 48  1  0
 17 49  1  0
 18 50  1  1
 19 51  1  0
 26 52  1  0
 26 53  1  0
 27 54  1  0
 27 55  1  0
 28 56  1  0
 28 57  1  0
 29 58  1  0
 29 59  1  0
 30 60  1  0
 30 61  1  0
 33 62  1  0
 34 63  1  0
 35 64  1  0
M  END
$$$$
