@<TRIPOS>MOLECULE
*****
 51 53 0 0 0
SMALL
GASTEIGER

@<TRIPOS>ATOM
      1 C           7.8310    1.1798    0.0618 C.3     1  UNL1        0.0134
      2 C           7.2094   -0.1464    0.1855 C.2     1  UNL1        0.2234
      3 O           7.7966   -1.1338   -0.3260 O.2     1  UNL1       -0.2748
      4 N           5.9678   -0.3280    0.8670 N.am    1  UNL1       -0.2509
      5 N           5.4686   -1.6059    0.9285 N.3     1  UNL1       -0.2363
      6 C           4.2303   -1.7797    1.6071 C.3     1  UNL1        0.0387
      7 C           3.0916   -1.0172    1.0182 C.ar    1  UNL1       -0.0320
      8 C           2.7434    0.2520    1.4334 C.ar    1  UNL1       -0.0566
      9 C           1.6897    0.9413    0.8714 C.ar    1  UNL1       -0.0493
     10 C           0.9214    0.3783   -0.1532 C.ar    1  UNL1        0.0370
     11 C          -0.1914    1.1335   -0.7318 C.2     1  UNL1        0.2483
     12 O          -0.4642    2.3054   -0.3072 O.2     1  UNL1       -0.2699
     13 N          -1.0043    0.6371   -1.7559 N.am    1  UNL1       -0.2808
     14 C          -2.0870    1.3424   -2.3360 C.ar    1  UNL1        0.0459
     15 C          -1.8791    2.1701   -3.4472 C.ar    1  UNL1       -0.0384
     16 C          -2.9316    2.8563   -4.0111 C.ar    1  UNL1       -0.0416
     17 C          -4.1836    2.7109   -3.4616 C.ar    1  UNL1        0.0418
     18 CL         -5.5768    3.5504   -4.1209 Cl      1  UNL1       -0.0835
     19 C          -4.4025    1.8859   -2.3508 C.ar    1  UNL1       -0.0295
     20 C          -3.3382    1.1959   -1.7853 C.ar    1  UNL1        0.0596
     21 C          -3.4916    0.3242   -0.6370 C.2     1  UNL1        0.2511
     22 O          -2.4948   -0.2758   -0.1722 O.2     1  UNL1       -0.2697
     23 N          -4.7397    0.0917    0.0262 N.am    1  UNL1       -0.2663
     24 C          -4.8242   -0.7825    1.1577 C.ar    1  UNL1        0.1252
     25 C          -5.0769   -2.1317    1.0550 C.ar    1  UNL1       -0.0201
     26 C          -5.1555   -2.9625    2.1542 C.ar    1  UNL1       -0.0387
     27 C          -4.9701   -2.3985    3.4003 C.ar    1  UNL1        0.0592
     28 CL         -5.0568   -3.3996    4.8452 Cl      1  UNL1       -0.0820
     29 C          -4.7174   -1.0452    3.4926 C.ar    1  UNL1        0.0480
     30 N          -4.6486   -0.2637    2.3817 N.ar    1  UNL1       -0.2387
     31 C           1.2742   -0.8852   -0.5606 C.ar    1  UNL1       -0.0493
     32 C           2.3279   -1.5822   -0.0032 C.ar    1  UNL1       -0.0566
     33 H           7.0414    1.8906   -0.2971 H       1  UNL1        0.0323
     34 H           8.6127    1.1846   -0.7133 H       1  UNL1        0.0323
     35 H           8.2762    1.5443    1.0029 H       1  UNL1        0.0323
     36 H           5.5071    0.5031    1.2789 H       1  UNL1        0.1689
     37 H           5.5435   -2.0655    0.0159 H       1  UNL1        0.1446
     38 H           4.3494   -1.5447    2.6854 H       1  UNL1        0.0490
     39 H           3.9481   -2.8584    1.5050 H       1  UNL1        0.0490
     40 H           3.3373    0.6846    2.2300 H       1  UNL1        0.0621
     41 H           1.4402    1.9393    1.2199 H       1  UNL1        0.0625
     42 H          -0.8264   -0.3143   -2.1403 H       1  UNL1        0.1552
     43 H          -0.8849    2.2677   -3.8608 H       1  UNL1        0.0637
     44 H          -2.8162    3.5013   -4.8634 H       1  UNL1        0.0633
     45 H          -5.3950    1.7910   -1.9408 H       1  UNL1        0.0640
     46 H          -5.5725    0.5854   -0.3527 H       1  UNL1        0.1566
     47 H          -5.2168   -2.5387    0.0629 H       1  UNL1        0.0652
     48 H          -5.3564   -4.0315    2.0630 H       1  UNL1        0.0634
     49 H          -4.5732   -0.6186    4.4950 H       1  UNL1        0.0845
     50 H           0.6963   -1.3647   -1.3634 H       1  UNL1        0.0625
     51 H           2.5715   -2.5730   -0.3527 H       1  UNL1        0.0621
@<TRIPOS>BOND
     1     1     2    1
     2     2     3    2
     3     2     4   am
     4     4     5    1
     5     5     6    1
     6     6     7    1
     7     7     8   ar
     8     8     9   ar
     9     9    10   ar
    10    10    11    1
    11    11    12    2
    12    11    13   am
    13    13    14    1
    14    14    15   ar
    15    15    16   ar
    16    16    17   ar
    17    17    18    1
    18    17    19   ar
    19    19    20   ar
    20    20    21    1
    21    21    22    2
    22    21    23   am
    23    23    24    1
    24    24    25   ar
    25    25    26   ar
    26    26    27   ar
    27    27    28    1
    28    27    29   ar
    29    29    30   ar
    30    10    31   ar
    31    31    32   ar
    32    32     7   ar
    33    20    14   ar
    34    30    24   ar
    35     1    33    1
    36     1    34    1
    37     1    35    1
    38     4    36    1
    39     5    37    1
    40     6    38    1
    41     6    39    1
    42     8    40    1
    43     9    41    1
    44    13    42    1
    45    15    43    1
    46    16    44    1
    47    19    45    1
    48    23    46    1
    49    25    47    1
    50    26    48    1
    51    29    49    1
    52    31    50    1
    53    32    51    1
