@<TRIPOS>MOLECULE
*****
 37 39 0 0 0
SMALL
GASTEIGER

@<TRIPOS>ATOM
      1 C          -4.9871   -0.1201   -0.6830 C.3     1  UNL1        0.0120
      2 N          -4.0372    0.9170   -0.2513 N.ar    1  UNL1       -0.3461
      3 C          -4.2173    2.2412   -0.3068 C.ar    1  UNL1        0.0050
      4 C          -3.1132    2.9006    0.1871 C.ar    1  UNL1       -0.0435
      5 C          -2.2130    1.9288    0.5633 C.ar    1  UNL1       -0.0317
      6 C          -2.8123    0.7182    0.2802 C.ar    1  UNL1        0.1043
      7 C          -2.2192   -0.5837    0.5196 C.2     1  UNL1        0.2634
      8 O          -2.7890   -1.3667    1.3258 O.2     1  UNL1       -0.2684
      9 N          -1.0256   -1.0025   -0.1199 N.am    1  UNL1       -0.2889
     10 C          -0.4520   -2.3274    0.1479 C.3     1  UNL1        0.0334
     11 C           0.9185   -2.2033    0.7534 C.3     1  UNL1        0.0389
     12 N           1.6733   -1.1052    0.1233 N.ar    1  UNL1       -0.3469
     13 C           3.0114   -0.8676    0.2723 C.ar    1  UNL1        0.0171
     14 C           3.3490    0.2418   -0.4684 C.ar    1  UNL1        0.0564
     15 C           4.6678    0.8482   -0.5945 C.2     1  UNL1        0.2680
     16 O           4.8360    1.8491   -1.3170 O.2     1  UNL1       -0.2681
     17 N           5.7496    0.2820    0.1161 N.am    1  UNL1       -0.1934
     18 O           7.0077    0.7944    0.0461 O.3     1  UNL1       -0.2949
     19 C           2.1683    0.6506   -1.0584 C.ar    1  UNL1       -0.0272
     20 C           1.1203   -0.1990   -0.6828 C.ar    1  UNL1        0.0369
     21 C          -0.3127   -0.1677   -1.0538 C.3     1  UNL1        0.0553
     22 H          -5.5256   -0.5573    0.1598 H       1  UNL1        0.0456
     23 H          -5.6938    0.3738   -1.3935 H       1  UNL1        0.0456
     24 H          -4.4582   -0.9048   -1.2797 H       1  UNL1        0.0456
     25 H          -5.1187    2.7331   -0.6921 H       1  UNL1        0.0809
     26 H          -2.9650    3.9883    0.2709 H       1  UNL1        0.0633
     27 H          -1.2185    2.1080    1.0009 H       1  UNL1        0.0640
     28 H          -0.3136   -2.8126   -0.8463 H       1  UNL1        0.0482
     29 H          -1.1003   -2.9151    0.8068 H       1  UNL1        0.0482
     30 H           1.4684   -3.1644    0.6339 H       1  UNL1        0.0507
     31 H           0.8725   -2.0317    1.8647 H       1  UNL1        0.0507
     32 H           3.7149   -1.4577    0.8809 H       1  UNL1        0.0817
     33 H           5.5889   -0.5708    0.7283 H       1  UNL1        0.1825
     34 H           7.6097    0.0108   -0.0071 H       1  UNL1        0.2414
     35 H           2.0491    1.5093   -1.7246 H       1  UNL1        0.0643
     36 H          -0.4977   -0.5824   -2.0653 H       1  UNL1        0.0529
     37 H          -0.7352    0.8448   -1.0618 H       1  UNL1        0.0529
@<TRIPOS>BOND
     1     1     2    1
     2     2     3   ar
     3     3     4   ar
     4     4     5   ar
     5     5     6   ar
     6     6     7    1
     7     7     8    2
     8     7     9   am
     9     9    10    1
    10    10    11    1
    11    11    12    1
    12    12    13   ar
    13    13    14   ar
    14    14    15    1
    15    15    16    2
    16    15    17   am
    17    17    18    1
    18    14    19   ar
    19    19    20   ar
    20    20    21    1
    21     6     2   ar
    22    21     9    1
    23    20    12   ar
    24     1    22    1
    25     1    23    1
    26     1    24    1
    27     3    25    1
    28     4    26    1
    29     5    27    1
    30    10    28    1
    31    10    29    1
    32    11    30    1
    33    11    31    1
    34    13    32    1
    35    17    33    1
    36    18    34    1
    37    19    35    1
    38    21    36    1
    39    21    37    1
