
     RDKit          3D

 37 39  0  0  0  0  0  0  0  0999 V2000
   -4.9871   -0.1201   -0.6830 C   0  0  0  0  0  0  0  0  0  0  0  0
   -4.0372    0.9170   -0.2513 N   0  0  0  0  0  0  0  0  0  0  0  0
   -4.2173    2.2412   -0.3068 C   0  0  0  0  0  0  0  0  0  0  0  0
   -3.1132    2.9006    0.1871 C   0  0  0  0  0  0  0  0  0  0  0  0
   -2.2130    1.9288    0.5633 C   0  0  0  0  0  0  0  0  0  0  0  0
   -2.8123    0.7182    0.2802 C   0  0  0  0  0  0  0  0  0  0  0  0
   -2.2192   -0.5837    0.5196 C   0  0  0  0  0  0  0  0  0  0  0  0
   -2.7890   -1.3667    1.3258 O   0  0  0  0  0  0  0  0  0  0  0  0
   -1.0256   -1.0025   -0.1199 N   0  0  0  0  0  0  0  0  0  0  0  0
   -0.4520   -2.3274    0.1479 C   0  0  0  0  0  0  0  0  0  0  0  0
    0.9185   -2.2033    0.7534 C   0  0  0  0  0  0  0  0  0  0  0  0
    1.6733   -1.1052    0.1233 N   0  0  0  0  0  0  0  0  0  0  0  0
    3.0114   -0.8676    0.2723 C   0  0  0  0  0  0  0  0  0  0  0  0
    3.3490    0.2418   -0.4684 C   0  0  0  0  0  0  0  0  0  0  0  0
    4.6678    0.8482   -0.5945 C   0  0  0  0  0  0  0  0  0  0  0  0
    4.8360    1.8491   -1.3170 O   0  0  0  0  0  0  0  0  0  0  0  0
    5.7496    0.2820    0.1161 N   0  0  0  0  0  0  0  0  0  0  0  0
    7.0077    0.7944    0.0461 O   0  0  0  0  0  0  0  0  0  0  0  0
    2.1683    0.6506   -1.0584 C   0  0  0  0  0  0  0  0  0  0  0  0
    1.1203   -0.1990   -0.6828 C   0  0  0  0  0  0  0  0  0  0  0  0
   -0.3127   -0.1677   -1.0538 C   0  0  0  0  0  0  0  0  0  0  0  0
   -5.5256   -0.5573    0.1598 H   0  0  0  0  0  0  0  0  0  0  0  0
   -5.6938    0.3738   -1.3935 H   0  0  0  0  0  0  0  0  0  0  0  0
   -4.4582   -0.9048   -1.2797 H   0  0  0  0  0  0  0  0  0  0  0  0
   -5.1187    2.7331   -0.6921 H   0  0  0  0  0  0  0  0  0  0  0  0
   -2.9650    3.9883    0.2709 H   0  0  0  0  0  0  0  0  0  0  0  0
   -1.2185    2.1080    1.0009 H   0  0  0  0  0  0  0  0  0  0  0  0
   -0.3136   -2.8126   -0.8463 H   0  0  0  0  0  0  0  0  0  0  0  0
   -1.1003   -2.9151    0.8068 H   0  0  0  0  0  0  0  0  0  0  0  0
    1.4684   -3.1644    0.6339 H   0  0  0  0  0  0  0  0  0  0  0  0
    0.8725   -2.0317    1.8647 H   0  0  0  0  0  0  0  0  0  0  0  0
    3.7149   -1.4577    0.8809 H   0  0  0  0  0  0  0  0  0  0  0  0
    5.5889   -0.5708    0.7283 H   0  0  0  0  0  0  0  0  0  0  0  0
    7.6097    0.0108   -0.0071 H   0  0  0  0  0  0  0  0  0  0  0  0
    2.0491    1.5093   -1.7246 H   0  0  0  0  0  0  0  0  0  0  0  0
   -0.4977   -0.5824   -2.0653 H   0  0  0  0  0  0  0  0  0  0  0  0
   -0.7352    0.8448   -1.0618 H   0  0  0  0  0  0  0  0  0  0  0  0
  1  2  1  0
  2  3  1  0
  3  4  2  0
  4  5  1  0
  5  6  2  0
  6  7  1  0
  7  8  2  0
  7  9  1  0
  9 10  1  0
 10 11  1  0
 11 12  1  0
 12 13  1  0
 13 14  2  0
 14 15  1  0
 15 16  2  0
 15 17  1  0
 17 18  1  0
 14 19  1  0
 19 20  2  0
 20 21  1  0
  6  2  1  0
 21  9  1  0
 20 12  1  0
  1 22  1  0
  1 23  1  0
  1 24  1  0
  3 25  1  0
  4 26  1  0
  5 27  1  0
 10 28  1  0
 10 29  1  0
 11 30  1  0
 11 31  1  0
 13 32  1  0
 17 33  1  0
 18 34  1  0
 19 35  1  0
 21 36  1  0
 21 37  1  0
M  END
$$$$
