@<TRIPOS>MOLECULE
*****
 42 45 0 0 0
SMALL
GASTEIGER

@<TRIPOS>ATOM
      1 N           4.8880    2.0000    1.3637 N.am    1  UNL1       -0.3241
      2 C           3.6249    1.4259    1.1236 C.2     1  UNL1        0.2599
      3 O           2.7720    1.4173    2.0292 O.2     1  UNL1       -0.2687
      4 C           3.3249    0.8489   -0.1703 C.ar    1  UNL1        0.1280
      5 C           4.1882    0.8688   -1.2648 C.ar    1  UNL1        0.0588
      6 N           3.5403    0.2332   -2.2475 N.ar    1  UNL1       -0.2353
      7 C           2.3224   -0.1777   -1.8165 C.ar    1  UNL1        0.1381
      8 C           1.3005   -0.8681   -2.4417 C.ar    1  UNL1       -0.0182
      9 C           0.1328   -1.1642   -1.7238 C.ar    1  UNL1       -0.0477
     10 C           0.0085   -0.7725   -0.4157 C.ar    1  UNL1        0.0173
     11 C          -1.1981   -1.0986    0.3162 C.ar    1  UNL1        0.0781
     12 C          -2.1522   -0.1749    0.7206 C.ar    1  UNL1        0.0995
     13 C          -2.1860    1.2758    0.4986 C.ar    1  UNL1        0.0378
     14 C          -2.8336    1.8229   -0.5925 C.ar    1  UNL1       -0.0470
     15 C          -2.8827    3.1888   -0.8108 C.ar    1  UNL1       -0.0257
     16 C          -2.2732    4.0511    0.0750 C.ar    1  UNL1        0.1262
     17 F          -2.2953    5.4024   -0.0975 F       1  UNL1       -0.2054
     18 C          -1.6146    3.5056    1.1827 C.ar    1  UNL1        0.0095
     19 C          -1.5756    2.1315    1.3859 C.ar    1  UNL1        0.1353
     20 F          -0.9263    1.6544    2.4703 F       1  UNL1       -0.2047
     21 N          -3.1155   -0.8313    1.3922 N.ar    1  UNL1       -0.2350
     22 C          -2.8205   -2.1334    1.4354 C.ar    1  UNL1        0.0972
     23 N          -1.6379   -2.2888    0.7696 N.ar    1  UNL1       -0.3241
     24 C          -0.9990   -3.5556    0.5936 C.3     1  UNL1        0.0852
     25 C          -1.4557   -4.3300   -0.6213 C.3     1  UNL1        0.2569
     26 F          -0.7163   -5.5231   -0.6073 F       1  UNL1       -0.2073
     27 F          -2.7976   -4.7056   -0.4457 F       1  UNL1       -0.2073
     28 C           1.0597   -0.0868    0.1540 C.ar    1  UNL1        0.0211
     29 N           2.1894    0.2006   -0.5394 N.ar    1  UNL1       -0.2949
     30 H           5.7544    1.6781    0.8859 H       1  UNL1        0.1453
     31 H           4.9792    2.7731    2.0404 H       1  UNL1        0.1453
     32 H           5.1907    1.3203   -1.2861 H       1  UNL1        0.0853
     33 H           1.4399   -1.1583   -3.4702 H       1  UNL1        0.0654
     34 H          -0.6032   -1.6899   -2.2814 H       1  UNL1        0.0626
     35 H          -3.3221    1.1771   -1.3073 H       1  UNL1        0.0626
     36 H          -3.3856    3.6293   -1.6592 H       1  UNL1        0.0646
     37 H          -1.1322    4.1620    1.8865 H       1  UNL1        0.0675
     38 H          -3.3707   -2.9541    1.8925 H       1  UNL1        0.1029
     39 H           0.1048   -3.4461    0.5034 H       1  UNL1        0.0548
     40 H          -1.1525   -4.2404    1.4694 H       1  UNL1        0.0548
     41 H          -1.3590   -3.7992   -1.5669 H       1  UNL1        0.1037
     42 H           0.9850    0.2315    1.1771 H       1  UNL1        0.0820
@<TRIPOS>BOND
     1     1     2   am
     2     2     3    2
     3     2     4    1
     4     4     5   ar
     5     5     6   ar
     6     6     7   ar
     7     7     8   ar
     8     8     9   ar
     9     9    10   ar
    10    10    11    1
    11    11    12   ar
    12    12    13    1
    13    13    14   ar
    14    14    15   ar
    15    15    16   ar
    16    16    17    1
    17    16    18   ar
    18    18    19   ar
    19    19    20    1
    20    12    21   ar
    21    21    22   ar
    22    22    23   ar
    23    23    24    1
    24    24    25    1
    25    25    26    1
    26    25    27    1
    27    10    28   ar
    28    28    29   ar
    29    29     4   ar
    30    29     7   ar
    31    23    11   ar
    32    19    13   ar
    33     1    30    1
    34     1    31    1
    35     5    32    1
    36     8    33    1
    37     9    34    1
    38    14    35    1
    39    15    36    1
    40    18    37    1
    41    22    38    1
    42    24    39    1
    43    24    40    1
    44    25    41    1
    45    28    42    1
