
     RDKit          3D

 76 80  0  0  0  0  0  0  0  0999 V2000
   -6.0340   -5.9708   -0.0516 C   0  0  0  0  0  0  0  0  0  0  0  0
   -5.7900   -4.5055   -0.0643 C   0  0  0  0  0  0  0  0  0  0  0  0
   -5.9530   -3.7773   -1.2282 C   0  0  0  0  0  0  0  0  0  0  0  0
   -5.7418   -2.4240   -1.2974 C   0  0  0  0  0  0  0  0  0  0  0  0
   -5.3539   -1.7509   -0.1799 C   0  0  0  0  0  0  0  0  0  0  0  0
   -5.1168   -0.3320   -0.1901 N   0  0  0  0  0  0  0  0  0  0  0  0
   -6.0179    0.6292   -0.1957 N   0  0  0  0  0  0  0  0  0  0  0  0
   -5.3991    1.8179   -0.2046 C   0  0  0  0  0  0  0  0  0  0  0  0
   -6.0305    3.1856   -0.2134 C   0  0  0  0  0  0  0  0  0  0  0  0
   -7.5315    2.9864   -0.2105 C   0  0  0  0  0  0  0  0  0  0  0  0
   -5.6857    3.9204    1.0735 C   0  0  0  0  0  0  0  0  0  0  0  0
   -5.6612    3.9674   -1.4337 C   0  0  0  0  0  0  0  0  0  0  0  0
   -4.0388    1.5374   -0.2042 C   0  0  0  0  0  0  0  0  0  0  0  0
   -3.8591    0.1832   -0.1950 C   0  0  0  0  0  0  0  0  0  0  0  0
   -2.6644   -0.5834   -0.1910 N   0  0  0  0  0  0  0  0  0  0  0  0
   -1.3853   -0.0128   -0.1952 C   0  0  0  0  0  0  0  0  0  0  0  0
   -1.2395    1.2136   -0.2023 O   0  0  0  0  0  0  0  0  0  0  0  0
   -0.1813   -0.8135   -0.1916 N   0  0  0  0  0  0  0  0  0  0  0  0
    1.1119   -0.2197   -0.1958 C   0  0  0  0  0  0  0  0  0  0  0  0
    1.7977    0.0989    0.9411 C   0  0  0  0  0  0  0  0  0  0  0  0
    3.0725    0.6842    0.8721 C   0  0  0  0  0  0  0  0  0  0  0  0
    3.6910    0.9638   -0.3211 C   0  0  0  0  0  0  0  0  0  0  0  0
    4.9240    1.5312   -0.4387 O   0  0  0  0  0  0  0  0  0  0  0  0
    5.8747    1.9577    0.4324 C   0  0  0  0  0  0  0  0  0  0  0  0
    6.4957    0.9535    1.3313 C   0  0  0  0  0  0  0  0  0  0  0  0
    7.1654   -0.1229    0.6415 N   0  0  0  0  0  0  0  0  0  0  0  0
    7.7244   -1.0392    1.5862 C   0  0  0  0  0  0  0  0  0  0  0  0
    8.5071   -2.1552    0.9176 C   0  0  0  0  0  0  0  0  0  0  0  0
    9.4902   -1.6417    0.0722 O   0  0  0  0  0  0  0  0  0  0  0  0
    9.4938   -0.2455    0.0945 C   0  0  0  0  0  0  0  0  0  0  0  0
    8.1378    0.2916   -0.3052 C   0  0  0  0  0  0  0  0  0  0  0  0
    2.9736    0.6310   -1.4883 C   0  0  0  0  0  0  0  0  0  0  0  0
    3.5769    0.9044   -2.6932 C   0  0  0  0  0  0  0  0  0  0  0  0
    2.8949    0.5880   -3.8416 C   0  0  0  0  0  0  0  0  0  0  0  0
    1.6283    0.0067   -3.7698 C   0  0  0  0  0  0  0  0  0  0  0  0
    1.0561   -0.2524   -2.5667 C   0  0  0  0  0  0  0  0  0  0  0  0
    1.7240    0.0577   -1.3980 C   0  0  0  0  0  0  0  0  0  0  0  0
   -5.1847   -2.4626    0.9976 C   0  0  0  0  0  0  0  0  0  0  0  0
   -5.3970   -3.8237    1.0680 C   0  0  0  0  0  0  0  0  0  0  0  0
   -6.9234   -6.2260   -0.6660 H   0  0  0  0  0  0  0  0  0  0  0  0
   -5.1198   -6.4755   -0.4241 H   0  0  0  0  0  0  0  0  0  0  0  0
   -6.2179   -6.3315    0.9678 H   0  0  0  0  0  0  0  0  0  0  0  0
   -6.2591   -4.3012   -2.1145 H   0  0  0  0  0  0  0  0  0  0  0  0
   -5.8690   -1.8480   -2.2110 H   0  0  0  0  0  0  0  0  0  0  0  0
   -8.0541    3.8380    0.2643 H   0  0  0  0  0  0  0  0  0  0  0  0
   -7.7378    2.0473    0.3783 H   0  0  0  0  0  0  0  0  0  0  0  0
   -7.8728    2.7719   -1.2351 H   0  0  0  0  0  0  0  0  0  0  0  0
   -4.6260    4.1970    1.1272 H   0  0  0  0  0  0  0  0  0  0  0  0
   -5.9559    3.2186    1.9002 H   0  0  0  0  0  0  0  0  0  0  0  0
   -6.3730    4.7918    1.1555 H   0  0  0  0  0  0  0  0  0  0  0  0
   -5.6478    5.0539   -1.1675 H   0  0  0  0  0  0  0  0  0  0  0  0
   -6.4624    3.8726   -2.2133 H   0  0  0  0  0  0  0  0  0  0  0  0
   -4.6683    3.6916   -1.8265 H   0  0  0  0  0  0  0  0  0  0  0  0
   -3.2554    2.2873   -0.2102 H   0  0  0  0  0  0  0  0  0  0  0  0
   -2.7151   -1.6309   -0.1849 H   0  0  0  0  0  0  0  0  0  0  0  0
   -0.3382   -1.8499   -0.1856 H   0  0  0  0  0  0  0  0  0  0  0  0
    1.3377   -0.1092    1.9087 H   0  0  0  0  0  0  0  0  0  0  0  0
    3.5587    0.9239    1.7948 H   0  0  0  0  0  0  0  0  0  0  0  0
    5.3822    2.7284    1.1135 H   0  0  0  0  0  0  0  0  0  0  0  0
    6.6197    2.5767   -0.1229 H   0  0  0  0  0  0  0  0  0  0  0  0
    7.3210    1.4543    1.9336 H   0  0  0  0  0  0  0  0  0  0  0  0
    5.8060    0.5727    2.0886 H   0  0  0  0  0  0  0  0  0  0  0  0
    8.2796   -0.5398    2.3881 H   0  0  0  0  0  0  0  0  0  0  0  0
    6.8613   -1.5574    2.0996 H   0  0  0  0  0  0  0  0  0  0  0  0
    9.0311   -2.7061    1.7255 H   0  0  0  0  0  0  0  0  0  0  0  0
    7.8227   -2.8575    0.4163 H   0  0  0  0  0  0  0  0  0  0  0  0
   10.2129    0.1427   -0.6623 H   0  0  0  0  0  0  0  0  0  0  0  0
    9.7241    0.1213    1.1126 H   0  0  0  0  0  0  0  0  0  0  0  0
    7.9381   -0.1188   -1.3291 H   0  0  0  0  0  0  0  0  0  0  0  0
    8.2694    1.4093   -0.3544 H   0  0  0  0  0  0  0  0  0  0  0  0
    4.5435    1.3479   -2.7667 H   0  0  0  0  0  0  0  0  0  0  0  0
    3.2887    0.7657   -4.8286 H   0  0  0  0  0  0  0  0  0  0  0  0
    1.0749   -0.2499   -4.6660 H   0  0  0  0  0  0  0  0  0  0  0  0
    0.0889   -0.6962   -2.5014 H   0  0  0  0  0  0  0  0  0  0  0  0
   -4.8756   -1.9025    1.8716 H   0  0  0  0  0  0  0  0  0  0  0  0
   -5.2633   -4.3895    2.0007 H   0  0  0  0  0  0  0  0  0  0  0  0
  1  2  1  0
  2  3  2  0
  3  4  1  0
  4  5  2  0
  5  6  1  0
  6  7  1  0
  7  8  2  0
  8  9  1  0
  9 10  1  0
  9 11  1  0
  9 12  1  0
  8 13  1  0
 13 14  2  0
 14 15  1  0
 15 16  1  0
 16 17  2  0
 16 18  1  0
 18 19  1  0
 19 20  2  0
 20 21  1  0
 21 22  2  0
 22 23  1  0
 23 24  1  0
 24 25  1  0
 25 26  1  0
 26 27  1  0
 27 28  1  0
 28 29  1  0
 29 30  1  0
 30 31  1  0
 22 32  1  0
 32 33  2  0
 33 34  1  0
 34 35  2  0
 35 36  1  0
 36 37  2  0
  5 38  1  0
 38 39  2  0
 39  2  1  0
 14  6  1  0
 37 19  1  0
 31 26  1  0
 37 32  1  0
  1 40  1  0
  1 41  1  0
  1 42  1  0
  3 43  1  0
  4 44  1  0
 10 45  1  0
 10 46  1  0
 10 47  1  0
 11 48  1  0
 11 49  1  0
 11 50  1  0
 12 51  1  0
 12 52  1  0
 12 53  1  0
 13 54  1  0
 15 55  1  0
 18 56  1  0
 20 57  1  0
 21 58  1  0
 24 59  1  0
 24 60  1  0
 25 61  1  0
 25 62  1  0
 27 63  1  0
 27 64  1  0
 28 65  1  0
 28 66  1  0
 30 67  1  0
 30 68  1  0
 31 69  1  0
 31 70  1  0
 33 71  1  0
 34 72  1  0
 35 73  1  0
 36 74  1  0
 38 75  1  0
 39 76  1  0
M  END
$$$$
