@<TRIPOS>MOLECULE
*****
 76 80 0 0 0
SMALL
GASTEIGER

@<TRIPOS>ATOM
      1 C          -6.0340   -5.9708   -0.0516 C.3     1  UNL1       -0.0397
      2 C          -5.7900   -4.5055   -0.0643 C.ar    1  UNL1       -0.0503
      3 C          -5.9530   -3.7773   -1.2282 C.ar    1  UNL1       -0.0568
      4 C          -5.7418   -2.4240   -1.2974 C.ar    1  UNL1       -0.0359
      5 C          -5.3539   -1.7509   -0.1799 C.ar    1  UNL1        0.0674
      6 N          -5.1168   -0.3320   -0.1901 N.ar    1  UNL1       -0.2181
      7 N          -6.0179    0.6292   -0.1957 N.ar    1  UNL1       -0.1691
      8 C          -5.3991    1.8179   -0.2046 C.ar    1  UNL1        0.0706
      9 C          -6.0305    3.1856   -0.2134 C.3     1  UNL1        0.0063
     10 C          -7.5315    2.9864   -0.2105 C.3     1  UNL1       -0.0546
     11 C          -5.6857    3.9204    1.0735 C.3     1  UNL1       -0.0546
     12 C          -5.6612    3.9674   -1.4337 C.3     1  UNL1       -0.0546
     13 C          -4.0388    1.5374   -0.2042 C.ar    1  UNL1        0.0021
     14 C          -3.8591    0.1832   -0.1950 C.ar    1  UNL1        0.1299
     15 N          -2.6644   -0.5834   -0.1910 N.am    1  UNL1       -0.2538
     16 C          -1.3853   -0.0128   -0.1952 C.2     1  UNL1        0.3092
     17 O          -1.2395    1.2136   -0.2023 O.2     1  UNL1       -0.2521
     18 N          -0.1813   -0.8135   -0.1916 N.am    1  UNL1       -0.2686
     19 C           1.1119   -0.2197   -0.1958 C.ar    1  UNL1        0.0427
     20 C           1.7977    0.0989    0.9411 C.ar    1  UNL1       -0.0364
     21 C           3.0725    0.6842    0.8721 C.ar    1  UNL1       -0.0176
     22 C           3.6910    0.9638   -0.3211 C.ar    1  UNL1        0.1283
     23 O           4.9240    1.5312   -0.4387 O.3     1  UNL1       -0.4901
     24 C           5.8747    1.9577    0.4324 C.3     1  UNL1        0.1023
     25 C           6.4957    0.9535    1.3313 C.3     1  UNL1        0.0333
     26 N           7.1654   -0.1229    0.6415 N.3     1  UNL1       -0.2948
     27 C           7.7244   -1.0392    1.5862 C.3     1  UNL1        0.0225
     28 C           8.5071   -2.1552    0.9176 C.3     1  UNL1        0.0604
     29 O           9.4902   -1.6417    0.0722 O.3     1  UNL1       -0.3772
     30 C           9.4938   -0.2455    0.0945 C.3     1  UNL1        0.0604
     31 C           8.1378    0.2916   -0.3052 C.3     1  UNL1        0.0225
     32 C           2.9736    0.6310   -1.4883 C.ar    1  UNL1        0.0256
     33 C           3.5769    0.9044   -2.6932 C.ar    1  UNL1       -0.0505
     34 C           2.8949    0.5880   -3.8416 C.ar    1  UNL1       -0.0611
     35 C           1.6283    0.0067   -3.7698 C.ar    1  UNL1       -0.0611
     36 C           1.0561   -0.2524   -2.5667 C.ar    1  UNL1       -0.0521
     37 C           1.7240    0.0577   -1.3980 C.ar    1  UNL1        0.0069
     38 C          -5.1847   -2.4626    0.9976 C.ar    1  UNL1       -0.0359
     39 C          -5.3970   -3.8237    1.0680 C.ar    1  UNL1       -0.0568
     40 H          -6.9234   -6.2260   -0.6660 H       1  UNL1        0.0278
     41 H          -5.1198   -6.4755   -0.4241 H       1  UNL1        0.0278
     42 H          -6.2179   -6.3315    0.9678 H       1  UNL1        0.0278
     43 H          -6.2591   -4.3012   -2.1145 H       1  UNL1        0.0621
     44 H          -5.8690   -1.8480   -2.2110 H       1  UNL1        0.0639
     45 H          -8.0541    3.8380    0.2643 H       1  UNL1        0.0239
     46 H          -7.7378    2.0473    0.3783 H       1  UNL1        0.0239
     47 H          -7.8728    2.7719   -1.2351 H       1  UNL1        0.0239
     48 H          -4.6260    4.1970    1.1272 H       1  UNL1        0.0239
     49 H          -5.9559    3.2186    1.9002 H       1  UNL1        0.0239
     50 H          -6.3730    4.7918    1.1555 H       1  UNL1        0.0239
     51 H          -5.6478    5.0539   -1.1675 H       1  UNL1        0.0239
     52 H          -6.4624    3.8726   -2.2133 H       1  UNL1        0.0239
     53 H          -4.6683    3.6916   -1.8265 H       1  UNL1        0.0239
     54 H          -3.2554    2.2873   -0.2102 H       1  UNL1        0.0671
     55 H          -2.7151   -1.6309   -0.1849 H       1  UNL1        0.1578
     56 H          -0.3382   -1.8499   -0.1856 H       1  UNL1        0.1564
     57 H           1.3377   -0.1092    1.9087 H       1  UNL1        0.0637
     58 H           3.5587    0.9239    1.7948 H       1  UNL1        0.0655
     59 H           5.3822    2.7284    1.1135 H       1  UNL1        0.0709
     60 H           6.6197    2.5767   -0.1229 H       1  UNL1        0.0709
     61 H           7.3210    1.4543    1.9336 H       1  UNL1        0.0460
     62 H           5.8060    0.5727    2.0886 H       1  UNL1        0.0460
     63 H           8.2796   -0.5398    2.3881 H       1  UNL1        0.0449
     64 H           6.8613   -1.5574    2.0996 H       1  UNL1        0.0449
     65 H           9.0311   -2.7061    1.7255 H       1  UNL1        0.0572
     66 H           7.8227   -2.8575    0.4163 H       1  UNL1        0.0572
     67 H          10.2129    0.1427   -0.6623 H       1  UNL1        0.0572
     68 H           9.7241    0.1213    1.1126 H       1  UNL1        0.0572
     69 H           7.9381   -0.1188   -1.3291 H       1  UNL1        0.0449
     70 H           8.2694    1.4093   -0.3544 H       1  UNL1        0.0449
     71 H           4.5435    1.3479   -2.7667 H       1  UNL1        0.0625
     72 H           3.2887    0.7657   -4.8286 H       1  UNL1        0.0618
     73 H           1.0749   -0.2499   -4.6660 H       1  UNL1        0.0618
     74 H           0.0889   -0.6962   -2.5014 H       1  UNL1        0.0624
     75 H          -4.8756   -1.9025    1.8716 H       1  UNL1        0.0639
     76 H          -5.2633   -4.3895    2.0007 H       1  UNL1        0.0621
@<TRIPOS>BOND
     1     1     2    1
     2     2     3   ar
     3     3     4   ar
     4     4     5   ar
     5     5     6    1
     6     6     7   ar
     7     7     8   ar
     8     8     9    1
     9     9    10    1
    10     9    11    1
    11     9    12    1
    12     8    13   ar
    13    13    14   ar
    14    14    15    1
    15    15    16   am
    16    16    17    2
    17    16    18   am
    18    18    19    1
    19    19    20   ar
    20    20    21   ar
    21    21    22   ar
    22    22    23    1
    23    23    24    1
    24    24    25    1
    25    25    26    1
    26    26    27    1
    27    27    28    1
    28    28    29    1
    29    29    30    1
    30    30    31    1
    31    22    32   ar
    32    32    33   ar
    33    33    34   ar
    34    34    35   ar
    35    35    36   ar
    36    36    37   ar
    37     5    38   ar
    38    38    39   ar
    39    39     2   ar
    40    14     6   ar
    41    37    19   ar
    42    31    26    1
    43    37    32   ar
    44     1    40    1
    45     1    41    1
    46     1    42    1
    47     3    43    1
    48     4    44    1
    49    10    45    1
    50    10    46    1
    51    10    47    1
    52    11    48    1
    53    11    49    1
    54    11    50    1
    55    12    51    1
    56    12    52    1
    57    12    53    1
    58    13    54    1
    59    15    55    1
    60    18    56    1
    61    20    57    1
    62    21    58    1
    63    24    59    1
    64    24    60    1
    65    25    61    1
    66    25    62    1
    67    27    63    1
    68    27    64    1
    69    28    65    1
    70    28    66    1
    71    30    67    1
    72    30    68    1
    73    31    69    1
    74    31    70    1
    75    33    71    1
    76    34    72    1
    77    35    73    1
    78    36    74    1
    79    38    75    1
    80    39    76    1
