@<TRIPOS>MOLECULE
*****
 42 44 0 0 0
SMALL
GASTEIGER

@<TRIPOS>ATOM
      1 C          -2.8356    0.4771    0.6570 C.3     1  UNL1        0.0360
      2 C          -3.4337    1.4379   -0.3444 C.3     1  UNL1       -0.0322
      3 C          -4.7395    1.9458    0.2286 C.3     1  UNL1       -0.0387
      4 C          -5.7116    0.7850    0.2568 C.3     1  UNL1       -0.0040
      5 N          -5.1446   -0.3901    0.8422 N.3     1  UNL1       -0.3142
      6 C          -3.8984   -0.1599    1.5195 C.3     1  UNL1        0.0144
      7 N          -2.0189   -0.5240   -0.0213 N.am    1  UNL1       -0.3059
      8 C          -0.6172   -0.7511    0.0768 C.2     1  UNL1        0.2663
      9 O           0.1485   -0.0688    0.8130 O.2     1  UNL1       -0.2684
     10 C          -0.0223   -1.8246   -0.7087 C.ar    1  UNL1        0.1679
     11 N          -0.6583   -2.6674   -1.5539 N.ar    1  UNL1       -0.1673
     12 N           0.2325   -3.5075   -2.0805 N.ar    1  UNL1       -0.2822
     13 C           1.4561   -3.2038   -1.5700 C.ar    1  UNL1        0.0443
     14 C           1.3250   -2.1263   -0.6850 C.ar    1  UNL1        0.0838
     15 N           2.3736   -1.5082    0.0554 N.am    1  UNL1       -0.2782
     16 C           3.0671   -0.4234   -0.5244 C.2     1  UNL1        0.2539
     17 O           2.5710   -0.2050   -1.6832 O.2     1  UNL1       -0.2697
     18 C           4.1601    0.3484    0.0456 C.ar    1  UNL1        0.1072
     19 C           4.7997    0.2463    1.2555 C.ar    1  UNL1        0.1383
     20 F           4.3264   -0.7418    2.0433 F       1  UNL1       -0.2046
     21 C           5.8244    1.0582    1.6503 C.ar    1  UNL1       -0.0255
     22 C           6.2937    2.0614    0.8320 C.ar    1  UNL1       -0.0563
     23 C           5.6674    2.1834   -0.3876 C.ar    1  UNL1       -0.0255
     24 C           4.6339    1.3676   -0.7905 C.ar    1  UNL1        0.1383
     25 F           4.0968    1.5978   -2.0350 F       1  UNL1       -0.2046
     26 H          -2.1351    1.0562    1.2923 H       1  UNL1        0.0511
     27 H          -2.7719    2.3040   -0.5290 H       1  UNL1        0.0284
     28 H          -3.6109    0.8362   -1.2639 H       1  UNL1        0.0284
     29 H          -5.1629    2.7752   -0.3467 H       1  UNL1        0.0278
     30 H          -4.5336    2.2307    1.2808 H       1  UNL1        0.0278
     31 H          -6.6390    1.1339    0.7961 H       1  UNL1        0.0424
     32 H          -6.0554    0.5153   -0.7610 H       1  UNL1        0.0424
     33 H          -5.2127   -1.2538    0.2972 H       1  UNL1        0.1220
     34 H          -4.1022    0.5374    2.3728 H       1  UNL1        0.0442
     35 H          -3.5463   -1.1202    1.9201 H       1  UNL1        0.0442
     36 H          -2.6042   -1.1382   -0.6624 H       1  UNL1        0.1494
     37 H           0.0543   -4.2883   -2.7785 H       1  UNL1        0.1883
     38 H           2.4210   -3.6602   -1.7565 H       1  UNL1        0.0843
     39 H           2.6586   -1.8163    1.0102 H       1  UNL1        0.1552
     40 H           6.2357    0.8587    2.6402 H       1  UNL1        0.0646
     41 H           7.0974    2.6613    1.1999 H       1  UNL1        0.0619
     42 H           6.0110    2.9612   -1.0551 H       1  UNL1        0.0646
@<TRIPOS>BOND
     1     1     2    1
     2     2     3    1
     3     3     4    1
     4     4     5    1
     5     5     6    1
     6     1     7    1
     7     7     8   am
     8     8     9    2
     9     8    10    1
    10    10    11   ar
    11    11    12   ar
    12    12    13   ar
    13    13    14   ar
    14    14    15    1
    15    15    16   am
    16    16    17    2
    17    16    18    1
    18    18    19   ar
    19    19    20    1
    20    19    21   ar
    21    21    22   ar
    22    22    23   ar
    23    23    24   ar
    24    24    25    1
    25     6     1    1
    26    14    10   ar
    27    24    18   ar
    28     1    26    1
    29     2    27    1
    30     2    28    1
    31     3    29    1
    32     3    30    1
    33     4    31    1
    34     4    32    1
    35     5    33    1
    36     6    34    1
    37     6    35    1
    38     7    36    1
    39    12    37    1
    40    13    38    1
    41    15    39    1
    42    21    40    1
    43    22    41    1
    44    23    42    1
