@<TRIPOS>MOLECULE
*****
 97 100 0 0 0
SMALL
GASTEIGER

@<TRIPOS>ATOM
      1 C          -1.8553    0.6395    1.6719 C.3     1  UNL1        0.1285
      2 C          -2.6264   -0.5978    1.4256 C.3     1  UNL1       -0.0074
      3 C          -2.9731   -0.8109   -0.0345 C.3     1  UNL1       -0.0239
      4 C          -3.7383   -2.0587   -0.2308 C.ar    1  UNL1       -0.0435
      5 C          -5.1348   -2.0628   -0.1670 C.ar    1  UNL1       -0.0131
      6 C          -5.9327   -3.1697   -0.3371 C.ar    1  UNL1        0.1617
      7 O          -7.3055   -3.0971   -0.2603 O.3     1  UNL1       -0.4914
      8 C          -7.8819   -1.8202    0.0040 C.3     1  UNL1        0.0790
      9 C          -5.2748   -4.3517   -0.5884 C.ar    1  UNL1        0.1615
     10 O          -6.0170   -5.5111   -0.7705 O.3     1  UNL1       -0.4915
     11 C          -5.3434   -6.7296   -1.0293 C.3     1  UNL1        0.0790
     12 C          -3.8936   -4.4534   -0.6714 C.ar    1  UNL1       -0.0160
     13 C          -3.1679   -3.2905   -0.4876 C.ar    1  UNL1       -0.0549
     14 O          -0.6253    0.7646    1.0393 O.3     1  UNL1       -0.4553
     15 C           0.5986    0.8669    1.6733 C.2     1  UNL1        0.3284
     16 O           0.6027    0.8478    2.9140 O.2     1  UNL1       -0.2487
     17 C           1.8751    0.9957    0.9299 C.3     1  UNL1        0.1229
     18 C           2.5733    2.3039    1.2269 C.3     1  UNL1       -0.0238
     19 C           1.7365    3.4680    0.7404 C.3     1  UNL1       -0.0494
     20 C           1.5851    3.4221   -0.7522 C.3     1  UNL1       -0.0371
     21 C           1.0283    2.0828   -1.1473 C.3     1  UNL1        0.0155
     22 N           1.6769    0.9622   -0.5057 N.am    1  UNL1       -0.2875
     23 C           2.1069   -0.1598   -1.2642 C.2     1  UNL1        0.2237
     24 O           1.7528    0.1720   -2.4189 O.2     1  UNL1       -0.2749
     25 C           2.7794   -1.3641   -0.7975 C.3     1  UNL1        0.0607
     26 C           2.9117   -2.3994   -1.8841 C.3     1  UNL1       -0.0407
     27 C           3.6926   -1.9619   -3.0808 C.3     1  UNL1       -0.0643
     28 C           4.1076   -1.1334   -0.1670 C.ar    1  UNL1       -0.0284
     29 C           4.6080   -1.7586    0.9593 C.ar    1  UNL1       -0.0122
     30 C           5.8567   -1.4382    1.4445 C.ar    1  UNL1        0.1654
     31 O           6.3642   -2.0574    2.5698 O.3     1  UNL1       -0.4913
     32 C           5.6878   -3.0335    3.3017 C.3     1  UNL1        0.0790
     33 C           6.6542   -0.4904    0.8358 C.ar    1  UNL1        0.2035
     34 O           7.9265   -0.1604    1.3245 O.3     1  UNL1       -0.4885
     35 C           8.9967   -0.9266    0.7951 C.3     1  UNL1        0.0791
     36 C           6.1660    0.1506   -0.3012 C.ar    1  UNL1        0.1654
     37 O           6.9994    1.0991   -0.8866 O.3     1  UNL1       -0.4913
     38 C           6.6444    1.8263   -2.0363 C.3     1  UNL1        0.0790
     39 C           4.9009   -0.1703   -0.7974 C.ar    1  UNL1       -0.0122
     40 C          -2.7495    1.8142    1.4983 C.ar    1  UNL1       -0.0038
     41 C          -2.9493    2.4587    0.2744 C.ar    1  UNL1       -0.0133
     42 C          -3.7752    3.5507    0.0958 C.ar    1  UNL1        0.1217
     43 O          -3.8513    4.0631   -1.1886 O.3     1  UNL1       -0.4808
     44 C          -4.6604    5.1639   -1.5023 C.3     1  UNL1        0.1857
     45 C          -6.0826    4.7848   -1.1976 C.2     1  UNL1        0.3427
     46 O          -6.9308    5.8533   -1.4668 O.3     1  UNL1       -0.4783
     47 O          -6.7410    3.7768   -0.7665 O.2     1  UNL1       -0.2472
     48 C          -4.4388    4.0286    1.1920 C.ar    1  UNL1       -0.0199
     49 C          -4.2830    3.4354    2.4267 C.ar    1  UNL1       -0.0579
     50 C          -3.4542    2.3457    2.5874 C.ar    1  UNL1       -0.0549
     51 H          -1.5883    0.6386    2.7715 H       1  UNL1        0.0785
     52 H          -3.6131   -0.4779    1.9268 H       1  UNL1        0.0307
     53 H          -2.1971   -1.5114    1.8974 H       1  UNL1        0.0307
     54 H          -3.6703    0.0222   -0.2957 H       1  UNL1        0.0314
     55 H          -2.1133   -0.7072   -0.7080 H       1  UNL1        0.0314
     56 H          -5.5814   -1.0817    0.0375 H       1  UNL1        0.0658
     57 H          -7.6130   -1.4778    1.0209 H       1  UNL1        0.0660
     58 H          -7.4772   -1.0638   -0.7084 H       1  UNL1        0.0660
     59 H          -8.9816   -1.8916   -0.1406 H       1  UNL1        0.0660
     60 H          -4.7842   -7.0259   -0.1181 H       1  UNL1        0.0660
     61 H          -4.6126   -6.5920   -1.8590 H       1  UNL1        0.0660
     62 H          -6.1183   -7.4869   -1.2849 H       1  UNL1        0.0660
     63 H          -3.3377   -5.3498   -0.8647 H       1  UNL1        0.0655
     64 H          -2.0862   -3.3257   -0.5447 H       1  UNL1        0.0621
     65 H           2.5263    0.1862    1.3091 H       1  UNL1        0.0616
     66 H           3.5568    2.2763    0.7380 H       1  UNL1        0.0288
     67 H           2.6807    2.3953    2.3256 H       1  UNL1        0.0288
     68 H           2.2308    4.3817    1.1114 H       1  UNL1        0.0266
     69 H           0.7387    3.4087    1.1778 H       1  UNL1        0.0266
     70 H           2.6245    3.4700   -1.1712 H       1  UNL1        0.0280
     71 H           0.9725    4.2282   -1.1507 H       1  UNL1        0.0280
     72 H           1.2233    1.9965   -2.2537 H       1  UNL1        0.0465
     73 H          -0.0708    2.0507   -1.0527 H       1  UNL1        0.0465
     74 H           2.1713   -1.8632    0.0108 H       1  UNL1        0.0443
     75 H           1.8649   -2.6151   -2.2450 H       1  UNL1        0.0273
     76 H           3.3114   -3.3180   -1.4326 H       1  UNL1        0.0273
     77 H           3.7046   -2.8546   -3.7762 H       1  UNL1        0.0230
     78 H           3.2021   -1.1542   -3.6562 H       1  UNL1        0.0230
     79 H           4.7281   -1.6369   -2.8733 H       1  UNL1        0.0230
     80 H           3.9666   -2.4923    1.4120 H       1  UNL1        0.0658
     81 H           4.9845   -3.6503    2.7372 H       1  UNL1        0.0660
     82 H           5.2043   -2.6178    4.2184 H       1  UNL1        0.0660
     83 H           6.4678   -3.7393    3.7127 H       1  UNL1        0.0660
     84 H           9.9715   -0.5542    1.1550 H       1  UNL1        0.0660
     85 H           8.8944   -2.0067    1.0124 H       1  UNL1        0.0660
     86 H           8.9736   -0.7869   -0.3066 H       1  UNL1        0.0660
     87 H           5.8705    2.5844   -1.7417 H       1  UNL1        0.0660
     88 H           6.2223    1.1404   -2.7935 H       1  UNL1        0.0660
     89 H           7.5507    2.3586   -2.4040 H       1  UNL1        0.0660
     90 H           4.6650    0.4215   -1.6892 H       1  UNL1        0.0658
     91 H          -2.4097    2.0459   -0.5413 H       1  UNL1        0.0658
     92 H          -4.5844    5.3837   -2.5917 H       1  UNL1        0.0815
     93 H          -4.4497    6.0725   -0.8904 H       1  UNL1        0.0815
     94 H          -7.9298    5.7559   -1.5955 H       1  UNL1        0.2952
     95 H          -5.0826    4.8833    1.0793 H       1  UNL1        0.0654
     96 H          -4.8295    3.8456    3.2808 H       1  UNL1        0.0619
     97 H          -3.3226    1.8658    3.5623 H       1  UNL1        0.0621
@<TRIPOS>BOND
     1     1     2    1
     2     2     3    1
     3     3     4    1
     4     4     5   ar
     5     5     6   ar
     6     6     7    1
     7     7     8    1
     8     6     9   ar
     9     9    10    1
    10    10    11    1
    11     9    12   ar
    12    12    13   ar
    13     1    14    1
    14    14    15    1
    15    15    16    2
    16    15    17    1
    17    17    18    1
    18    18    19    1
    19    19    20    1
    20    20    21    1
    21    21    22    1
    22    22    23   am
    23    23    24    2
    24    23    25    1
    25    25    26    1
    26    26    27    1
    27    25    28    1
    28    28    29   ar
    29    29    30   ar
    30    30    31    1
    31    31    32    1
    32    30    33   ar
    33    33    34    1
    34    34    35    1
    35    33    36   ar
    36    36    37    1
    37    37    38    1
    38    36    39   ar
    39     1    40    1
    40    40    41   ar
    41    41    42   ar
    42    42    43    1
    43    43    44    1
    44    44    45    1
    45    45    46    1
    46    45    47    2
    47    42    48   ar
    48    48    49   ar
    49    49    50   ar
    50    13     4   ar
    51    22    17    1
    52    39    28   ar
    53    50    40   ar
    54     1    51    1
    55     2    52    1
    56     2    53    1
    57     3    54    1
    58     3    55    1
    59     5    56    1
    60     8    57    1
    61     8    58    1
    62     8    59    1
    63    11    60    1
    64    11    61    1
    65    11    62    1
    66    12    63    1
    67    13    64    1
    68    17    65    1
    69    18    66    1
    70    18    67    1
    71    19    68    1
    72    19    69    1
    73    20    70    1
    74    20    71    1
    75    21    72    1
    76    21    73    1
    77    25    74    1
    78    26    75    1
    79    26    76    1
    80    27    77    1
    81    27    78    1
    82    27    79    1
    83    29    80    1
    84    32    81    1
    85    32    82    1
    86    32    83    1
    87    35    84    1
    88    35    85    1
    89    35    86    1
    90    38    87    1
    91    38    88    1
    92    38    89    1
    93    39    90    1
    94    41    91    1
    95    44    92    1
    96    44    93    1
    97    46    94    1
    98    48    95    1
    99    49    96    1
   100    50    97    1
