@<TRIPOS>MOLECULE
*****
 20 20 0 0 0
SMALL
GASTEIGER

@<TRIPOS>ATOM
      1 C           3.0341   -1.4912    0.2174 C.3     1  UNL1        0.0788
      2 O           2.6644   -0.1528   -0.0350 O.3     1  UNL1       -0.4951
      3 C           1.3866    0.3340   -0.1064 C.ar    1  UNL1        0.1208
      4 C           1.1907    1.6772   -0.3628 C.ar    1  UNL1       -0.0199
      5 C          -0.1051    2.1689   -0.4348 C.ar    1  UNL1       -0.0576
      6 C          -1.2079    1.3598   -0.2585 C.ar    1  UNL1       -0.0494
      7 C          -1.0496   -0.0002    0.0019 C.ar    1  UNL1        0.0399
      8 C           0.2683   -0.4310    0.0616 C.ar    1  UNL1       -0.0079
      9 C          -2.1458   -0.9527    0.2058 C.2     1  UNL1        0.2416
     10 N          -3.4444   -0.3801    0.1180 N.am    1  UNL1       -0.3253
     11 O          -1.9954   -2.1744    0.4396 O.2     1  UNL1       -0.2704
     12 H           2.3584   -2.0078    0.9250 H       1  UNL1        0.0660
     13 H           4.0988   -1.4708    0.5725 H       1  UNL1        0.0660
     14 H           2.9864   -2.0095   -0.7676 H       1  UNL1        0.0660
     15 H           2.0217    2.3617   -0.5102 H       1  UNL1        0.0654
     16 H          -0.3156    3.2223   -0.6348 H       1  UNL1        0.0619
     17 H          -2.2323    1.7069   -0.3073 H       1  UNL1        0.0625
     18 H           0.4062   -1.4915    0.2644 H       1  UNL1        0.0662
     19 H          -3.6836   -0.1909    1.1106 H       1  UNL1        0.1453
     20 H          -4.2360   -0.0778   -0.4994 H       1  UNL1        0.1453
@<TRIPOS>BOND
     1     1     2    1
     2     2     3    1
     3     3     4   ar
     4     4     5   ar
     5     5     6   ar
     6     6     7   ar
     7     7     8   ar
     8     7     9    1
     9     9    10   am
    10     9    11    2
    11     8     3   ar
    12     1    12    1
    13     1    13    1
    14     1    14    1
    15     4    15    1
    16     5    16    1
    17     6    17    1
    18     8    18    1
    19    10    19    1
    20    10    20    1
