@<TRIPOS>MOLECULE
*****
 39 41 0 0 0
SMALL
GASTEIGER

@<TRIPOS>ATOM
      1 C           6.4758   -0.3790    0.2617 C.3     1  UNL1       -0.0222
      2 C           5.1896    0.3643    0.1354 C.ar    1  UNL1        0.0445
      3 C           3.9832   -0.3234    0.0440 C.ar    1  UNL1       -0.0066
      4 C           2.7258    0.2547   -0.0740 C.ar    1  UNL1        0.1190
      5 N           2.6859    1.6171   -0.1006 N.ar    1  UNL1       -0.2062
      6 C           3.8619    2.3062   -0.0121 C.ar    1  UNL1        0.2139
      7 N           3.9230    3.7131   -0.0311 N.pl3   1  UNL1       -0.3274
      8 N           5.0530    1.6989    0.1001 N.ar    1  UNL1       -0.2199
      9 C           1.5267   -0.5426   -0.1615 C.1     1  UNL1       -0.0410
     10 C           0.5344   -1.2230   -0.2451 C.1     1  UNL1       -0.0592
     11 C          -0.6361   -2.0513   -0.3575 C.ar    1  UNL1        0.0300
     12 C          -1.9138   -1.5486   -0.2248 C.ar    1  UNL1       -0.0135
     13 C          -2.1567   -0.1107    0.0124 C.3     1  UNL1        0.0515
     14 N          -3.5010    0.1497    0.4867 N.pl3   1  UNL1       -0.2752
     15 N          -4.0345    1.4467    0.6378 N.ar    1  UNL1       -0.2032
     16 C          -4.1602    2.5201    1.4693 C.ar    1  UNL1        0.0665
     17 C          -4.9148    3.4831    0.8025 C.ar    1  UNL1        0.1155
     18 O          -5.2279    2.9961   -0.3895 O.2     1  UNL1       -0.4148
     19 C          -4.7123    1.7885   -0.5010 C.ar    1  UNL1        0.4372
     20 O          -4.9980    1.2906   -1.6397 O.2     1  UNL1       -0.2210
     21 C          -2.9216   -2.4616   -0.3469 C.ar    1  UNL1       -0.0559
     22 C          -2.7552   -3.8040   -0.5855 C.ar    1  UNL1       -0.0614
     23 C          -1.4709   -4.3061   -0.7194 C.ar    1  UNL1       -0.0606
     24 C          -0.4420   -3.4082   -0.6004 C.ar    1  UNL1       -0.0460
     25 H           7.3174    0.2908    0.1048 H       1  UNL1        0.0293
     26 H           6.5643   -1.2100   -0.4958 H       1  UNL1        0.0293
     27 H           6.5455   -0.9021    1.2587 H       1  UNL1        0.0293
     28 H           4.0202   -1.4057    0.0687 H       1  UNL1        0.0663
     29 H           3.8410    4.5944   -0.5764 H       1  UNL1        0.1452
     30 H           4.1473    4.2151    0.8606 H       1  UNL1        0.1452
     31 H          -1.9188    0.4601   -0.9053 H       1  UNL1        0.0527
     32 H          -1.4252    0.2251    0.7962 H       1  UNL1        0.0527
     33 H          -4.2535   -0.5413    0.7874 H       1  UNL1        0.1669
     34 H          -3.6389    2.3172    2.4039 H       1  UNL1        0.0861
     35 H          -5.0788    4.3823    1.3693 H       1  UNL1        0.1047
     36 H          -3.9687   -2.2057   -0.2685 H       1  UNL1        0.0621
     37 H          -3.5527   -4.5291   -0.6822 H       1  UNL1        0.0618
     38 H          -1.2932   -5.3549   -0.9104 H       1  UNL1        0.0618
     39 H           0.5801   -3.8069   -0.7100 H       1  UNL1        0.0630
@<TRIPOS>BOND
     1     1     2    1
     2     2     3   ar
     3     3     4   ar
     4     4     5   ar
     5     5     6   ar
     6     6     7    1
     7     6     8   ar
     8     4     9    1
     9     9    10    3
    10    10    11    1
    11    11    12   ar
    12    12    13    1
    13    13    14    1
    14    14    15    1
    15    15    16   ar
    16    16    17   ar
    17    17    18   ar
    18    18    19   ar
    19    19    20    2
    20    12    21   ar
    21    21    22   ar
    22    22    23   ar
    23    23    24   ar
    24     8     2   ar
    25    24    11   ar
    26    19    15   ar
    27     1    25    1
    28     1    26    1
    29     1    27    1
    30     3    28    1
    31     7    29    1
    32     7    30    1
    33    13    31    1
    34    13    32    1
    35    14    33    1
    36    16    34    1
    37    17    35    1
    38    21    36    1
    39    22    37    1
    40    23    38    1
    41    24    39    1
