
     RDKit          3D

 39 41  0  0  0  0  0  0  0  0999 V2000
    6.4758   -0.3790    0.2617 C   0  0  0  0  0  0  0  0  0  0  0  0
    5.1896    0.3643    0.1354 C   0  0  0  0  0  0  0  0  0  0  0  0
    3.9832   -0.3234    0.0440 C   0  0  0  0  0  0  0  0  0  0  0  0
    2.7258    0.2547   -0.0740 C   0  0  0  0  0  0  0  0  0  0  0  0
    2.6859    1.6171   -0.1006 N   0  0  0  0  0  0  0  0  0  0  0  0
    3.8619    2.3062   -0.0121 C   0  0  0  0  0  0  0  0  0  0  0  0
    3.9230    3.7131   -0.0311 N   0  0  0  0  0  0  0  0  0  0  0  0
    5.0530    1.6989    0.1001 N   0  0  0  0  0  0  0  0  0  0  0  0
    1.5267   -0.5426   -0.1615 C   0  0  0  0  0  0  0  0  0  0  0  0
    0.5344   -1.2230   -0.2451 C   0  0  0  0  0  0  0  0  0  0  0  0
   -0.6361   -2.0513   -0.3575 C   0  0  0  0  0  0  0  0  0  0  0  0
   -1.9138   -1.5486   -0.2248 C   0  0  0  0  0  0  0  0  0  0  0  0
   -2.1567   -0.1107    0.0124 C   0  0  0  0  0  0  0  0  0  0  0  0
   -3.5010    0.1497    0.4867 N   0  0  0  0  0  0  0  0  0  0  0  0
   -4.0345    1.4467    0.6378 N   0  0  0  0  0  0  0  0  0  0  0  0
   -4.1602    2.5201    1.4693 C   0  0  0  0  0  0  0  0  0  0  0  0
   -4.9148    3.4831    0.8025 C   0  0  0  0  0  0  0  0  0  0  0  0
   -5.2279    2.9961   -0.3895 O   0  0  0  0  0  0  0  0  0  0  0  0
   -4.7123    1.7885   -0.5010 C   0  0  0  0  0  0  0  0  0  0  0  0
   -4.9980    1.2906   -1.6397 O   0  0  0  0  0  0  0  0  0  0  0  0
   -2.9216   -2.4616   -0.3469 C   0  0  0  0  0  0  0  0  0  0  0  0
   -2.7552   -3.8040   -0.5855 C   0  0  0  0  0  0  0  0  0  0  0  0
   -1.4709   -4.3061   -0.7194 C   0  0  0  0  0  0  0  0  0  0  0  0
   -0.4420   -3.4082   -0.6004 C   0  0  0  0  0  0  0  0  0  0  0  0
    7.3174    0.2908    0.1048 H   0  0  0  0  0  0  0  0  0  0  0  0
    6.5643   -1.2100   -0.4958 H   0  0  0  0  0  0  0  0  0  0  0  0
    6.5455   -0.9021    1.2587 H   0  0  0  0  0  0  0  0  0  0  0  0
    4.0202   -1.4057    0.0687 H   0  0  0  0  0  0  0  0  0  0  0  0
    3.8410    4.5944   -0.5764 H   0  0  0  0  0  0  0  0  0  0  0  0
    4.1473    4.2151    0.8606 H   0  0  0  0  0  0  0  0  0  0  0  0
   -1.9188    0.4601   -0.9053 H   0  0  0  0  0  0  0  0  0  0  0  0
   -1.4252    0.2251    0.7962 H   0  0  0  0  0  0  0  0  0  0  0  0
   -4.2535   -0.5413    0.7874 H   0  0  0  0  0  0  0  0  0  0  0  0
   -3.6389    2.3172    2.4039 H   0  0  0  0  0  0  0  0  0  0  0  0
   -5.0788    4.3823    1.3693 H   0  0  0  0  0  0  0  0  0  0  0  0
   -3.9687   -2.2057   -0.2685 H   0  0  0  0  0  0  0  0  0  0  0  0
   -3.5527   -4.5291   -0.6822 H   0  0  0  0  0  0  0  0  0  0  0  0
   -1.2932   -5.3549   -0.9104 H   0  0  0  0  0  0  0  0  0  0  0  0
    0.5801   -3.8069   -0.7100 H   0  0  0  0  0  0  0  0  0  0  0  0
  1  2  1  0
  2  3  2  0
  3  4  1  0
  4  5  2  0
  5  6  1  0
  6  7  1  0
  6  8  2  0
  4  9  1  0
  9 10  3  0
 10 11  1  0
 11 12  1  0
 12 13  1  0
 13 14  1  0
 14 15  1  0
 15 16  1  0
 16 17  2  0
 17 18  1  0
 18 19  1  0
 19 20  2  0
 12 21  2  0
 21 22  1  0
 22 23  2  0
 23 24  1  0
  8  2  1  0
 24 11  2  0
 19 15  1  0
  1 25  1  0
  1 26  1  0
  1 27  1  0
  3 28  1  0
  7 29  1  0
  7 30  1  0
 13 31  1  0
 13 32  1  0
 14 33  1  0
 16 34  1  0
 17 35  1  0
 21 36  1  0
 22 37  1  0
 23 38  1  0
 24 39  1  0
M  END
$$$$
