@<TRIPOS>MOLECULE
*****
 31 32 0 0 0
SMALL
GASTEIGER

@<TRIPOS>ATOM
      1 C          -2.2506   -0.9985   -0.3370 C.3     1  UNL1        0.0915
      2 O          -2.8568   -1.2609   -1.5510 O.3     1  UNL1       -0.3887
      3 C          -1.1407   -1.9415   -0.0033 C.3     1  UNL1        0.1073
      4 O          -1.6446   -3.0103    0.7085 O.3     1  UNL1       -0.3870
      5 C          -0.1909   -1.1175    0.8375 C.3     1  UNL1        0.1212
      6 N           1.0806   -0.9993    0.1756 N.2     1  UNL1       -0.2270
      7 C           1.4264    0.2276    0.1671 C.2     1  UNL1        0.2807
      8 O           0.4710    1.0493    0.7945 O.2     1  UNL1       -0.4596
      9 C          -0.7234    0.2798    0.8601 C.3     1  UNL1        0.1351
     10 C          -1.5289    0.3305   -0.4169 C.3     1  UNL1        0.0498
     11 C          -2.5228    1.4675   -0.4180 C.3     1  UNL1        0.0529
     12 O          -1.7861    2.6565   -0.4935 O.3     1  UNL1       -0.3945
     13 N           2.6927    0.4855   -0.4714 N.pl3   1  UNL1       -0.2918
     14 C           3.0696    0.8212   -1.8435 C.3     1  UNL1        0.0044
     15 C           3.8027    0.3852    0.4588 C.3     1  UNL1        0.0044
     16 H          -2.9778   -0.9023    0.4963 H       1  UNL1        0.0624
     17 H          -3.7447   -1.6683   -1.3957 H       1  UNL1        0.2099
     18 H          -0.6664   -2.2936   -0.9463 H       1  UNL1        0.0642
     19 H          -1.4949   -2.8081    1.6699 H       1  UNL1        0.2100
     20 H          -0.0967   -1.5608    1.8523 H       1  UNL1        0.0610
     21 H          -1.3236    0.5007    1.7430 H       1  UNL1        0.0761
     22 H          -0.8290    0.4088   -1.2642 H       1  UNL1        0.0386
     23 H          -3.1464    1.3965   -1.3289 H       1  UNL1        0.0562
     24 H          -3.1928    1.4505    0.4490 H       1  UNL1        0.0562
     25 H          -2.2180    3.3667    0.0696 H       1  UNL1        0.2094
     26 H           3.6425   -0.0263   -2.2817 H       1  UNL1        0.0429
     27 H           3.7102    1.7167   -1.8675 H       1  UNL1        0.0429
     28 H           2.1919    1.0213   -2.4615 H       1  UNL1        0.0429
     29 H           3.6692   -0.5369    1.0979 H       1  UNL1        0.0429
     30 H           4.7870    0.3185   -0.0190 H       1  UNL1        0.0429
     31 H           3.7915    1.2415    1.1567 H       1  UNL1        0.0429
@<TRIPOS>BOND
     1     1     2    1
     2     1     3    1
     3     3     4    1
     4     3     5    1
     5     5     6    1
     6     6     7    2
     7     7     8    1
     8     8     9    1
     9     9    10    1
    10    10    11    1
    11    11    12    1
    12     7    13    1
    13    13    14    1
    14    13    15    1
    15    10     1    1
    16     9     5    1
    17     1    16    1
    18     2    17    1
    19     3    18    1
    20     4    19    1
    21     5    20    1
    22     9    21    1
    23    10    22    1
    24    11    23    1
    25    11    24    1
    26    12    25    1
    27    14    26    1
    28    14    27    1
    29    14    28    1
    30    15    29    1
    31    15    30    1
    32    15    31    1
