
     RDKit          3D

 31 32  0  0  0  0  0  0  0  0999 V2000
   -2.2506   -0.9985   -0.3370 C   0  0  1  0  0  0  0  0  0  0  0  0
   -2.8568   -1.2609   -1.5510 O   0  0  0  0  0  0  0  0  0  0  0  0
   -1.1407   -1.9415   -0.0033 C   0  0  2  0  0  0  0  0  0  0  0  0
   -1.6446   -3.0103    0.7085 O   0  0  0  0  0  0  0  0  0  0  0  0
   -0.1909   -1.1175    0.8375 C   0  0  1  0  0  0  0  0  0  0  0  0
    1.0806   -0.9993    0.1756 N   0  0  0  0  0  0  0  0  0  0  0  0
    1.4264    0.2276    0.1671 C   0  0  0  0  0  0  0  0  0  0  0  0
    0.4710    1.0493    0.7945 O   0  0  0  0  0  0  0  0  0  0  0  0
   -0.7234    0.2798    0.8601 C   0  0  1  0  0  0  0  0  0  0  0  0
   -1.5289    0.3305   -0.4169 C   0  0  2  0  0  0  0  0  0  0  0  0
   -2.5228    1.4675   -0.4180 C   0  0  0  0  0  0  0  0  0  0  0  0
   -1.7861    2.6565   -0.4935 O   0  0  0  0  0  0  0  0  0  0  0  0
    2.6927    0.4855   -0.4714 N   0  0  0  0  0  0  0  0  0  0  0  0
    3.0696    0.8212   -1.8435 C   0  0  0  0  0  0  0  0  0  0  0  0
    3.8027    0.3852    0.4588 C   0  0  0  0  0  0  0  0  0  0  0  0
   -2.9778   -0.9023    0.4963 H   0  0  0  0  0  0  0  0  0  0  0  0
   -3.7447   -1.6683   -1.3957 H   0  0  0  0  0  0  0  0  0  0  0  0
   -0.6664   -2.2936   -0.9463 H   0  0  0  0  0  0  0  0  0  0  0  0
   -1.4949   -2.8081    1.6699 H   0  0  0  0  0  0  0  0  0  0  0  0
   -0.0967   -1.5608    1.8523 H   0  0  0  0  0  0  0  0  0  0  0  0
   -1.3236    0.5007    1.7430 H   0  0  0  0  0  0  0  0  0  0  0  0
   -0.8290    0.4088   -1.2642 H   0  0  0  0  0  0  0  0  0  0  0  0
   -3.1464    1.3965   -1.3289 H   0  0  0  0  0  0  0  0  0  0  0  0
   -3.1928    1.4505    0.4490 H   0  0  0  0  0  0  0  0  0  0  0  0
   -2.2180    3.3667    0.0696 H   0  0  0  0  0  0  0  0  0  0  0  0
    3.6425   -0.0263   -2.2817 H   0  0  0  0  0  0  0  0  0  0  0  0
    3.7102    1.7167   -1.8675 H   0  0  0  0  0  0  0  0  0  0  0  0
    2.1919    1.0213   -2.4615 H   0  0  0  0  0  0  0  0  0  0  0  0
    3.6692   -0.5369    1.0979 H   0  0  0  0  0  0  0  0  0  0  0  0
    4.7870    0.3185   -0.0190 H   0  0  0  0  0  0  0  0  0  0  0  0
    3.7915    1.2415    1.1567 H   0  0  0  0  0  0  0  0  0  0  0  0
  1  2  1  0
  1  3  1  0
  3  4  1  0
  3  5  1  0
  5  6  1  0
  6  7  2  0
  7  8  1  0
  8  9  1  0
  9 10  1  0
 10 11  1  0
 11 12  1  0
  7 13  1  0
 13 14  1  0
 13 15  1  0
 10  1  1  0
  9  5  1  0
  1 16  1  1
  2 17  1  0
  3 18  1  6
  4 19  1  0
  5 20  1  1
  9 21  1  1
 10 22  1  6
 11 23  1  0
 11 24  1  0
 12 25  1  0
 14 26  1  0
 14 27  1  0
 14 28  1  0
 15 29  1  0
 15 30  1  0
 15 31  1  0
M  END
$$$$
