
     RDKit          3D

102106  0  0  0  0  0  0  0  0999 V2000
    7.7531   -6.2816    1.9029 C   0  0  0  0  0  0  0  0  0  0  0  0
    7.0798   -5.2659    1.4886 C   0  0  0  0  0  0  0  0  0  0  0  0
    6.3667   -4.1588    1.0563 C   0  0  0  0  0  0  0  0  0  0  0  0
    5.1104   -3.8324    1.4740 C   0  0  0  0  0  0  0  0  0  0  0  0
    4.4637   -2.6283    1.1972 C   0  0  0  0  0  0  0  0  0  0  0  0
    3.2332   -2.3611    1.7366 N   0  0  0  0  0  0  0  0  0  0  0  0
    2.2542   -1.4890    1.1177 C   0  0  0  0  0  0  0  0  0  0  0  0
    1.2854   -2.1972    0.4734 C   0  0  0  0  0  0  0  0  0  0  0  0
    0.2317   -1.4092   -0.1014 C   0  0  0  0  0  0  0  0  0  0  0  0
   -0.7907   -2.1482   -0.7518 O   0  0  0  0  0  0  0  0  0  0  0  0
   -1.9571   -1.4118   -0.9700 C   0  0  0  0  0  0  0  0  0  0  0  0
   -2.4938   -1.2207   -2.2101 C   0  0  0  0  0  0  0  0  0  0  0  0
   -3.6500   -0.4791   -2.4231 C   0  0  0  0  0  0  0  0  0  0  0  0
   -4.2860    0.0863   -1.3654 C   0  0  0  0  0  0  0  0  0  0  0  0
   -5.4937    0.8378   -1.3959 N   0  0  0  0  0  0  0  0  0  0  0  0
   -6.7196    0.2484   -0.8986 C   0  0  0  0  0  0  0  0  0  0  0  0
   -6.5942   -0.9271   -0.5058 O   0  0  0  0  0  0  0  0  0  0  0  0
   -7.9290    0.9545   -0.8651 N   0  0  0  0  0  0  0  0  0  0  0  0
   -9.1611    0.4484   -0.3691 C   0  0  0  0  0  0  0  0  0  0  0  0
   -9.3573   -0.8684   -0.0570 C   0  0  0  0  0  0  0  0  0  0  0  0
  -10.5640   -1.3242    0.5013 C   0  0  0  0  0  0  0  0  0  0  0  0
  -10.7432   -2.7182    0.7993 C   0  0  0  0  0  0  0  0  0  0  0  0
   -9.7963   -3.7226    0.5336 N   0  0  0  0  0  0  0  0  0  0  0  0
  -11.8492   -3.0800    1.3395 O   0  0  0  0  0  0  0  0  0  0  0  0
  -11.5712   -0.3824    0.7344 C   0  0  0  0  0  0  0  0  0  0  0  0
  -11.4065    0.9517    0.4317 C   0  0  0  0  0  0  0  0  0  0  0  0
  -12.4602    1.9437    0.7009 C   0  0  0  0  0  0  0  0  0  0  0  0
  -13.6031    1.3568    1.5049 C   0  0  0  0  0  0  0  0  0  0  0  0
  -11.9076    3.0911    1.4808 C   0  0  0  0  0  0  0  0  0  0  0  0
  -12.9583    2.4171   -0.6625 C   0  0  0  0  0  0  0  0  0  0  0  0
  -10.2113    1.3468   -0.1120 C   0  0  0  0  0  0  0  0  0  0  0  0
   -3.7493   -0.1015   -0.0941 C   0  0  0  0  0  0  0  0  0  0  0  0
   -4.3933    0.4604    0.9953 C   0  0  0  0  0  0  0  0  0  0  0  0
   -3.9107    0.2814    2.2716 C   0  0  0  0  0  0  0  0  0  0  0  0
   -2.7901   -0.4586    2.4818 C   0  0  0  0  0  0  0  0  0  0  0  0
   -2.1124   -1.0343    1.4135 C   0  0  0  0  0  0  0  0  0  0  0  0
   -2.5848   -0.8492    0.1421 C   0  0  0  0  0  0  0  0  0  0  0  0
    0.3295   -0.1115    0.0474 C   0  0  0  0  0  0  0  0  0  0  0  0
    1.3085    0.6200    0.6883 C   0  0  0  0  0  0  0  0  0  0  0  0
    2.3333   -0.2024    1.2516 N   0  0  0  0  0  0  0  0  0  0  0  0
    5.1665   -1.6881    0.4314 C   0  0  0  0  0  0  0  0  0  0  0  0
    6.4120   -1.9593   -0.0108 C   0  0  0  0  0  0  0  0  0  0  0  0
    7.3053   -0.9734   -0.6082 C   0  0  0  0  0  0  0  0  0  0  0  0
    7.8867   -1.1595   -1.6651 O   0  0  0  0  0  0  0  0  0  0  0  0
    7.5207    0.2545    0.1072 N   0  0  0  0  0  0  0  0  0  0  0  0
    8.4155    1.2863   -0.1908 C   0  0  0  0  0  0  0  0  0  0  0  0
    8.5389    2.0907   -1.3765 C   0  0  0  0  0  0  0  0  0  0  0  0
    8.7992    1.7519   -2.6114 O   0  0  0  0  0  0  0  0  0  0  0  0
    9.8109    1.0375   -3.0879 C   0  0  0  0  0  0  0  0  0  0  0  0
   11.2317    1.4036   -2.6245 C   0  0  0  0  0  0  0  0  0  0  0  0
   11.3814    1.2784   -1.3189 O   0  0  0  0  0  0  0  0  0  0  0  0
   12.5168    1.4723   -0.6702 C   0  0  0  0  0  0  0  0  0  0  0  0
   13.1162    2.8799   -0.7876 C   0  0  0  0  0  0  0  0  0  0  0  0
   14.2702    3.0112   -0.0729 O   0  0  0  0  0  0  0  0  0  0  0  0
   14.1615    2.8053    1.2851 C   0  0  0  0  0  0  0  0  0  0  0  0
    7.0246   -3.1800    0.2837 C   0  0  0  0  0  0  0  0  0  0  0  0
    8.3332   -7.1438    2.2749 H   0  0  0  0  0  0  0  0  0  0  0  0
    4.5780   -4.5648    2.0605 H   0  0  0  0  0  0  0  0  0  0  0  0
    2.9363   -2.7792    2.6756 H   0  0  0  0  0  0  0  0  0  0  0  0
    1.2639   -3.2294    0.3731 H   0  0  0  0  0  0  0  0  0  0  0  0
   -1.9745   -1.6794   -3.0692 H   0  0  0  0  0  0  0  0  0  0  0  0
   -4.0799   -0.3256   -3.3965 H   0  0  0  0  0  0  0  0  0  0  0  0
   -5.5329    1.8067   -1.7731 H   0  0  0  0  0  0  0  0  0  0  0  0
   -7.9491    1.9598   -1.2425 H   0  0  0  0  0  0  0  0  0  0  0  0
   -8.5983   -1.6275   -0.2163 H   0  0  0  0  0  0  0  0  0  0  0  0
  -10.0712   -4.7449    0.4513 H   0  0  0  0  0  0  0  0  0  0  0  0
   -8.7696   -3.5170    0.3994 H   0  0  0  0  0  0  0  0  0  0  0  0
  -12.4970   -0.7866    1.1614 H   0  0  0  0  0  0  0  0  0  0  0  0
  -13.2470    1.1635    2.5110 H   0  0  0  0  0  0  0  0  0  0  0  0
  -14.3478    2.2103    1.5959 H   0  0  0  0  0  0  0  0  0  0  0  0
  -14.0267    0.4989    0.9797 H   0  0  0  0  0  0  0  0  0  0  0  0
  -12.6679    3.9049    1.5851 H   0  0  0  0  0  0  0  0  0  0  0  0
  -11.6177    2.7651    2.5289 H   0  0  0  0  0  0  0  0  0  0  0  0
  -10.9798    3.5026    1.0394 H   0  0  0  0  0  0  0  0  0  0  0  0
  -12.9672    1.5354   -1.3208 H   0  0  0  0  0  0  0  0  0  0  0  0
  -12.1850    3.0896   -1.0713 H   0  0  0  0  0  0  0  0  0  0  0  0
  -13.9446    2.8983   -0.5681 H   0  0  0  0  0  0  0  0  0  0  0  0
  -10.0716    2.3854   -0.3547 H   0  0  0  0  0  0  0  0  0  0  0  0
   -5.2972    1.0553    0.8682 H   0  0  0  0  0  0  0  0  0  0  0  0
   -4.4539    0.7583    3.1224 H   0  0  0  0  0  0  0  0  0  0  0  0
   -2.4362   -0.6119    3.5031 H   0  0  0  0  0  0  0  0  0  0  0  0
   -1.2571   -1.6517    1.6360 H   0  0  0  0  0  0  0  0  0  0  0  0
   -0.5117    0.5110   -0.3906 H   0  0  0  0  0  0  0  0  0  0  0  0
    1.3740    1.6271    0.7922 H   0  0  0  0  0  0  0  0  0  0  0  0
    4.6607   -0.7520    0.2407 H   0  0  0  0  0  0  0  0  0  0  0  0
    6.8761    0.3052    0.9909 H   0  0  0  0  0  0  0  0  0  0  0  0
    8.1565    2.1008    0.6493 H   0  0  0  0  0  0  0  0  0  0  0  0
    9.4428    0.9987    0.2707 H   0  0  0  0  0  0  0  0  0  0  0  0
    9.2361    3.0140   -1.1179 H   0  0  0  0  0  0  0  0  0  0  0  0
    7.5425    2.7200   -1.4252 H   0  0  0  0  0  0  0  0  0  0  0  0
    9.8815    1.2352   -4.2206 H   0  0  0  0  0  0  0  0  0  0  0  0
    9.7010   -0.0872   -3.0835 H   0  0  0  0  0  0  0  0  0  0  0  0
   11.5646    2.3835   -3.0013 H   0  0  0  0  0  0  0  0  0  0  0  0
   11.9595    0.6735   -3.1353 H   0  0  0  0  0  0  0  0  0  0  0  0
   12.2551    1.4249    0.4562 H   0  0  0  0  0  0  0  0  0  0  0  0
   13.3200    0.6948   -0.8275 H   0  0  0  0  0  0  0  0  0  0  0  0
   13.2993    3.0900   -1.8361 H   0  0  0  0  0  0  0  0  0  0  0  0
   12.3482    3.6254   -0.4310 H   0  0  0  0  0  0  0  0  0  0  0  0
   13.4292    3.5024    1.7220 H   0  0  0  0  0  0  0  0  0  0  0  0
   13.9396    1.7288    1.4592 H   0  0  0  0  0  0  0  0  0  0  0  0
   15.1288    3.0013    1.8088 H   0  0  0  0  0  0  0  0  0  0  0  0
    7.9935   -3.3615   -0.1040 H   0  0  0  0  0  0  0  0  0  0  0  0
  1  2  3  0
  2  3  1  0
  3  4  2  0
  4  5  1  0
  5  6  1  0
  6  7  1  0
  7  8  2  0
  8  9  1  0
  9 10  1  0
 10 11  1  0
 11 12  2  0
 12 13  1  0
 13 14  2  0
 14 15  1  0
 15 16  1  0
 16 17  2  0
 16 18  1  0
 18 19  1  0
 19 20  2  0
 20 21  1  0
 21 22  1  0
 22 23  1  0
 22 24  2  0
 21 25  2  0
 25 26  1  0
 26 27  1  0
 27 28  1  0
 27 29  1  0
 27 30  1  0
 26 31  2  0
 14 32  1  0
 32 33  2  0
 33 34  1  0
 34 35  2  0
 35 36  1  0
 36 37  2  0
  9 38  2  0
 38 39  1  0
 39 40  2  0
  5 41  2  0
 41 42  1  0
 42 43  1  0
 43 44  2  0
 43 45  1  0
 45 46  1  0
 46 47  1  0
 47 48  1  0
 48 49  1  0
 49 50  1  0
 50 51  1  0
 51 52  1  0
 52 53  1  0
 53 54  1  0
 54 55  1  0
 42 56  2  0
 56  3  1  0
 40  7  1  0
 37 11  1  0
 31 19  1  0
 37 32  1  0
  1 57  1  0
  4 58  1  0
  6 59  1  0
  8 60  1  0
 12 61  1  0
 13 62  1  0
 15 63  1  0
 18 64  1  0
 20 65  1  0
 23 66  1  0
 23 67  1  0
 25 68  1  0
 28 69  1  0
 28 70  1  0
 28 71  1  0
 29 72  1  0
 29 73  1  0
 29 74  1  0
 30 75  1  0
 30 76  1  0
 30 77  1  0
 31 78  1  0
 33 79  1  0
 34 80  1  0
 35 81  1  0
 36 82  1  0
 38 83  1  0
 39 84  1  0
 41 85  1  0
 45 86  1  0
 46 87  1  0
 46 88  1  0
 47 89  1  0
 47 90  1  0
 49 91  1  0
 49 92  1  0
 50 93  1  0
 50 94  1  0
 52 95  1  0
 52 96  1  0
 53 97  1  0
 53 98  1  0
 55 99  1  0
 55100  1  0
 55101  1  0
 56102  1  0
M  END
$$$$
