@<TRIPOS>MOLECULE
*****
 102 106 0 0 0
SMALL
GASTEIGER

@<TRIPOS>ATOM
      1 C           7.7531   -6.2816    1.9029 C.1     1  UNL1       -0.1139
      2 C           7.0798   -5.2659    1.4886 C.1     1  UNL1       -0.0696
      3 C           6.3667   -4.1588    1.0563 C.ar    1  UNL1        0.0271
      4 C           5.1104   -3.8324    1.4740 C.ar    1  UNL1       -0.0251
      5 C           4.4637   -2.6283    1.1972 C.ar    1  UNL1        0.0343
      6 N           3.2332   -2.3611    1.7366 N.pl3   1  UNL1       -0.2993
      7 C           2.2542   -1.4890    1.1177 C.ar    1  UNL1        0.1264
      8 C           1.2854   -2.1972    0.4734 C.ar    1  UNL1        0.0208
      9 C           0.2317   -1.4092   -0.1014 C.ar    1  UNL1        0.1332
     10 O          -0.7907   -2.1482   -0.7518 O.3     1  UNL1       -0.4553
     11 C          -1.9571   -1.4118   -0.9700 C.ar    1  UNL1        0.1362
     12 C          -2.4938   -1.2207   -2.2101 C.ar    1  UNL1       -0.0170
     13 C          -3.6500   -0.4791   -2.4231 C.ar    1  UNL1       -0.0364
     14 C          -4.2860    0.0863   -1.3654 C.ar    1  UNL1        0.0427
     15 N          -5.4937    0.8378   -1.3959 N.am    1  UNL1       -0.2686
     16 C          -6.7196    0.2484   -0.8986 C.2     1  UNL1        0.3081
     17 O          -6.5942   -0.9271   -0.5058 O.2     1  UNL1       -0.2522
     18 N          -7.9290    0.9545   -0.8651 N.am    1  UNL1       -0.2692
     19 C          -9.1611    0.4484   -0.3691 C.ar    1  UNL1        0.0358
     20 C          -9.3573   -0.8684   -0.0570 C.ar    1  UNL1       -0.0283
     21 C         -10.5640   -1.3242    0.5013 C.ar    1  UNL1        0.0385
     22 C         -10.7432   -2.7182    0.7993 C.2     1  UNL1        0.2416
     23 N          -9.7963   -3.7226    0.5336 N.am    1  UNL1       -0.3253
     24 O         -11.8492   -3.0800    1.3395 O.2     1  UNL1       -0.2704
     25 C         -11.5712   -0.3824    0.7344 C.ar    1  UNL1       -0.0458
     26 C         -11.4065    0.9517    0.4317 C.ar    1  UNL1       -0.0395
     27 C         -12.4602    1.9437    0.7009 C.3     1  UNL1       -0.0126
     28 C         -13.6031    1.3568    1.5049 C.3     1  UNL1       -0.0560
     29 C         -11.9076    3.0911    1.4808 C.3     1  UNL1       -0.0560
     30 C         -12.9583    2.4171   -0.6625 C.3     1  UNL1       -0.0560
     31 C         -10.2113    1.3468   -0.1120 C.ar    1  UNL1       -0.0367
     32 C          -3.7493   -0.1015   -0.0941 C.ar    1  UNL1        0.0069
     33 C          -4.3933    0.4604    0.9953 C.ar    1  UNL1       -0.0521
     34 C          -3.9107    0.2814    2.2716 C.ar    1  UNL1       -0.0611
     35 C          -2.7901   -0.4586    2.4818 C.ar    1  UNL1       -0.0611
     36 C          -2.1124   -1.0343    1.4135 C.ar    1  UNL1       -0.0505
     37 C          -2.5848   -0.8492    0.1421 C.ar    1  UNL1        0.0262
     38 C           0.3295   -0.1115    0.0474 C.ar    1  UNL1       -0.0011
     39 C           1.3085    0.6200    0.6883 C.ar    1  UNL1        0.0332
     40 N           2.3333   -0.2024    1.2516 N.ar    1  UNL1       -0.2400
     41 C           5.1665   -1.6881    0.4314 C.ar    1  UNL1       -0.0283
     42 C           6.4120   -1.9593   -0.0108 C.ar    1  UNL1        0.0396
     43 C           7.3053   -0.9734   -0.6082 C.2     1  UNL1        0.2442
     44 O           7.8867   -1.1595   -1.6651 O.2     1  UNL1       -0.2702
     45 N           7.5207    0.2545    0.1072 N.am    1  UNL1       -0.3092
     46 C           8.4155    1.2863   -0.1908 C.3     1  UNL1        0.0353
     47 C           8.5389    2.0907   -1.3765 C.3     1  UNL1        0.0633
     48 O           8.7992    1.7519   -2.6114 O.3     1  UNL1       -0.3760
     49 C           9.8109    1.0375   -3.0879 C.3     1  UNL1        0.0711
     50 C          11.2317    1.4036   -2.6245 C.3     1  UNL1        0.0711
     51 O          11.3814    1.2784   -1.3189 O.3     1  UNL1       -0.3752
     52 C          12.5168    1.4723   -0.6702 C.3     1  UNL1        0.0711
     53 C          13.1162    2.8799   -0.7876 C.3     1  UNL1        0.0706
     54 O          14.2702    3.0112   -0.0729 O.3     1  UNL1       -0.3807
     55 C          14.1615    2.8053    1.2851 C.3     1  UNL1        0.0365
     56 C           7.0246   -3.1800    0.2837 C.ar    1  UNL1       -0.0341
     57 H           8.3332   -7.1438    2.2749 H       1  UNL1        0.1232
     58 H           4.5780   -4.5648    2.0605 H       1  UNL1        0.0648
     59 H           2.9363   -2.7792    2.6756 H       1  UNL1        0.1536
     60 H           1.2639   -3.2294    0.3731 H       1  UNL1        0.0689
     61 H          -1.9745   -1.6794   -3.0692 H       1  UNL1        0.0655
     62 H          -4.0799   -0.3256   -3.3965 H       1  UNL1        0.0637
     63 H          -5.5329    1.8067   -1.7731 H       1  UNL1        0.1564
     64 H          -7.9491    1.9598   -1.2425 H       1  UNL1        0.1564
     65 H          -8.5983   -1.6275   -0.2163 H       1  UNL1        0.0644
     66 H         -10.0712   -4.7449    0.4513 H       1  UNL1        0.1453
     67 H          -8.7696   -3.5170    0.3994 H       1  UNL1        0.1453
     68 H         -12.4970   -0.7866    1.1614 H       1  UNL1        0.0628
     69 H         -13.2470    1.1635    2.5110 H       1  UNL1        0.0238
     70 H         -14.3478    2.2103    1.5959 H       1  UNL1        0.0238
     71 H         -14.0267    0.4989    0.9797 H       1  UNL1        0.0238
     72 H         -12.6679    3.9049    1.5851 H       1  UNL1        0.0238
     73 H         -11.6177    2.7651    2.5289 H       1  UNL1        0.0238
     74 H         -10.9798    3.5026    1.0394 H       1  UNL1        0.0238
     75 H         -12.9672    1.5354   -1.3208 H       1  UNL1        0.0238
     76 H         -12.1850    3.0896   -1.0713 H       1  UNL1        0.0238
     77 H         -13.9446    2.8983   -0.5681 H       1  UNL1        0.0238
     78 H         -10.0716    2.3854   -0.3547 H       1  UNL1        0.0639
     79 H          -5.2972    1.0553    0.8682 H       1  UNL1        0.0624
     80 H          -4.4539    0.7583    3.1224 H       1  UNL1        0.0618
     81 H          -2.4362   -0.6119    3.5031 H       1  UNL1        0.0618
     82 H          -1.2571   -1.6517    1.6360 H       1  UNL1        0.0625
     83 H          -0.5117    0.5110   -0.3906 H       1  UNL1        0.0669
     84 H           1.3740    1.6271    0.7922 H       1  UNL1        0.0831
     85 H           4.6607   -0.7520    0.2407 H       1  UNL1        0.0644
     86 H           6.8761    0.3052    0.9909 H       1  UNL1        0.1491
     87 H           8.1565    2.1008    0.6493 H       1  UNL1        0.0485
     88 H           9.4428    0.9987    0.2707 H       1  UNL1        0.0485
     89 H           9.2361    3.0140   -1.1179 H       1  UNL1        0.0575
     90 H           7.5425    2.7200   -1.4252 H       1  UNL1        0.0575
     91 H           9.8815    1.2352   -4.2206 H       1  UNL1        0.0583
     92 H           9.7010   -0.0872   -3.0835 H       1  UNL1        0.0583
     93 H          11.5646    2.3835   -3.0013 H       1  UNL1        0.0583
     94 H          11.9595    0.6735   -3.1353 H       1  UNL1        0.0583
     95 H          12.2551    1.4249    0.4562 H       1  UNL1        0.0583
     96 H          13.3200    0.6948   -0.8275 H       1  UNL1        0.0583
     97 H          13.2993    3.0900   -1.8361 H       1  UNL1        0.0582
     98 H          12.3482    3.6254   -0.4310 H       1  UNL1        0.0582
     99 H          13.4292    3.5024    1.7220 H       1  UNL1        0.0524
    100 H          13.9396    1.7288    1.4592 H       1  UNL1        0.0524
    101 H          15.1288    3.0013    1.8088 H       1  UNL1        0.0524
    102 H           7.9935   -3.3615   -0.1040 H       1  UNL1        0.0637
@<TRIPOS>BOND
     1     1     2    3
     2     2     3    1
     3     3     4   ar
     4     4     5   ar
     5     5     6    1
     6     6     7    1
     7     7     8   ar
     8     8     9   ar
     9     9    10    1
    10    10    11    1
    11    11    12   ar
    12    12    13   ar
    13    13    14   ar
    14    14    15    1
    15    15    16   am
    16    16    17    2
    17    16    18   am
    18    18    19    1
    19    19    20   ar
    20    20    21   ar
    21    21    22    1
    22    22    23   am
    23    22    24    2
    24    21    25   ar
    25    25    26   ar
    26    26    27    1
    27    27    28    1
    28    27    29    1
    29    27    30    1
    30    26    31   ar
    31    14    32   ar
    32    32    33   ar
    33    33    34   ar
    34    34    35   ar
    35    35    36   ar
    36    36    37   ar
    37     9    38   ar
    38    38    39   ar
    39    39    40   ar
    40     5    41   ar
    41    41    42   ar
    42    42    43    1
    43    43    44    2
    44    43    45   am
    45    45    46    1
    46    46    47    1
    47    47    48    1
    48    48    49    1
    49    49    50    1
    50    50    51    1
    51    51    52    1
    52    52    53    1
    53    53    54    1
    54    54    55    1
    55    42    56   ar
    56    56     3   ar
    57    40     7   ar
    58    37    11   ar
    59    31    19   ar
    60    37    32   ar
    61     1    57    1
    62     4    58    1
    63     6    59    1
    64     8    60    1
    65    12    61    1
    66    13    62    1
    67    15    63    1
    68    18    64    1
    69    20    65    1
    70    23    66    1
    71    23    67    1
    72    25    68    1
    73    28    69    1
    74    28    70    1
    75    28    71    1
    76    29    72    1
    77    29    73    1
    78    29    74    1
    79    30    75    1
    80    30    76    1
    81    30    77    1
    82    31    78    1
    83    33    79    1
    84    34    80    1
    85    35    81    1
    86    36    82    1
    87    38    83    1
    88    39    84    1
    89    41    85    1
    90    45    86    1
    91    46    87    1
    92    46    88    1
    93    47    89    1
    94    47    90    1
    95    49    91    1
    96    49    92    1
    97    50    93    1
    98    50    94    1
    99    52    95    1
   100    52    96    1
   101    53    97    1
   102    53    98    1
   103    55    99    1
   104    55   100    1
   105    55   101    1
   106    56   102    1
