@<TRIPOS>MOLECULE
*****
 18 18 0 0 0
SMALL
GASTEIGER

@<TRIPOS>ATOM
      1 O          -0.1303    2.6900    1.0705 O.3     1  UNL1       -0.5030
      2 C           0.0437    1.4038    0.5941 C.ar    1  UNL1        0.1717
      3 C           1.2524    0.7432    0.5532 C.ar    1  UNL1        0.0611
      4 C           1.4078   -0.5424    0.0736 C.ar    1  UNL1        0.2833
      5 C           0.3157   -1.2378   -0.3999 C.ar    1  UNL1        0.0966
      6 C          -0.9250   -0.5958   -0.3719 C.ar    1  UNL1        0.3242
      7 C          -1.0558    0.6904    0.1124 C.ar    1  UNL1        0.2374
      8 O          -2.3486    1.2496    0.0981 O.3     1  UNL1       -0.4989
      9 N          -2.0119   -1.3318   -0.8598 N.pl3   1  UNL1        0.0838
     10 O          -3.3578   -1.3795   -0.6601 O.co2   1  UNL1       -0.5759
     11 O          -1.9247   -2.2370   -1.7177 O.2     1  UNL1        0.0416
     12 N           2.6987   -1.1442    0.0708 N.pl3   1  UNL1        0.0800
     13 O           2.7456   -2.4233   -0.4221 O.co2   1  UNL1       -0.5760
     14 O           3.6832   -0.5085    0.4982 O.2     1  UNL1        0.0414
     15 H          -0.4143    3.4891    0.5426 H       1  UNL1        0.2923
     16 H           2.1124    1.2689    0.9177 H       1  UNL1        0.0724
     17 H           0.4157   -2.2261   -0.7725 H       1  UNL1        0.0755
     18 H          -2.5065    2.0913    0.6729 H       1  UNL1        0.2925
@<TRIPOS>UNITY_ATOM_ATTR
9 1
charge 1
10 1
charge -1
12 1
charge 1
13 1
charge -1
@<TRIPOS>BOND
     1     1     2    1
     2     2     3   ar
     3     3     4   ar
     4     4     5   ar
     5     5     6   ar
     6     6     7   ar
     7     7     8    1
     8     6     9    1
     9     9    10    1
    10     9    11    2
    11     4    12    1
    12    12    13    1
    13    12    14    2
    14     7     2   ar
    15     1    15    1
    16     3    16    1
    17     5    17    1
    18     8    18    1
