
     RDKit          3D

 18 18  0  0  0  0  0  0  0  0999 V2000
   -0.1303    2.6900    1.0705 O   0  0  0  0  0  0  0  0  0  0  0  0
    0.0437    1.4038    0.5941 C   0  0  0  0  0  0  0  0  0  0  0  0
    1.2524    0.7432    0.5532 C   0  0  0  0  0  0  0  0  0  0  0  0
    1.4078   -0.5424    0.0736 C   0  0  0  0  0  0  0  0  0  0  0  0
    0.3157   -1.2378   -0.3999 C   0  0  0  0  0  0  0  0  0  0  0  0
   -0.9250   -0.5958   -0.3719 C   0  0  0  0  0  0  0  0  0  0  0  0
   -1.0558    0.6904    0.1124 C   0  0  0  0  0  0  0  0  0  0  0  0
   -2.3486    1.2496    0.0981 O   0  0  0  0  0  0  0  0  0  0  0  0
   -2.0119   -1.3318   -0.8598 N   0  0  0  0  0  4  0  0  0  0  0  0
   -3.3578   -1.3795   -0.6601 O   0  0  0  0  0  1  0  0  0  0  0  0
   -1.9247   -2.2370   -1.7177 O   0  0  0  0  0  0  0  0  0  0  0  0
    2.6987   -1.1442    0.0708 N   0  0  0  0  0  4  0  0  0  0  0  0
    2.7456   -2.4233   -0.4221 O   0  0  0  0  0  1  0  0  0  0  0  0
    3.6832   -0.5085    0.4982 O   0  0  0  0  0  0  0  0  0  0  0  0
   -0.4143    3.4891    0.5426 H   0  0  0  0  0  0  0  0  0  0  0  0
    2.1124    1.2689    0.9177 H   0  0  0  0  0  0  0  0  0  0  0  0
    0.4157   -2.2261   -0.7725 H   0  0  0  0  0  0  0  0  0  0  0  0
   -2.5065    2.0913    0.6729 H   0  0  0  0  0  0  0  0  0  0  0  0
  1  2  1  0
  2  3  2  0
  3  4  1  0
  4  5  2  0
  5  6  1  0
  6  7  2  0
  7  8  1  0
  6  9  1  0
  9 10  1  0
  9 11  2  0
  4 12  1  0
 12 13  1  0
 12 14  2  0
  7  2  1  0
  1 15  1  0
  3 16  1  0
  5 17  1  0
  8 18  1  0
M  CHG  4   9   1  10  -1  12   1  13  -1
M  END
$$$$
