
     RDKit          3D

 37 39  0  0  0  0  0  0  0  0999 V2000
   -0.3893   -1.9547    3.7663 N   0  0  0  0  0  0  0  0  0  0  0  0
   -0.1533   -1.4231    2.7491 C   0  0  0  0  0  0  0  0  0  0  0  0
    0.1165   -0.7750    1.4830 C   0  0  0  0  0  0  0  0  0  0  0  0
    1.1928   -1.0218    0.7632 N   0  0  0  0  0  0  0  0  0  0  0  0
    1.4443   -0.4206   -0.3993 C   0  0  0  0  0  0  0  0  0  0  0  0
    2.5893   -0.6804   -1.1734 N   0  0  0  0  0  0  0  0  0  0  0  0
    3.6184   -1.5504   -0.8324 C   0  0  0  0  0  0  0  0  0  0  0  0
    4.5637   -1.8658   -1.8297 C   0  0  0  0  0  0  0  0  0  0  0  0
    5.6174   -2.7022   -1.5906 C   0  0  0  0  0  0  0  0  0  0  0  0
    6.5425   -3.0215   -2.5358 F   0  0  0  0  0  0  0  0  0  0  0  0
    5.7560   -3.2534   -0.3291 C   0  0  0  0  0  0  0  0  0  0  0  0
    4.8631   -2.9786    0.6786 C   0  0  0  0  0  0  0  0  0  0  0  0
    4.9788   -3.5041    1.9116 F   0  0  0  0  0  0  0  0  0  0  0  0
    3.8008   -2.1217    0.4000 C   0  0  0  0  0  0  0  0  0  0  0  0
    0.5118    0.4959   -0.8362 N   0  0  0  0  0  0  0  0  0  0  0  0
   -0.5954    0.7787   -0.1396 C   0  0  0  0  0  0  0  0  0  0  0  0
   -1.5415    1.7309   -0.6061 N   0  0  0  0  0  0  0  0  0  0  0  0
   -2.7205    1.9941    0.1716 C   0  0  0  0  0  0  0  0  0  0  0  0
   -3.5862    0.7693    0.3455 C   0  0  0  0  0  0  0  0  0  0  0  0
   -4.8726    1.3734    0.8658 C   0  0  0  0  0  0  0  0  0  0  0  0
   -5.0588    2.5122   -0.1419 C   0  0  0  0  0  0  0  0  0  0  0  0
   -3.6411    2.9904   -0.4399 C   0  0  0  0  0  0  0  0  0  0  0  0
   -0.7758    0.1256    1.0291 N   0  0  0  0  0  0  0  0  0  0  0  0
    2.6749   -0.1586   -2.1054 H   0  0  0  0  0  0  0  0  0  0  0  0
    4.4852   -1.4525   -2.8288 H   0  0  0  0  0  0  0  0  0  0  0  0
    6.6041   -3.9213   -0.1555 H   0  0  0  0  0  0  0  0  0  0  0  0
    3.1373   -1.9331    1.2238 H   0  0  0  0  0  0  0  0  0  0  0  0
   -1.3525    2.2165   -1.5078 H   0  0  0  0  0  0  0  0  0  0  0  0
   -2.4065    2.3141    1.1864 H   0  0  0  0  0  0  0  0  0  0  0  0
   -3.1537    0.0465    1.0623 H   0  0  0  0  0  0  0  0  0  0  0  0
   -3.7418    0.2937   -0.6592 H   0  0  0  0  0  0  0  0  0  0  0  0
   -5.7144    0.6638    0.8326 H   0  0  0  0  0  0  0  0  0  0  0  0
   -4.6572    1.7654    1.8837 H   0  0  0  0  0  0  0  0  0  0  0  0
   -5.4870    2.0329   -1.0572 H   0  0  0  0  0  0  0  0  0  0  0  0
   -5.7063    3.3019    0.2369 H   0  0  0  0  0  0  0  0  0  0  0  0
   -3.4838    3.9736    0.0938 H   0  0  0  0  0  0  0  0  0  0  0  0
   -3.4593    3.1156   -1.5154 H   0  0  0  0  0  0  0  0  0  0  0  0
  1  2  3  0
  2  3  1  0
  3  4  2  0
  4  5  1  0
  5  6  1  0
  6  7  1  0
  7  8  2  0
  8  9  1  0
  9 10  1  0
  9 11  2  0
 11 12  1  0
 12 13  1  0
 12 14  2  0
  5 15  2  0
 15 16  1  0
 16 17  1  0
 17 18  1  0
 18 19  1  0
 19 20  1  0
 20 21  1  0
 21 22  1  0
 16 23  2  0
 23  3  1  0
 14  7  1  0
 22 18  1  0
  6 24  1  0
  8 25  1  0
 11 26  1  0
 14 27  1  0
 17 28  1  0
 18 29  1  0
 19 30  1  0
 19 31  1  0
 20 32  1  0
 20 33  1  0
 21 34  1  0
 21 35  1  0
 22 36  1  0
 22 37  1  0
M  END
$$$$
