@<TRIPOS>MOLECULE
*****
 37 39 0 0 0
SMALL
GASTEIGER

@<TRIPOS>ATOM
      1 N          -0.3893   -1.9547    3.7663 N.1     1  UNL1       -0.1876
      2 C          -0.1533   -1.4231    2.7491 C.1     1  UNL1        0.1401
      3 C           0.1165   -0.7750    1.4830 C.ar    1  UNL1        0.2378
      4 N           1.1928   -1.0218    0.7632 N.ar    1  UNL1       -0.1849
      5 C           1.4443   -0.4206   -0.3993 C.ar    1  UNL1        0.2249
      6 N           2.5893   -0.6804   -1.1734 N.pl3   1  UNL1       -0.2833
      7 C           3.6184   -1.5504   -0.8324 C.ar    1  UNL1        0.0390
      8 C           4.5637   -1.8658   -1.8297 C.ar    1  UNL1       -0.0050
      9 C           5.6174   -2.7022   -1.5906 C.ar    1  UNL1        0.1279
     10 F           6.5425   -3.0215   -2.5358 F       1  UNL1       -0.2053
     11 C           5.7560   -3.2534   -0.3291 C.ar    1  UNL1        0.0089
     12 C           4.8631   -2.9786    0.6786 C.ar    1  UNL1        0.1279
     13 F           4.9788   -3.5041    1.9116 F       1  UNL1       -0.2053
     14 C           3.8008   -2.1217    0.4000 C.ar    1  UNL1       -0.0050
     15 N           0.5118    0.4959   -0.8362 N.ar    1  UNL1       -0.1808
     16 C          -0.5954    0.7787   -0.1396 C.ar    1  UNL1        0.2208
     17 N          -1.5415    1.7309   -0.6061 N.pl3   1  UNL1       -0.3105
     18 C          -2.7205    1.9941    0.1716 C.3     1  UNL1        0.0233
     19 C          -3.5862    0.7693    0.3455 C.3     1  UNL1       -0.0345
     20 C          -4.8726    1.3734    0.8658 C.3     1  UNL1       -0.0513
     21 C          -5.0588    2.5122   -0.1419 C.3     1  UNL1       -0.0513
     22 C          -3.6411    2.9904   -0.4399 C.3     1  UNL1       -0.0345
     23 N          -0.7758    0.1256    1.0291 N.ar    1  UNL1       -0.1852
     24 H           2.6749   -0.1586   -2.1054 H       1  UNL1        0.1550
     25 H           4.4852   -1.4525   -2.8288 H       1  UNL1        0.0665
     26 H           6.6041   -3.9213   -0.1555 H       1  UNL1        0.0675
     27 H           3.1373   -1.9331    1.2238 H       1  UNL1        0.0665
     28 H          -1.3525    2.2165   -1.5078 H       1  UNL1        0.1492
     29 H          -2.4065    2.3141    1.1864 H       1  UNL1        0.0498
     30 H          -3.1537    0.0465    1.0623 H       1  UNL1        0.0283
     31 H          -3.7418    0.2937   -0.6592 H       1  UNL1        0.0283
     32 H          -5.7144    0.6638    0.8326 H       1  UNL1        0.0266
     33 H          -4.6572    1.7654    1.8837 H       1  UNL1        0.0266
     34 H          -5.4870    2.0329   -1.0572 H       1  UNL1        0.0266
     35 H          -5.7063    3.3019    0.2369 H       1  UNL1        0.0266
     36 H          -3.4838    3.9736    0.0938 H       1  UNL1        0.0283
     37 H          -3.4593    3.1156   -1.5154 H       1  UNL1        0.0283
@<TRIPOS>BOND
     1     1     2    3
     2     2     3    1
     3     3     4   ar
     4     4     5   ar
     5     5     6    1
     6     6     7    1
     7     7     8   ar
     8     8     9   ar
     9     9    10    1
    10     9    11   ar
    11    11    12   ar
    12    12    13    1
    13    12    14   ar
    14     5    15   ar
    15    15    16   ar
    16    16    17    1
    17    17    18    1
    18    18    19    1
    19    19    20    1
    20    20    21    1
    21    21    22    1
    22    16    23   ar
    23    23     3   ar
    24    14     7   ar
    25    22    18    1
    26     6    24    1
    27     8    25    1
    28    11    26    1
    29    14    27    1
    30    17    28    1
    31    18    29    1
    32    19    30    1
    33    19    31    1
    34    20    32    1
    35    20    33    1
    36    21    34    1
    37    21    35    1
    38    22    36    1
    39    22    37    1
