
     RDKit          3D

 43 43  0  0  0  0  0  0  0  0999 V2000
   -3.3077   -1.4926   -0.5380 C   0  0  0  0  0  0  0  0  0  0  0  0
   -3.2204    0.0027   -0.8061 C   0  0  0  0  0  0  0  0  0  0  0  0
   -3.9205    0.6927    0.3377 C   0  0  0  0  0  0  0  0  0  0  0  0
   -4.0245    0.2719   -2.0616 C   0  0  0  0  0  0  0  0  0  0  0  0
   -1.9170    0.4455   -1.0182 O   0  0  0  0  0  0  0  0  0  0  0  0
   -0.8791    0.3346   -0.0994 C   0  0  0  0  0  0  0  0  0  0  0  0
   -1.1298   -0.1955    0.9855 O   0  0  0  0  0  0  0  0  0  0  0  0
    0.4383    0.8112   -0.3822 N   0  0  0  0  0  0  0  0  0  0  0  0
    1.5496    0.7271    0.4908 C   0  0  0  0  0  0  0  0  0  0  0  0
    1.7441    1.8818    1.4297 C   0  0  0  0  0  0  0  0  0  0  0  0
    1.9316    3.1309    0.6137 C   0  0  0  0  0  0  0  0  0  0  0  0
    1.9092    3.0892   -0.6356 O   0  0  0  0  0  0  0  0  0  0  0  0
    2.1399    4.3977    1.2249 N   0  0  0  0  0  0  0  0  0  0  0  0
    2.3080    5.5203    0.4692 O   0  0  0  0  0  0  0  0  0  0  0  0
    1.7497   -0.6009    1.1936 C   0  0  0  0  0  0  0  0  0  0  0  0
    1.9854   -1.7166    0.2552 C   0  0  0  0  0  0  0  0  0  0  0  0
    1.0073   -2.5452   -0.2461 C   0  0  0  0  0  0  0  0  0  0  0  0
    1.3240   -3.5665   -1.1388 C   0  0  0  0  0  0  0  0  0  0  0  0
    2.6369   -3.7306   -1.5098 C   0  0  0  0  0  0  0  0  0  0  0  0
    3.6127   -2.9049   -1.0102 C   0  0  0  0  0  0  0  0  0  0  0  0
    3.3173   -1.8955   -0.1312 C   0  0  0  0  0  0  0  0  0  0  0  0
   -3.3278   -2.0450   -1.5222 H   0  0  0  0  0  0  0  0  0  0  0  0
   -2.5181   -1.8622    0.1149 H   0  0  0  0  0  0  0  0  0  0  0  0
   -4.2873   -1.6918   -0.0526 H   0  0  0  0  0  0  0  0  0  0  0  0
   -3.7166    1.7655    0.4041 H   0  0  0  0  0  0  0  0  0  0  0  0
   -5.0134    0.5837    0.1548 H   0  0  0  0  0  0  0  0  0  0  0  0
   -3.7088    0.1370    1.2851 H   0  0  0  0  0  0  0  0  0  0  0  0
   -4.5963    1.2114   -1.9295 H   0  0  0  0  0  0  0  0  0  0  0  0
   -3.3854    0.3918   -2.9595 H   0  0  0  0  0  0  0  0  0  0  0  0
   -4.7384   -0.5714   -2.2812 H   0  0  0  0  0  0  0  0  0  0  0  0
    0.5221    1.2568   -1.3462 H   0  0  0  0  0  0  0  0  0  0  0  0
    2.4714    0.7480   -0.2056 H   0  0  0  0  0  0  0  0  0  0  0  0
    0.9533    1.9903    2.1679 H   0  0  0  0  0  0  0  0  0  0  0  0
    2.7282    1.7250    1.9387 H   0  0  0  0  0  0  0  0  0  0  0  0
    2.1617    4.4540    2.2534 H   0  0  0  0  0  0  0  0  0  0  0  0
    1.4845    6.0674    0.4449 H   0  0  0  0  0  0  0  0  0  0  0  0
    2.6451   -0.4999    1.8353 H   0  0  0  0  0  0  0  0  0  0  0  0
    0.9127   -0.8839    1.8543 H   0  0  0  0  0  0  0  0  0  0  0  0
   -0.0109   -2.4207    0.0480 H   0  0  0  0  0  0  0  0  0  0  0  0
    0.5171   -4.1815   -1.4965 H   0  0  0  0  0  0  0  0  0  0  0  0
    2.9121   -4.5029   -2.1914 H   0  0  0  0  0  0  0  0  0  0  0  0
    4.6342   -3.0629   -1.3236 H   0  0  0  0  0  0  0  0  0  0  0  0
    4.1055   -1.2658    0.2419 H   0  0  0  0  0  0  0  0  0  0  0  0
  1  2  1  0
  2  3  1  0
  2  4  1  0
  2  5  1  0
  5  6  1  0
  6  7  2  0
  6  8  1  0
  8  9  1  0
  9 10  1  0
 10 11  1  0
 11 12  2  0
 11 13  1  0
 13 14  1  0
  9 15  1  0
 15 16  1  0
 16 17  2  0
 17 18  1  0
 18 19  2  0
 19 20  1  0
 20 21  2  0
 21 16  1  0
  1 22  1  0
  1 23  1  0
  1 24  1  0
  3 25  1  0
  3 26  1  0
  3 27  1  0
  4 28  1  0
  4 29  1  0
  4 30  1  0
  8 31  1  0
  9 32  1  0
 10 33  1  0
 10 34  1  0
 13 35  1  0
 14 36  1  0
 15 37  1  0
 15 38  1  0
 17 39  1  0
 18 40  1  0
 19 41  1  0
 20 42  1  0
 21 43  1  0
M  END
$$$$
