@<TRIPOS>MOLECULE
*****
 43 43 0 0 0
SMALL
GASTEIGER

@<TRIPOS>ATOM
      1 C          -3.3077   -1.4926   -0.5380 C.3     1  UNL1       -0.0253
      2 C          -3.2204    0.0027   -0.8061 C.3     1  UNL1        0.1068
      3 C          -3.9205    0.6927    0.3377 C.3     1  UNL1       -0.0253
      4 C          -4.0245    0.2719   -2.0616 C.3     1  UNL1       -0.0253
      5 O          -1.9170    0.4455   -1.0182 O.3     1  UNL1       -0.4447
      6 C          -0.8791    0.3346   -0.0994 C.2     1  UNL1        0.4010
      7 O          -1.1298   -0.1955    0.9855 O.2     1  UNL1       -0.2265
      8 N           0.4383    0.8112   -0.3822 N.am    1  UNL1       -0.2775
      9 C           1.5496    0.7271    0.4908 C.3     1  UNL1        0.0385
     10 C           1.7441    1.8818    1.4297 C.3     1  UNL1        0.0447
     11 C           1.9316    3.1309    0.6137 C.2     1  UNL1        0.2372
     12 O           1.9092    3.0892   -0.6356 O.2     1  UNL1       -0.2737
     13 N           2.1399    4.3977    1.2249 N.am    1  UNL1       -0.1974
     14 O           2.3080    5.5203    0.4692 O.3     1  UNL1       -0.2952
     15 C           1.7497   -0.6009    1.1936 C.3     1  UNL1       -0.0086
     16 C           1.9854   -1.7166    0.2552 C.ar    1  UNL1       -0.0456
     17 C           1.0073   -2.5452   -0.2461 C.ar    1  UNL1       -0.0585
     18 C           1.3240   -3.5665   -1.1388 C.ar    1  UNL1       -0.0615
     19 C           2.6369   -3.7306   -1.5098 C.ar    1  UNL1       -0.0617
     20 C           3.6127   -2.9049   -1.0102 C.ar    1  UNL1       -0.0615
     21 C           3.3173   -1.8955   -0.1312 C.ar    1  UNL1       -0.0585
     22 H          -3.3278   -2.0450   -1.5222 H       1  UNL1        0.0268
     23 H          -2.5181   -1.8622    0.1149 H       1  UNL1        0.0268
     24 H          -4.2873   -1.6918   -0.0526 H       1  UNL1        0.0268
     25 H          -3.7166    1.7655    0.4041 H       1  UNL1        0.0268
     26 H          -5.0134    0.5837    0.1548 H       1  UNL1        0.0268
     27 H          -3.7088    0.1370    1.2851 H       1  UNL1        0.0268
     28 H          -4.5963    1.2114   -1.9295 H       1  UNL1        0.0268
     29 H          -3.3854    0.3918   -2.9595 H       1  UNL1        0.0268
     30 H          -4.7384   -0.5714   -2.2812 H       1  UNL1        0.0268
     31 H           0.5221    1.2568   -1.3462 H       1  UNL1        0.1523
     32 H           2.4714    0.7480   -0.2056 H       1  UNL1        0.0507
     33 H           0.9533    1.9903    2.1679 H       1  UNL1        0.0377
     34 H           2.7282    1.7250    1.9387 H       1  UNL1        0.0377
     35 H           2.1617    4.4540    2.2534 H       1  UNL1        0.1822
     36 H           1.4845    6.0674    0.4449 H       1  UNL1        0.2414
     37 H           2.6451   -0.4999    1.8353 H       1  UNL1        0.0331
     38 H           0.9127   -0.8839    1.8543 H       1  UNL1        0.0331
     39 H          -0.0109   -2.4207    0.0480 H       1  UNL1        0.0620
     40 H           0.5171   -4.1815   -1.4965 H       1  UNL1        0.0618
     41 H           2.9121   -4.5029   -2.1914 H       1  UNL1        0.0618
     42 H           4.6342   -3.0629   -1.3236 H       1  UNL1        0.0618
     43 H           4.1055   -1.2658    0.2419 H       1  UNL1        0.0620
@<TRIPOS>BOND
     1     1     2    1
     2     2     3    1
     3     2     4    1
     4     2     5    1
     5     5     6    1
     6     6     7    2
     7     6     8   am
     8     8     9    1
     9     9    10    1
    10    10    11    1
    11    11    12    2
    12    11    13   am
    13    13    14    1
    14     9    15    1
    15    15    16    1
    16    16    17   ar
    17    17    18   ar
    18    18    19   ar
    19    19    20   ar
    20    20    21   ar
    21    21    16   ar
    22     1    22    1
    23     1    23    1
    24     1    24    1
    25     3    25    1
    26     3    26    1
    27     3    27    1
    28     4    28    1
    29     4    29    1
    30     4    30    1
    31     8    31    1
    32     9    32    1
    33    10    33    1
    34    10    34    1
    35    13    35    1
    36    14    36    1
    37    15    37    1
    38    15    38    1
    39    17    39    1
    40    18    40    1
    41    19    41    1
    42    20    42    1
    43    21    43    1
