@<TRIPOS>MOLECULE
*****
 42 42 0 0 0
SMALL
GASTEIGER

@<TRIPOS>ATOM
      1 C          -2.5874   -0.8581   -1.2549 C.3     1  UNL1        0.0000
      2 C          -3.6038   -1.1876   -0.2026 C.3     1  UNL1        0.0000
      3 C          -4.0403   -0.0252    0.6255 C.3     1  UNL1        0.0000
      4 C          -4.6752    1.1004   -0.1227 C.3     1  UNL1        0.0000
      5 C          -2.9397    0.4634    1.5590 C.3     1  UNL1        0.0000
      6 N          -1.3747   -0.3162   -0.6898 N.2     1  UNL1        0.0000
      7 C          -0.4696   -1.0145   -0.0977 C.2     1  UNL1        0.0000
      8 O          -0.5689   -2.3894    0.0615 O.2     1  UNL1        0.0000
      9 C           0.7627   -0.3085    0.4525 C.3     1  UNL1        0.0000
     10 N           1.9168   -0.8068   -0.1491 N.2     1  UNL1        0.0000
     11 C           3.1092   -0.6030   -0.0232 C.2     1  UNL1        0.0000
     12 O           3.3001   -1.5422   -1.0139 O.2     1  UNL1        0.0000
     13 C           4.2475    0.0563    0.5803 C.ar    1  UNL1        0.0000
     14 C           4.1981    1.0107    1.5695 C.ar    1  UNL1        0.0000
     15 CL          2.6762    1.5334    2.2123 Cl      1  UNL1        0.0000
     16 C           5.2846    1.6283    2.1324 C.ar    1  UNL1        0.0000
     17 C           6.5002    1.2210    1.6278 C.ar    1  UNL1        0.0000
     18 C           6.6852    0.2839    0.6471 C.ar    1  UNL1        0.0000
     19 CL          8.2535   -0.1851    0.0543 Cl      1  UNL1        0.0000
     20 C           5.5283   -0.2553    0.1700 C.ar    1  UNL1        0.0000
     21 B          -3.1460    0.1096   -2.3710 B       1  UNL1        0.0000
     22 O          -2.5032    1.4154   -2.5769 O.3     1  UNL1        0.0000
     23 O          -3.8423   -0.4188   -3.5642 O.3     1  UNL1        0.0000
     24 H          -2.3380   -1.8019   -1.7827 H       1  UNL1        0.0000
     25 H          -4.4718   -1.6889   -0.6257 H       1  UNL1        0.0000
     26 H          -3.1333   -1.9118    0.4950 H       1  UNL1        0.0000
     27 H          -4.8213   -0.4372    1.3173 H       1  UNL1        0.0000
     28 H          -5.4800    1.5662    0.5198 H       1  UNL1        0.0000
     29 H          -3.9904    1.9486   -0.3265 H       1  UNL1        0.0000
     30 H          -5.2080    0.7141   -0.9972 H       1  UNL1        0.0000
     31 H          -2.4879   -0.4136    2.0171 H       1  UNL1        0.0000
     32 H          -2.2328    1.1337    1.0481 H       1  UNL1        0.0000
     33 H          -3.4433    1.0546    2.3503 H       1  UNL1        0.0000
     34 H          -1.2204   -2.9389   -0.5209 H       1  UNL1        0.0000
     35 H           0.6369    0.7957    0.2547 H       1  UNL1        0.0000
     36 H           0.7056   -0.5140    1.5525 H       1  UNL1        0.0000
     37 H           2.9520   -1.5214   -1.9791 H       1  UNL1        0.0000
     38 H           5.2448    2.3699    2.9012 H       1  UNL1        0.0000
     39 H           7.4078    1.6681    2.0269 H       1  UNL1        0.0000
     40 H           5.6100   -1.0164   -0.6218 H       1  UNL1        0.0000
     41 H          -2.0691    1.7661   -1.7685 H       1  UNL1        0.0000
     42 H          -4.3722    0.3154   -3.9388 H       1  UNL1        0.0000
@<TRIPOS>BOND
     1     1     2    1
     2     2     3    1
     3     3     4    1
     4     3     5    1
     5     1     6    1
     6     6     7    2
     7     7     8    1
     8     7     9    1
     9     9    10    1
    10    10    11    2
    11    11    12    1
    12    11    13    1
    13    13    14   ar
    14    14    15    1
    15    14    16   ar
    16    16    17   ar
    17    17    18   ar
    18    18    19    1
    19    18    20   ar
    20     1    21    1
    21    21    22    1
    22    21    23    1
    23    20    13   ar
    24     1    24    1
    25     2    25    1
    26     2    26    1
    27     3    27    1
    28     4    28    1
    29     4    29    1
    30     4    30    1
    31     5    31    1
    32     5    32    1
    33     5    33    1
    34     8    34    1
    35     9    35    1
    36     9    36    1
    37    12    37    1
    38    16    38    1
    39    17    39    1
    40    20    40    1
    41    22    41    1
    42    23    42    1
