@<TRIPOS>MOLECULE
*****
 51 54 0 0 0
SMALL
GASTEIGER

@<TRIPOS>ATOM
      1 C           5.7667   -0.6356    0.0672 C.3     1  UNL1       -0.0461
      2 C           4.3965   -0.7757   -0.4857 C.2     1  UNL1       -0.0801
      3 C           3.4027    0.0079   -0.1317 C.2     1  UNL1       -0.0030
      4 C           3.5371    1.0981    0.8405 C.2     1  UNL1        0.1598
      5 O           4.5924    1.6038    1.3067 O.2     1  UNL1       -0.2924
      6 C           2.1598    1.5676    1.2373 C.3     1  UNL1        0.0140
      7 C           1.3121    0.4581    0.7419 C.3     1  UNL1       -0.0214
      8 C          -0.0821    0.8482    0.3208 C.3     1  UNL1       -0.0331
      9 C          -0.8661    1.6006    1.3228 C.3     1  UNL1       -0.0459
     10 C          -2.0531    0.9058    1.8913 C.3     1  UNL1       -0.0305
     11 C          -2.8407    0.1117    0.9389 C.2     1  UNL1       -0.0601
     12 C          -4.0641   -0.2540    1.2540 C.2     1  UNL1       -0.0194
     13 C          -4.8791   -1.0521    0.3190 C.2     1  UNL1        0.1561
     14 O          -6.0155   -1.4500    0.6410 O.2     1  UNL1       -0.2927
     15 C          -4.2955   -1.3580   -1.0064 C.3     1  UNL1        0.0107
     16 C          -2.8010   -1.5916   -0.7946 C.3     1  UNL1       -0.0367
     17 C          -2.2055   -0.2581   -0.3676 C.3     1  UNL1       -0.0072
     18 C          -2.4908    0.7412   -1.4375 C.3     1  UNL1       -0.0556
     19 C          -0.7576   -0.4477   -0.0664 C.3     1  UNL1       -0.0288
     20 C          -0.0539   -1.1788   -1.1538 C.3     1  UNL1       -0.0484
     21 C           1.4352   -1.2953   -0.9308 C.3     1  UNL1       -0.0430
     22 C           2.0056    0.0241   -0.5599 C.3     1  UNL1       -0.0006
     23 C           1.8257    1.0547   -1.6519 C.3     1  UNL1       -0.0552
     24 H           6.2294    0.3196   -0.2440 H       1  UNL1        0.0272
     25 H           6.3826   -1.4823   -0.3185 H       1  UNL1        0.0272
     26 H           5.7119   -0.7019    1.1865 H       1  UNL1        0.0272
     27 H           4.1566   -1.5549   -1.2262 H       1  UNL1        0.0573
     28 H           2.1417    1.5671    2.3596 H       1  UNL1        0.0348
     29 H           1.9117    2.5366    0.8101 H       1  UNL1        0.0348
     30 H           1.2528   -0.4064    1.4018 H       1  UNL1        0.0316
     31 H           0.0560    1.5157   -0.5710 H       1  UNL1        0.0307
     32 H          -0.2087    1.8745    2.1847 H       1  UNL1        0.0271
     33 H          -1.2396    2.5880    0.9154 H       1  UNL1        0.0271
     34 H          -2.7169    1.6848    2.3551 H       1  UNL1        0.0310
     35 H          -1.7277    0.2879    2.7799 H       1  UNL1        0.0310
     36 H          -4.4758    0.0361    2.2130 H       1  UNL1        0.0652
     37 H          -4.7558   -2.2942   -1.4324 H       1  UNL1        0.0345
     38 H          -4.4822   -0.5063   -1.6876 H       1  UNL1        0.0345
     39 H          -2.3994   -1.9212   -1.7554 H       1  UNL1        0.0278
     40 H          -2.7132   -2.3377    0.0165 H       1  UNL1        0.0278
     41 H          -1.7451    1.5364   -1.5349 H       1  UNL1        0.0238
     42 H          -2.5813    0.2613   -2.4522 H       1  UNL1        0.0238
     43 H          -3.4937    1.2261   -1.2609 H       1  UNL1        0.0238
     44 H          -0.7052   -1.0954    0.8573 H       1  UNL1        0.0312
     45 H          -0.2717   -0.7947   -2.1721 H       1  UNL1        0.0269
     46 H          -0.4520   -2.2348   -1.1551 H       1  UNL1        0.0269
     47 H           1.8784   -1.6724   -1.8776 H       1  UNL1        0.0274
     48 H           1.6754   -2.0325   -0.1529 H       1  UNL1        0.0274
     49 H           1.8736    2.0874   -1.2927 H       1  UNL1        0.0238
     50 H           0.9514    0.8556   -2.2782 H       1  UNL1        0.0238
     51 H           2.7180    0.9330   -2.3344 H       1  UNL1        0.0238
@<TRIPOS>BOND
     1     1     2    1
     2     2     3    2
     3     3     4    1
     4     4     5    2
     5     4     6    1
     6     6     7    1
     7     7     8    1
     8     8     9    1
     9     9    10    1
    10    10    11    1
    11    11    12    2
    12    12    13    1
    13    13    14    2
    14    13    15    1
    15    15    16    1
    16    16    17    1
    17    17    18    1
    18    17    19    1
    19    19    20    1
    20    20    21    1
    21    21    22    1
    22    22    23    1
    23    22     3    1
    24    22     7    1
    25    19     8    1
    26    17    11    1
    27     1    24    1
    28     1    25    1
    29     1    26    1
    30     2    27    1
    31     6    28    1
    32     6    29    1
    33     7    30    1
    34     8    31    1
    35     9    32    1
    36     9    33    1
    37    10    34    1
    38    10    35    1
    39    12    36    1
    40    15    37    1
    41    15    38    1
    42    16    39    1
    43    16    40    1
    44    18    41    1
    45    18    42    1
    46    18    43    1
    47    19    44    1
    48    20    45    1
    49    20    46    1
    50    21    47    1
    51    21    48    1
    52    23    49    1
    53    23    50    1
    54    23    51    1
