
     RDKit          3D

 51 54  0  0  0  0  0  0  0  0999 V2000
    5.7667   -0.6356    0.0672 C   0  0  0  0  0  0  0  0  0  0  0  0
    4.3965   -0.7757   -0.4857 C   0  0  0  0  0  0  0  0  0  0  0  0
    3.4027    0.0079   -0.1317 C   0  0  0  0  0  0  0  0  0  0  0  0
    3.5371    1.0981    0.8405 C   0  0  0  0  0  0  0  0  0  0  0  0
    4.5924    1.6038    1.3067 O   0  0  0  0  0  0  0  0  0  0  0  0
    2.1598    1.5676    1.2373 C   0  0  0  0  0  0  0  0  0  0  0  0
    1.3121    0.4581    0.7419 C   0  0  1  0  0  0  0  0  0  0  0  0
   -0.0821    0.8482    0.3208 C   0  0  2  0  0  0  0  0  0  0  0  0
   -0.8661    1.6006    1.3228 C   0  0  0  0  0  0  0  0  0  0  0  0
   -2.0531    0.9058    1.8913 C   0  0  0  0  0  0  0  0  0  0  0  0
   -2.8407    0.1117    0.9389 C   0  0  0  0  0  0  0  0  0  0  0  0
   -4.0641   -0.2540    1.2540 C   0  0  0  0  0  0  0  0  0  0  0  0
   -4.8791   -1.0521    0.3190 C   0  0  0  0  0  0  0  0  0  0  0  0
   -6.0155   -1.4500    0.6410 O   0  0  0  0  0  0  0  0  0  0  0  0
   -4.2955   -1.3580   -1.0064 C   0  0  0  0  0  0  0  0  0  0  0  0
   -2.8010   -1.5916   -0.7946 C   0  0  0  0  0  0  0  0  0  0  0  0
   -2.2055   -0.2581   -0.3676 C   0  0  1  0  0  0  0  0  0  0  0  0
   -2.4908    0.7412   -1.4375 C   0  0  0  0  0  0  0  0  0  0  0  0
   -0.7576   -0.4477   -0.0664 C   0  0  1  0  0  0  0  0  0  0  0  0
   -0.0539   -1.1788   -1.1538 C   0  0  0  0  0  0  0  0  0  0  0  0
    1.4352   -1.2953   -0.9308 C   0  0  0  0  0  0  0  0  0  0  0  0
    2.0056    0.0241   -0.5599 C   0  0  2  0  0  0  0  0  0  0  0  0
    1.8257    1.0547   -1.6519 C   0  0  0  0  0  0  0  0  0  0  0  0
    6.2294    0.3196   -0.2440 H   0  0  0  0  0  0  0  0  0  0  0  0
    6.3826   -1.4823   -0.3185 H   0  0  0  0  0  0  0  0  0  0  0  0
    5.7119   -0.7019    1.1865 H   0  0  0  0  0  0  0  0  0  0  0  0
    4.1566   -1.5549   -1.2262 H   0  0  0  0  0  0  0  0  0  0  0  0
    2.1417    1.5671    2.3596 H   0  0  0  0  0  0  0  0  0  0  0  0
    1.9117    2.5366    0.8101 H   0  0  0  0  0  0  0  0  0  0  0  0
    1.2528   -0.4064    1.4018 H   0  0  0  0  0  0  0  0  0  0  0  0
    0.0560    1.5157   -0.5710 H   0  0  0  0  0  0  0  0  0  0  0  0
   -0.2087    1.8745    2.1847 H   0  0  0  0  0  0  0  0  0  0  0  0
   -1.2396    2.5880    0.9154 H   0  0  0  0  0  0  0  0  0  0  0  0
   -2.7169    1.6848    2.3551 H   0  0  0  0  0  0  0  0  0  0  0  0
   -1.7277    0.2879    2.7799 H   0  0  0  0  0  0  0  0  0  0  0  0
   -4.4758    0.0361    2.2130 H   0  0  0  0  0  0  0  0  0  0  0  0
   -4.7558   -2.2942   -1.4324 H   0  0  0  0  0  0  0  0  0  0  0  0
   -4.4822   -0.5063   -1.6876 H   0  0  0  0  0  0  0  0  0  0  0  0
   -2.3994   -1.9212   -1.7554 H   0  0  0  0  0  0  0  0  0  0  0  0
   -2.7132   -2.3377    0.0165 H   0  0  0  0  0  0  0  0  0  0  0  0
   -1.7451    1.5364   -1.5349 H   0  0  0  0  0  0  0  0  0  0  0  0
   -2.5813    0.2613   -2.4522 H   0  0  0  0  0  0  0  0  0  0  0  0
   -3.4937    1.2261   -1.2609 H   0  0  0  0  0  0  0  0  0  0  0  0
   -0.7052   -1.0954    0.8573 H   0  0  0  0  0  0  0  0  0  0  0  0
   -0.2717   -0.7947   -2.1721 H   0  0  0  0  0  0  0  0  0  0  0  0
   -0.4520   -2.2348   -1.1551 H   0  0  0  0  0  0  0  0  0  0  0  0
    1.8784   -1.6724   -1.8776 H   0  0  0  0  0  0  0  0  0  0  0  0
    1.6754   -2.0325   -0.1529 H   0  0  0  0  0  0  0  0  0  0  0  0
    1.8736    2.0874   -1.2927 H   0  0  0  0  0  0  0  0  0  0  0  0
    0.9514    0.8556   -2.2782 H   0  0  0  0  0  0  0  0  0  0  0  0
    2.7180    0.9330   -2.3344 H   0  0  0  0  0  0  0  0  0  0  0  0
  1  2  1  0
  2  3  2  3
  3  4  1  0
  4  5  2  0
  4  6  1  0
  6  7  1  0
  7  8  1  0
  8  9  1  0
  9 10  1  0
 10 11  1  0
 11 12  2  0
 12 13  1  0
 13 14  2  0
 13 15  1  0
 15 16  1  0
 16 17  1  0
 17 18  1  6
 17 19  1  0
 19 20  1  0
 20 21  1  0
 21 22  1  0
 22 23  1  6
 22  3  1  0
 22  7  1  0
 19  8  1  0
 17 11  1  0
  1 24  1  0
  1 25  1  0
  1 26  1  0
  2 27  1  0
  6 28  1  0
  6 29  1  0
  7 30  1  1
  8 31  1  6
  9 32  1  0
  9 33  1  0
 10 34  1  0
 10 35  1  0
 12 36  1  0
 15 37  1  0
 15 38  1  0
 16 39  1  0
 16 40  1  0
 18 41  1  0
 18 42  1  0
 18 43  1  0
 19 44  1  1
 20 45  1  0
 20 46  1  0
 21 47  1  0
 21 48  1  0
 23 49  1  0
 23 50  1  0
 23 51  1  0
M  END
$$$$
