@<TRIPOS>MOLECULE
*****
 56 59 0 0 0
SMALL
GASTEIGER

@<TRIPOS>ATOM
      1 C          -0.7477   -0.6279    1.1316 C.3     1  UNL1       -0.0266
      2 C          -1.4238   -1.7943    1.7472 C.3     1  UNL1       -0.0462
      3 C          -2.8472   -1.2414    1.9056 C.3     1  UNL1       -0.0162
      4 C          -3.0042   -0.2330    0.7862 C.3     1  UNL1        0.1315
      5 O          -3.2193    1.0364    1.3176 O.3     1  UNL1       -0.3804
      6 C          -4.1419   -0.6672   -0.0728 C.2     1  UNL1        0.1902
      7 O          -4.4317   -1.6694   -0.7447 O.2     1  UNL1       -0.2919
      8 C          -5.3215    0.2425   -0.2724 C.3     1  UNL1        0.1052
      9 O          -5.1557    1.4554    0.4350 O.3     1  UNL1       -0.3874
     10 C          -1.6799   -0.1896    0.0542 C.3     1  UNL1        0.0093
     11 C          -1.6779   -1.0717   -1.1663 C.3     1  UNL1       -0.0562
     12 C          -1.2658    1.1895   -0.3709 C.3     1  UNL1       -0.0151
     13 C           0.1882    1.4432   -0.4493 C.3     1  UNL1        0.0907
     14 O           0.4867    1.6980   -1.7906 O.3     1  UNL1       -0.3886
     15 C           1.1269    0.5225    0.1887 C.3     1  UNL1        0.1492
     16 F           1.4348    0.9766    1.4859 F       1  UNL1       -0.2380
     17 C           0.5754   -0.8833    0.4741 C.3     1  UNL1       -0.0000
     18 C           1.4289   -1.6376    1.4388 C.3     1  UNL1       -0.0432
     19 C           2.8408   -1.7648    0.9692 C.3     1  UNL1       -0.0304
     20 C           3.2872   -0.3786    0.5887 C.2     1  UNL1       -0.0572
     21 C           4.3721    0.1080    1.2162 C.2     1  UNL1       -0.0194
     22 C           4.8386    1.4262    0.8889 C.2     1  UNL1        0.1561
     23 O           6.0428    1.6805    1.1281 O.2     1  UNL1       -0.2927
     24 C           3.7765    2.3107    0.2959 C.3     1  UNL1        0.0107
     25 C           3.2158    1.5097   -0.8555 C.3     1  UNL1       -0.0339
     26 C           2.4539    0.2929   -0.4547 C.3     1  UNL1        0.0263
     27 C           2.3505   -0.5881   -1.6914 C.3     1  UNL1       -0.0528
     28 H          -0.6181    0.1777    1.8591 H       1  UNL1        0.0311
     29 H          -0.9693   -2.0201    2.7258 H       1  UNL1        0.0269
     30 H          -1.4079   -2.6987    1.1224 H       1  UNL1        0.0269
     31 H          -3.5983   -2.0390    1.8937 H       1  UNL1        0.0297
     32 H          -2.8350   -0.6948    2.8937 H       1  UNL1        0.0297
     33 H          -3.6662    1.0421    2.1928 H       1  UNL1        0.2108
     34 H          -5.4884    0.5092   -1.3160 H       1  UNL1        0.0637
     35 H          -6.2648   -0.2488    0.0954 H       1  UNL1        0.0637
     36 H          -5.8833    2.0384    0.0901 H       1  UNL1        0.2100
     37 H          -1.6260   -2.1404   -0.9733 H       1  UNL1        0.0236
     38 H          -2.5595   -0.7590   -1.7968 H       1  UNL1        0.0236
     39 H          -0.8068   -0.7391   -1.8029 H       1  UNL1        0.0236
     40 H          -1.8000    1.3624   -1.3313 H       1  UNL1        0.0297
     41 H          -1.8075    1.8854    0.3281 H       1  UNL1        0.0297
     42 H           0.3450    2.4626    0.0229 H       1  UNL1        0.0625
     43 H           0.1293    2.5855   -2.0606 H       1  UNL1        0.2099
     44 H           0.5059   -1.4902   -0.4382 H       1  UNL1        0.0335
     45 H           1.3940   -1.2326    2.4708 H       1  UNL1        0.0272
     46 H           1.0135   -2.6603    1.5022 H       1  UNL1        0.0272
     47 H           3.0197   -2.5078    0.1948 H       1  UNL1        0.0310
     48 H           3.4293   -2.1288    1.8612 H       1  UNL1        0.0310
     49 H           4.8577   -0.5251    1.9546 H       1  UNL1        0.0652
     50 H           3.0327    2.6193    1.0347 H       1  UNL1        0.0345
     51 H           4.2008    3.2381   -0.1420 H       1  UNL1        0.0345
     52 H           2.7646    2.1391   -1.6342 H       1  UNL1        0.0279
     53 H           4.1337    1.0967   -1.3790 H       1  UNL1        0.0279
     54 H           2.2525   -1.6539   -1.4732 H       1  UNL1        0.0239
     55 H           1.4920   -0.3246   -2.3392 H       1  UNL1        0.0239
     56 H           3.2579   -0.4380   -2.3372 H       1  UNL1        0.0239
@<TRIPOS>BOND
     1     1     2    1
     2     2     3    1
     3     3     4    1
     4     4     5    1
     5     4     6    1
     6     6     7    2
     7     6     8    1
     8     8     9    1
     9     4    10    1
    10    10    11    1
    11    10    12    1
    12    12    13    1
    13    13    14    1
    14    13    15    1
    15    15    16    1
    16    15    17    1
    17    17    18    1
    18    18    19    1
    19    19    20    1
    20    20    21    2
    21    21    22    1
    22    22    23    2
    23    22    24    1
    24    24    25    1
    25    25    26    1
    26    26    27    1
    27    10     1    1
    28    26    15    1
    29    17     1    1
    30    26    20    1
    31     1    28    1
    32     2    29    1
    33     2    30    1
    34     3    31    1
    35     3    32    1
    36     5    33    1
    37     8    34    1
    38     8    35    1
    39     9    36    1
    40    11    37    1
    41    11    38    1
    42    11    39    1
    43    12    40    1
    44    12    41    1
    45    13    42    1
    46    14    43    1
    47    17    44    1
    48    18    45    1
    49    18    46    1
    50    19    47    1
    51    19    48    1
    52    21    49    1
    53    24    50    1
    54    24    51    1
    55    25    52    1
    56    25    53    1
    57    27    54    1
    58    27    55    1
    59    27    56    1
