@<TRIPOS>MOLECULE
*****
 41 44 0 0 0
SMALL
GASTEIGER

@<TRIPOS>ATOM
      1 F          -5.4655   -2.0448   -1.8283 F       1  UNL1       -0.2040
      2 C          -4.5178   -1.2287   -1.3313 C.ar    1  UNL1        0.1417
      3 C          -4.3651   -1.1002    0.0398 C.ar    1  UNL1       -0.0244
      4 C          -3.4044   -0.2718    0.5312 C.ar    1  UNL1       -0.0497
      5 C          -2.5506    0.4679   -0.2967 C.ar    1  UNL1        0.0040
      6 C          -1.5307    1.3504    0.2644 C.ar    1  UNL1        0.0968
      7 N          -1.6557    2.6144    0.6817 N.ar    1  UNL1       -0.2351
      8 C          -0.5065    3.1092    1.1415 C.ar    1  UNL1        0.0971
      9 N           0.4110    2.1295    1.0206 N.ar    1  UNL1       -0.3293
     10 C           1.7974    2.2004    1.3623 C.3     1  UNL1        0.0329
     11 C           2.7010    2.7785    0.3463 C.3     1  UNL1        0.0608
     12 C           2.7585    2.1326   -0.9858 C.3     1  UNL1        0.3918
     13 F           3.6900    2.8685   -1.7421 F       1  UNL1       -0.1707
     14 F           1.5557    2.1641   -1.6640 F       1  UNL1       -0.1707
     15 F           3.2331    0.8442   -0.9562 F       1  UNL1       -0.1707
     16 C          -0.1785    1.0427    0.4899 C.ar    1  UNL1        0.0778
     17 C           0.3904   -0.2506    0.2014 C.ar    1  UNL1        0.0172
     18 C           0.4613   -0.7191   -1.0845 C.ar    1  UNL1       -0.0477
     19 C           1.0023   -1.9738   -1.3774 C.ar    1  UNL1       -0.0182
     20 C           1.4760   -2.7576   -0.3487 C.ar    1  UNL1        0.1375
     21 N           2.0419   -3.9779   -0.2836 N.ar    1  UNL1       -0.2361
     22 C           2.3171   -4.2674    0.9980 C.ar    1  UNL1        0.0464
     23 C           1.9125   -3.1958    1.7655 C.ar    1  UNL1        0.0293
     24 N           1.4053   -2.2956    0.9124 N.ar    1  UNL1       -0.3060
     25 C           0.8746   -1.0686    1.1902 C.ar    1  UNL1        0.0204
     26 C          -2.7057    0.3374   -1.6345 C.ar    1  UNL1       -0.0313
     27 C          -3.6688   -0.4930   -2.1613 C.ar    1  UNL1        0.0767
     28 CL         -3.8844   -0.6767   -3.8792 Cl      1  UNL1       -0.0806
     29 H          -5.0047   -1.6537    0.7433 H       1  UNL1        0.0647
     30 H          -3.2520   -0.1432    1.5942 H       1  UNL1        0.0625
     31 H          -0.3210    4.1210    1.5468 H       1  UNL1        0.1029
     32 H           1.8741    2.8661    2.2742 H       1  UNL1        0.0495
     33 H           2.1228    1.1943    1.7296 H       1  UNL1        0.0495
     34 H           3.7497    2.7207    0.7691 H       1  UNL1        0.0369
     35 H           2.5107    3.8861    0.2902 H       1  UNL1        0.0369
     36 H           0.1105   -0.1472   -1.9178 H       1  UNL1        0.0626
     37 H           1.0717   -2.3694   -2.3760 H       1  UNL1        0.0654
     38 H           2.7838   -5.1982    1.3610 H       1  UNL1        0.0845
     39 H           2.0080   -3.1392    2.8538 H       1  UNL1        0.0829
     40 H           0.8316   -0.7371    2.2045 H       1  UNL1        0.0820
     41 H          -2.0796    0.8817   -2.3189 H       1  UNL1        0.0640
@<TRIPOS>BOND
     1     1     2    1
     2     2     3   ar
     3     3     4   ar
     4     4     5   ar
     5     5     6    1
     6     6     7   ar
     7     7     8   ar
     8     8     9   ar
     9     9    10    1
    10    10    11    1
    11    11    12    1
    12    12    13    1
    13    12    14    1
    14    12    15    1
    15     9    16   ar
    16    16    17    1
    17    17    18   ar
    18    18    19   ar
    19    19    20   ar
    20    20    21   ar
    21    21    22   ar
    22    22    23   ar
    23    23    24   ar
    24    24    25   ar
    25     5    26   ar
    26    26    27   ar
    27    27    28    1
    28    27     2   ar
    29    16     6   ar
    30    25    17   ar
    31    24    20   ar
    32     3    29    1
    33     4    30    1
    34     8    31    1
    35    10    32    1
    36    10    33    1
    37    11    34    1
    38    11    35    1
    39    18    36    1
    40    19    37    1
    41    22    38    1
    42    23    39    1
    43    25    40    1
    44    26    41    1
