
     RDKit          3D

 49 53  0  0  0  0  0  0  0  0999 V2000
   -0.6560   -0.0094    1.6632 C   0  0  0  0  0  0  0  0  0  0  0  0
   -0.7563    0.4903    0.3261 N   0  0  0  0  0  0  0  0  0  0  0  0
    0.2544    0.6529   -0.5404 C   0  0  0  0  0  0  0  0  0  0  0  0
    1.6767    0.3437   -0.2979 C   0  0  0  0  0  0  0  0  0  0  0  0
    2.4199   -0.4106   -1.1785 C   0  0  0  0  0  0  0  0  0  0  0  0
    3.7383   -0.7250   -0.9929 C   0  0  0  0  0  0  0  0  0  0  0  0
    4.3799   -0.2620    0.1494 C   0  0  0  0  0  0  0  0  0  0  0  0
    5.7984   -0.6222    0.3161 C   0  0  0  0  0  0  0  0  0  0  0  0
    6.5189   -0.2160    1.4071 C   0  0  0  0  0  0  0  0  0  0  0  0
    7.8179   -0.5825    1.5002 N   0  0  0  0  0  0  0  0  0  0  0  0
    8.3843   -1.3213    0.5525 C   0  0  0  0  0  0  0  0  0  0  0  0
    7.6662   -1.7252   -0.5334 C   0  0  0  0  0  0  0  0  0  0  0  0
    6.3886   -1.3702   -0.6338 N   0  0  0  0  0  0  0  0  0  0  0  0
    3.6731    0.4869    1.0407 C   0  0  0  0  0  0  0  0  0  0  0  0
    2.3320    0.7926    0.8273 C   0  0  0  0  0  0  0  0  0  0  0  0
   -0.2282    1.1455   -1.6902 N   0  0  0  0  0  0  0  0  0  0  0  0
   -1.5242    1.2784   -1.5159 N   0  0  0  0  0  0  0  0  0  0  0  0
   -1.8736    0.8734   -0.2600 C   0  0  0  0  0  0  0  0  0  0  0  0
   -3.2842    0.9155    0.1902 C   0  0  0  0  0  0  0  0  0  0  0  0
   -4.0469   -0.1888   -0.3828 C   0  0  0  0  0  0  0  0  0  0  0  0
   -5.0634    0.0642   -1.2737 C   0  0  0  0  0  0  0  0  0  0  0  0
   -5.8064   -0.9481   -1.8396 C   0  0  0  0  0  0  0  0  0  0  0  0
   -5.5471   -2.2704   -1.5229 C   0  0  0  0  0  0  0  0  0  0  0  0
   -6.5046   -3.5692   -2.2521 Cl  0  0  0  0  0  0  0  0  0  0  0  0
   -4.5350   -2.5577   -0.6336 C   0  0  0  0  0  0  0  0  0  0  0  0
   -3.8137   -1.5124   -0.0885 C   0  0  0  0  0  0  0  0  0  0  0  0
   -3.5629    1.3152    1.5938 C   0  0  0  0  0  0  0  0  0  0  0  0
   -3.2038    2.7472    1.1628 C   0  0  0  0  0  0  0  0  0  0  0  0
   -3.8205    2.3119   -0.1801 C   0  0  0  0  0  0  0  0  0  0  0  0
   -1.3832   -0.7520    1.9699 H   0  0  0  0  0  0  0  0  0  0  0  0
    0.3414   -0.5395    1.7436 H   0  0  0  0  0  0  0  0  0  0  0  0
   -0.5423    0.8149    2.4285 H   0  0  0  0  0  0  0  0  0  0  0  0
    1.9550   -0.8005   -2.0980 H   0  0  0  0  0  0  0  0  0  0  0  0
    4.2859   -1.3290   -1.7246 H   0  0  0  0  0  0  0  0  0  0  0  0
    6.0490    0.3864    2.1745 H   0  0  0  0  0  0  0  0  0  0  0  0
    9.4368   -1.6364    0.5966 H   0  0  0  0  0  0  0  0  0  0  0  0
    8.0812   -2.3331   -1.3415 H   0  0  0  0  0  0  0  0  0  0  0  0
    4.1476    0.8583    1.9341 H   0  0  0  0  0  0  0  0  0  0  0  0
    1.8194    1.3938    1.5740 H   0  0  0  0  0  0  0  0  0  0  0  0
   -5.2895    1.0770   -1.5399 H   0  0  0  0  0  0  0  0  0  0  0  0
   -6.6168   -0.7634   -2.5485 H   0  0  0  0  0  0  0  0  0  0  0  0
   -4.3279   -3.5890   -0.3830 H   0  0  0  0  0  0  0  0  0  0  0  0
   -3.0369   -1.7921    0.5981 H   0  0  0  0  0  0  0  0  0  0  0  0
   -2.9221    1.0197    2.4049 H   0  0  0  0  0  0  0  0  0  0  0  0
   -4.6342    1.2374    1.8155 H   0  0  0  0  0  0  0  0  0  0  0  0
   -2.1296    2.9334    1.1296 H   0  0  0  0  0  0  0  0  0  0  0  0
   -3.8125    3.4870    1.7117 H   0  0  0  0  0  0  0  0  0  0  0  0
   -4.8998    2.4415   -0.0868 H   0  0  0  0  0  0  0  0  0  0  0  0
   -3.3436    2.7589   -1.0612 H   0  0  0  0  0  0  0  0  0  0  0  0
  1  2  1  0
  2  3  1  0
  3  4  1  0
  4  5  2  0
  5  6  1  0
  6  7  2  0
  7  8  1  0
  8  9  2  0
  9 10  1  0
 10 11  2  0
 11 12  1  0
 12 13  2  0
  7 14  1  0
 14 15  2  0
  3 16  2  0
 16 17  1  0
 17 18  2  0
 18 19  1  0
 19 20  1  0
 20 21  2  0
 21 22  1  0
 22 23  2  0
 23 24  1  0
 23 25  1  0
 25 26  2  0
 19 27  1  0
 27 28  1  0
 28 29  1  0
 18  2  1  0
 29 19  1  0
 15  4  1  0
 26 20  1  0
 13  8  1  0
  1 30  1  0
  1 31  1  0
  1 32  1  0
  5 33  1  0
  6 34  1  0
  9 35  1  0
 11 36  1  0
 12 37  1  0
 14 38  1  0
 15 39  1  0
 21 40  1  0
 22 41  1  0
 25 42  1  0
 26 43  1  0
 27 44  1  0
 27 45  1  0
 28 46  1  0
 28 47  1  0
 29 48  1  0
 29 49  1  0
M  END
$$$$
