@<TRIPOS>MOLECULE
*****
 49 53 0 0 0
SMALL
GASTEIGER

@<TRIPOS>ATOM
      1 C          -0.6560   -0.0094    1.6632 C.3     1  UNL1        0.0150
      2 N          -0.7563    0.4903    0.3261 N.ar    1  UNL1       -0.3133
      3 C           0.2544    0.6529   -0.5404 C.ar    1  UNL1        0.1640
      4 C           1.6767    0.3437   -0.2979 C.ar    1  UNL1        0.0193
      5 C           2.4199   -0.4106   -1.1785 C.ar    1  UNL1       -0.0504
      6 C           3.7383   -0.7250   -0.9929 C.ar    1  UNL1       -0.0518
      7 C           4.3799   -0.2620    0.1494 C.ar    1  UNL1        0.0019
      8 C           5.7984   -0.6222    0.3161 C.ar    1  UNL1        0.0890
      9 C           6.5189   -0.2160    1.4071 C.ar    1  UNL1        0.0535
     10 N           7.8179   -0.5825    1.5002 N.ar    1  UNL1       -0.2596
     11 C           8.3843   -1.3213    0.5525 C.ar    1  UNL1        0.0457
     12 C           7.6662   -1.7252   -0.5334 C.ar    1  UNL1        0.0464
     13 N           6.3886   -1.3702   -0.6338 N.ar    1  UNL1       -0.2520
     14 C           3.6731    0.4869    1.0407 C.ar    1  UNL1       -0.0518
     15 C           2.3320    0.7926    0.8273 C.ar    1  UNL1       -0.0504
     16 N          -0.2282    1.1455   -1.6902 N.ar    1  UNL1       -0.1291
     17 N          -1.5242    1.2784   -1.5159 N.ar    1  UNL1       -0.1331
     18 C          -1.8736    0.8734   -0.2600 C.ar    1  UNL1        0.1440
     19 C          -3.2842    0.9155    0.1902 C.3     1  UNL1        0.0554
     20 C          -4.0469   -0.1888   -0.3828 C.ar    1  UNL1       -0.0338
     21 C          -5.0634    0.0642   -1.2737 C.ar    1  UNL1       -0.0562
     22 C          -5.8064   -0.9481   -1.8396 C.ar    1  UNL1       -0.0431
     23 C          -5.5471   -2.2704   -1.5229 C.ar    1  UNL1        0.0410
     24 CL         -6.5046   -3.5692   -2.2521 Cl      1  UNL1       -0.0835
     25 C          -4.5350   -2.5577   -0.6336 C.ar    1  UNL1       -0.0431
     26 C          -3.8137   -1.5124   -0.0885 C.ar    1  UNL1       -0.0562
     27 C          -3.5629    1.3152    1.5938 C.3     1  UNL1       -0.0364
     28 C          -3.2038    2.7472    1.1628 C.3     1  UNL1       -0.0507
     29 C          -3.8205    2.3119   -0.1801 C.3     1  UNL1       -0.0364
     30 H          -1.3832   -0.7520    1.9699 H       1  UNL1        0.0457
     31 H           0.3414   -0.5395    1.7436 H       1  UNL1        0.0457
     32 H          -0.5423    0.8149    2.4285 H       1  UNL1        0.0457
     33 H           1.9550   -0.8005   -2.0980 H       1  UNL1        0.0625
     34 H           4.2859   -1.3290   -1.7246 H       1  UNL1        0.0624
     35 H           6.0490    0.3864    2.1745 H       1  UNL1        0.0851
     36 H           9.4368   -1.6364    0.5966 H       1  UNL1        0.0845
     37 H           8.0812   -2.3331   -1.3415 H       1  UNL1        0.0845
     38 H           4.1476    0.8583    1.9341 H       1  UNL1        0.0624
     39 H           1.8194    1.3938    1.5740 H       1  UNL1        0.0625
     40 H          -5.2895    1.0770   -1.5399 H       1  UNL1        0.0621
     41 H          -6.6168   -0.7634   -2.5485 H       1  UNL1        0.0632
     42 H          -4.3279   -3.5890   -0.3830 H       1  UNL1        0.0632
     43 H          -3.0369   -1.7921    0.5981 H       1  UNL1        0.0621
     44 H          -2.9221    1.0197    2.4049 H       1  UNL1        0.0278
     45 H          -4.6342    1.2374    1.8155 H       1  UNL1        0.0278
     46 H          -2.1296    2.9334    1.1296 H       1  UNL1        0.0266
     47 H          -3.8125    3.4870    1.7117 H       1  UNL1        0.0266
     48 H          -4.8998    2.4415   -0.0868 H       1  UNL1        0.0278
     49 H          -3.3436    2.7589   -1.0612 H       1  UNL1        0.0278
@<TRIPOS>BOND
     1     1     2    1
     2     2     3   ar
     3     3     4    1
     4     4     5   ar
     5     5     6   ar
     6     6     7   ar
     7     7     8    1
     8     8     9   ar
     9     9    10   ar
    10    10    11   ar
    11    11    12   ar
    12    12    13   ar
    13     7    14   ar
    14    14    15   ar
    15     3    16   ar
    16    16    17   ar
    17    17    18   ar
    18    18    19    1
    19    19    20    1
    20    20    21   ar
    21    21    22   ar
    22    22    23   ar
    23    23    24    1
    24    23    25   ar
    25    25    26   ar
    26    19    27    1
    27    27    28    1
    28    28    29    1
    29    18     2   ar
    30    29    19    1
    31    15     4   ar
    32    26    20   ar
    33    13     8   ar
    34     1    30    1
    35     1    31    1
    36     1    32    1
    37     5    33    1
    38     6    34    1
    39     9    35    1
    40    11    36    1
    41    12    37    1
    42    14    38    1
    43    15    39    1
    44    21    40    1
    45    22    41    1
    46    25    42    1
    47    26    43    1
    48    27    44    1
    49    27    45    1
    50    28    46    1
    51    28    47    1
    52    29    48    1
    53    29    49    1
