@<TRIPOS>MOLECULE
*****
 30 31 0 0 0
SMALL
GASTEIGER

@<TRIPOS>ATOM
      1 O          -2.5622    2.4290   -0.8155 O.2     1  UNL1       -0.2451
      2 C          -3.4043    1.6148   -0.3825 C.2     1  UNL1        0.3369
      3 O          -4.7223    2.0653   -0.2836 O.3     1  UNL1       -0.4771
      4 C          -3.0266    0.2518    0.0031 C.ar    1  UNL1        0.0606
      5 C          -3.9189   -0.6579    0.4777 C.ar    1  UNL1       -0.0477
      6 C          -3.5096   -1.9155    0.8220 C.ar    1  UNL1       -0.0592
      7 C          -2.1899   -2.2792    0.6939 C.ar    1  UNL1       -0.0405
      8 C          -1.2680   -1.3414    0.2046 C.ar    1  UNL1        0.0321
      9 N           0.0698   -1.7358    0.0617 N.pl3   1  UNL1       -0.3145
     10 C           1.1862   -0.8690    0.1413 C.ar    1  UNL1        0.0313
     11 C           2.3815   -1.1769   -0.5233 C.ar    1  UNL1       -0.0400
     12 C           3.4744   -0.3473   -0.4315 C.ar    1  UNL1       -0.0484
     13 C           3.4364    0.8092    0.3117 C.ar    1  UNL1        0.0549
     14 C           4.6484    1.6659    0.3732 C.3     1  UNL1        0.4174
     15 F           4.9450    2.0228   -0.9391 F       1  UNL1       -0.1659
     16 F           5.6657    0.8532    0.8904 F       1  UNL1       -0.1659
     17 F           4.4597    2.7710    1.1443 F       1  UNL1       -0.1659
     18 C           2.2836    1.1392    0.9739 C.ar    1  UNL1       -0.0484
     19 C           1.1855    0.2936    0.8744 C.ar    1  UNL1       -0.0400
     20 C          -1.6965   -0.0891   -0.1349 C.ar    1  UNL1       -0.0266
     21 H          -4.9701    3.0468   -0.3174 H       1  UNL1        0.2954
     22 H          -4.9551   -0.3630    0.5754 H       1  UNL1        0.0626
     23 H          -4.2387   -2.6501    1.2066 H       1  UNL1        0.0618
     24 H          -1.8496   -3.2802    0.9652 H       1  UNL1        0.0636
     25 H           0.2610   -2.7637   -0.1213 H       1  UNL1        0.1522
     26 H           2.3888   -2.1026   -1.1091 H       1  UNL1        0.0636
     27 H           4.3841   -0.6431   -0.9761 H       1  UNL1        0.0624
     28 H           2.2307    2.0455    1.5654 H       1  UNL1        0.0624
     29 H           0.2809    0.5691    1.4231 H       1  UNL1        0.0636
     30 H          -0.9699    0.6375   -0.5320 H       1  UNL1        0.0644
@<TRIPOS>BOND
     1     1     2    2
     2     2     3    1
     3     2     4    1
     4     4     5   ar
     5     5     6   ar
     6     6     7   ar
     7     7     8   ar
     8     8     9    1
     9     9    10    1
    10    10    11   ar
    11    11    12   ar
    12    12    13   ar
    13    13    14    1
    14    14    15    1
    15    14    16    1
    16    14    17    1
    17    13    18   ar
    18    18    19   ar
    19     8    20   ar
    20    20     4   ar
    21    19    10   ar
    22     3    21    1
    23     5    22    1
    24     6    23    1
    25     7    24    1
    26     9    25    1
    27    11    26    1
    28    12    27    1
    29    18    28    1
    30    19    29    1
    31    20    30    1
