
     RDKit          3D

 30 31  0  0  0  0  0  0  0  0999 V2000
   -2.5622    2.4290   -0.8155 O   0  0  0  0  0  0  0  0  0  0  0  0
   -3.4043    1.6148   -0.3825 C   0  0  0  0  0  0  0  0  0  0  0  0
   -4.7223    2.0653   -0.2836 O   0  0  0  0  0  0  0  0  0  0  0  0
   -3.0266    0.2518    0.0031 C   0  0  0  0  0  0  0  0  0  0  0  0
   -3.9189   -0.6579    0.4777 C   0  0  0  0  0  0  0  0  0  0  0  0
   -3.5096   -1.9155    0.8220 C   0  0  0  0  0  0  0  0  0  0  0  0
   -2.1899   -2.2792    0.6939 C   0  0  0  0  0  0  0  0  0  0  0  0
   -1.2680   -1.3414    0.2046 C   0  0  0  0  0  0  0  0  0  0  0  0
    0.0698   -1.7358    0.0617 N   0  0  0  0  0  0  0  0  0  0  0  0
    1.1862   -0.8690    0.1413 C   0  0  0  0  0  0  0  0  0  0  0  0
    2.3815   -1.1769   -0.5233 C   0  0  0  0  0  0  0  0  0  0  0  0
    3.4744   -0.3473   -0.4315 C   0  0  0  0  0  0  0  0  0  0  0  0
    3.4364    0.8092    0.3117 C   0  0  0  0  0  0  0  0  0  0  0  0
    4.6484    1.6659    0.3732 C   0  0  0  0  0  0  0  0  0  0  0  0
    4.9450    2.0228   -0.9391 F   0  0  0  0  0  0  0  0  0  0  0  0
    5.6657    0.8532    0.8904 F   0  0  0  0  0  0  0  0  0  0  0  0
    4.4597    2.7710    1.1443 F   0  0  0  0  0  0  0  0  0  0  0  0
    2.2836    1.1392    0.9739 C   0  0  0  0  0  0  0  0  0  0  0  0
    1.1855    0.2936    0.8744 C   0  0  0  0  0  0  0  0  0  0  0  0
   -1.6965   -0.0891   -0.1349 C   0  0  0  0  0  0  0  0  0  0  0  0
   -4.9701    3.0468   -0.3174 H   0  0  0  0  0  0  0  0  0  0  0  0
   -4.9551   -0.3630    0.5754 H   0  0  0  0  0  0  0  0  0  0  0  0
   -4.2387   -2.6501    1.2066 H   0  0  0  0  0  0  0  0  0  0  0  0
   -1.8496   -3.2802    0.9652 H   0  0  0  0  0  0  0  0  0  0  0  0
    0.2610   -2.7637   -0.1213 H   0  0  0  0  0  0  0  0  0  0  0  0
    2.3888   -2.1026   -1.1091 H   0  0  0  0  0  0  0  0  0  0  0  0
    4.3841   -0.6431   -0.9761 H   0  0  0  0  0  0  0  0  0  0  0  0
    2.2307    2.0455    1.5654 H   0  0  0  0  0  0  0  0  0  0  0  0
    0.2809    0.5691    1.4231 H   0  0  0  0  0  0  0  0  0  0  0  0
   -0.9699    0.6375   -0.5320 H   0  0  0  0  0  0  0  0  0  0  0  0
  1  2  2  0
  2  3  1  0
  2  4  1  0
  4  5  2  0
  5  6  1  0
  6  7  2  0
  7  8  1  0
  8  9  1  0
  9 10  1  0
 10 11  2  0
 11 12  1  0
 12 13  2  0
 13 14  1  0
 14 15  1  0
 14 16  1  0
 14 17  1  0
 13 18  1  0
 18 19  2  0
  8 20  2  0
 20  4  1  0
 19 10  1  0
  3 21  1  0
  5 22  1  0
  6 23  1  0
  7 24  1  0
  9 25  1  0
 11 26  1  0
 12 27  1  0
 18 28  1  0
 19 29  1  0
 20 30  1  0
M  END
$$$$
