
     RDKit          3D

 47 51  0  0  0  0  0  0  0  0999 V2000
    0.5693   -0.8967   -0.7085 C   0  0  2  0  0  0  0  0  0  0  0  0
    1.3595   -2.0866   -0.2372 C   0  0  0  0  0  0  0  0  0  0  0  0
    2.8214   -1.7688   -0.0376 C   0  0  0  0  0  0  0  0  0  0  0  0
    3.0452   -0.4674    0.6623 C   0  0  2  0  0  0  0  0  0  0  0  0
    4.0759   -0.5268    1.5937 O   0  0  0  0  0  0  0  0  0  0  0  0
    1.7355   -0.0297    1.3155 C   0  0  0  0  0  0  0  0  0  0  0  0
    0.9406    0.3675    0.0765 C   0  0  1  0  0  0  0  0  0  0  0  0
    1.9124    1.1864   -0.7168 C   0  0  0  0  0  0  0  0  0  0  0  0
    3.2524    0.5992   -0.3424 C   0  0  0  0  0  0  0  0  0  0  0  0
    4.2642    1.1893   -1.0083 C   0  0  0  0  0  0  0  0  0  0  0  0
   -0.3423    1.0595    0.4148 C   0  0  1  0  0  0  0  0  0  0  0  0
   -0.2836    2.4427   -0.1285 C   0  0  0  0  0  0  0  0  0  0  0  0
    0.0732    3.7547   -0.4021 O   0  0  0  0  0  0  0  0  0  0  0  0
   -1.1139    2.8701   -0.9769 O   0  0  0  0  0  0  0  0  0  0  0  0
   -1.4201    0.3257   -0.3331 C   0  0  2  0  0  0  0  0  0  0  0  0
   -2.6608    0.0777    0.4599 C   0  0  1  0  0  0  0  0  0  0  0  0
   -3.2873    1.3223    1.0121 C   0  0  0  0  0  0  0  0  0  0  0  0
   -3.6339   -0.6148   -0.4783 C   0  0  1  0  0  0  0  0  0  0  0  0
   -3.9001    0.3247   -1.4945 O   0  0  0  0  0  0  0  0  0  0  0  0
   -2.9758   -1.7663   -1.1580 C   0  0  0  0  0  0  0  0  0  0  0  0
   -1.6544   -1.9055   -1.2341 C   0  0  0  0  0  0  0  0  0  0  0  0
   -0.8375   -1.0914   -0.3197 C   0  0  1  0  0  0  0  0  0  0  0  0
   -1.0737   -1.4922    0.9936 O   0  0  0  0  0  0  0  0  0  0  0  0
   -2.1715   -0.7989    1.5408 C   0  0  0  0  0  0  0  0  0  0  0  0
   -2.7056   -0.8370    2.6833 O   0  0  0  0  0  0  0  0  0  0  0  0
    0.6254   -0.7338   -1.7890 H   0  0  0  0  0  0  0  0  0  0  0  0
    0.9161   -2.5249    0.6883 H   0  0  0  0  0  0  0  0  0  0  0  0
    1.2874   -2.8674   -1.0230 H   0  0  0  0  0  0  0  0  0  0  0  0
    3.3032   -1.7787   -1.0222 H   0  0  0  0  0  0  0  0  0  0  0  0
    3.2375   -2.5963    0.6002 H   0  0  0  0  0  0  0  0  0  0  0  0
    3.9444   -1.3568    2.1124 H   0  0  0  0  0  0  0  0  0  0  0  0
    1.8788    0.8797    1.9290 H   0  0  0  0  0  0  0  0  0  0  0  0
    1.2496   -0.8408    1.8607 H   0  0  0  0  0  0  0  0  0  0  0  0
    1.7521    1.0242   -1.8047 H   0  0  0  0  0  0  0  0  0  0  0  0
    1.8498    2.2361   -0.4358 H   0  0  0  0  0  0  0  0  0  0  0  0
    5.2518    0.8035   -0.7756 H   0  0  0  0  0  0  0  0  0  0  0  0
    5.2414    0.7875   -0.7595 H   0  0  0  0  0  0  0  0  0  0  0  0
   -0.5247    1.1216    1.4988 H   0  0  0  0  0  0  0  0  0  0  0  0
    0.3048    4.3608    0.3928 H   0  0  0  0  0  0  0  0  0  0  0  0
   -1.6182    0.6965   -1.3405 H   0  0  0  0  0  0  0  0  0  0  0  0
   -3.5531    2.0342    0.2320 H   0  0  0  0  0  0  0  0  0  0  0  0
   -4.2378    1.0123    1.4956 H   0  0  0  0  0  0  0  0  0  0  0  0
   -2.6669    1.7450    1.8288 H   0  0  0  0  0  0  0  0  0  0  0  0
   -4.5458   -0.9211    0.0619 H   0  0  0  0  0  0  0  0  0  0  0  0
   -4.7211    0.8168   -1.3378 H   0  0  0  0  0  0  0  0  0  0  0  0
   -3.6489   -2.5071   -1.6007 H   0  0  0  0  0  0  0  0  0  0  0  0
   -1.3149   -2.6289   -1.9881 H   0  0  0  0  0  0  0  0  0  0  0  0
  1  2  1  0
  2  3  1  0
  3  4  1  0
  4  5  1  1
  4  6  1  0
  6  7  1  0
  7  8  1  6
  8  9  1  0
  9 10  2  0
  7 11  1  0
 11 12  1  0
 12 13  1  0
 12 14  2  0
 11 15  1  0
 15 16  1  0
 16 17  1  1
 16 18  1  0
 18 19  1  0
 18 20  1  0
 20 21  2  0
 21 22  1  0
 22 23  1  1
 23 24  1  0
 24 25  2  0
  7  1  1  0
 22 15  1  0
 22  1  1  0
  9  4  1  0
 24 16  1  0
  1 26  1  6
  2 27  1  0
  2 28  1  0
  3 29  1  0
  3 30  1  0
  5 31  1  0
  6 32  1  0
  6 33  1  0
  8 34  1  0
  8 35  1  0
 10 36  1  0
 10 37  1  0
 11 38  1  1
 13 39  1  0
 15 40  1  6
 17 41  1  0
 17 42  1  0
 17 43  1  0
 18 44  1  1
 19 45  1  0
 20 46  1  0
 21 47  1  0
M  END
$$$$
