@<TRIPOS>MOLECULE
*****
 47 51 0 0 0
SMALL
GASTEIGER

@<TRIPOS>ATOM
      1 C           0.5693   -0.8967   -0.7085 C.3     1  UNL1        0.0099
      2 C           1.3595   -2.0866   -0.2372 C.3     1  UNL1       -0.0428
      3 C           2.8214   -1.7688   -0.0376 C.3     1  UNL1       -0.0197
      4 C           3.0452   -0.4674    0.6623 C.3     1  UNL1        0.0874
      5 O           4.0759   -0.5268    1.5937 O.3     1  UNL1       -0.3843
      6 C           1.7355   -0.0297    1.3155 C.3     1  UNL1       -0.0130
      7 C           0.9406    0.3675    0.0765 C.3     1  UNL1       -0.0025
      8 C           1.9124    1.1864   -0.7168 C.3     1  UNL1       -0.0224
      9 C           3.2524    0.5992   -0.3424 C.2     1  UNL1       -0.0449
     10 C           4.2642    1.1893   -1.0083 C.2     1  UNL1       -0.0967
     11 C          -0.3423    1.0595    0.4148 C.3     1  UNL1        0.0705
     12 C          -0.2836    2.4427   -0.1285 C.2     1  UNL1        0.3088
     13 O           0.0732    3.7547   -0.4021 O.3     1  UNL1       -0.4804
     14 O          -1.1139    2.8701   -0.9769 O.2     1  UNL1       -0.2507
     15 C          -1.4201    0.3257   -0.3331 C.3     1  UNL1        0.0345
     16 C          -2.6608    0.0777    0.4599 C.3     1  UNL1        0.1017
     17 C          -3.2873    1.3223    1.0121 C.3     1  UNL1       -0.0462
     18 C          -3.6339   -0.6148   -0.4783 C.3     1  UNL1        0.0893
     19 O          -3.9001    0.3247   -1.4945 O.3     1  UNL1       -0.3867
     20 C          -2.9758   -1.7663   -1.1580 C.2     1  UNL1       -0.0550
     21 C          -1.6544   -1.9055   -1.2341 C.2     1  UNL1       -0.0418
     22 C          -0.8375   -1.0914   -0.3197 C.3     1  UNL1        0.1397
     23 O          -1.0737   -1.4922    0.9936 O.3     1  UNL1       -0.4528
     24 C          -2.1715   -0.7989    1.5408 C.2     1  UNL1        0.3171
     25 O          -2.7056   -0.8370    2.6833 O.2     1  UNL1       -0.2501
     26 H           0.6254   -0.7338   -1.7890 H       1  UNL1        0.0348
     27 H           0.9161   -2.5249    0.6883 H       1  UNL1        0.0270
     28 H           1.2874   -2.8674   -1.0230 H       1  UNL1        0.0270
     29 H           3.3032   -1.7787   -1.0222 H       1  UNL1        0.0296
     30 H           3.2375   -2.5963    0.6002 H       1  UNL1        0.0296
     31 H           3.9444   -1.3568    2.1124 H       1  UNL1        0.2106
     32 H           1.8788    0.8797    1.9290 H       1  UNL1        0.0302
     33 H           1.2496   -0.8408    1.8607 H       1  UNL1        0.0302
     34 H           1.7521    1.0242   -1.8047 H       1  UNL1        0.0316
     35 H           1.8498    2.2361   -0.4358 H       1  UNL1        0.0316
     36 H           5.2518    0.8035   -0.7756 H       1  UNL1        0.0535
     37 H           5.2414    0.7875   -0.7595 H       1  UNL1        0.0535
     38 H          -0.5247    1.1216    1.4988 H       1  UNL1        0.0423
     39 H           0.3048    4.3608    0.3928 H       1  UNL1        0.2951
     40 H          -1.6182    0.6965   -1.3405 H       1  UNL1        0.0362
     41 H          -3.5531    2.0342    0.2320 H       1  UNL1        0.0241
     42 H          -4.2378    1.0123    1.4956 H       1  UNL1        0.0241
     43 H          -2.6669    1.7450    1.8288 H       1  UNL1        0.0241
     44 H          -4.5458   -0.9211    0.0619 H       1  UNL1        0.0649
     45 H          -4.7211    0.8168   -1.3378 H       1  UNL1        0.2102
     46 H          -3.6489   -2.5071   -1.6007 H       1  UNL1        0.0596
     47 H          -1.3149   -2.6289   -1.9881 H       1  UNL1        0.0609
@<TRIPOS>BOND
     1     1     2    1
     2     2     3    1
     3     3     4    1
     4     4     5    1
     5     4     6    1
     6     6     7    1
     7     7     8    1
     8     8     9    1
     9     9    10    2
    10     7    11    1
    11    11    12    1
    12    12    13    1
    13    12    14    2
    14    11    15    1
    15    15    16    1
    16    16    17    1
    17    16    18    1
    18    18    19    1
    19    18    20    1
    20    20    21    2
    21    21    22    1
    22    22    23    1
    23    23    24    1
    24    24    25    2
    25     7     1    1
    26    22    15    1
    27    22     1    1
    28     9     4    1
    29    24    16    1
    30     1    26    1
    31     2    27    1
    32     2    28    1
    33     3    29    1
    34     3    30    1
    35     5    31    1
    36     6    32    1
    37     6    33    1
    38     8    34    1
    39     8    35    1
    40    10    36    1
    41    10    37    1
    42    11    38    1
    43    13    39    1
    44    15    40    1
    45    17    41    1
    46    17    42    1
    47    17    43    1
    48    18    44    1
    49    19    45    1
    50    20    46    1
    51    21    47    1
