@<TRIPOS>MOLECULE
*****
 56 59 0 0 0
SMALL
GASTEIGER

@<TRIPOS>ATOM
      1 C          -4.2565   -3.3972    2.1563 C.3     1  UNL1       -0.0584
      2 C          -3.1886   -3.1712    1.0813 C.3     1  UNL1        0.0028
      3 C          -3.4653   -1.8791    0.4149 C.ar    1  UNL1        0.1119
      4 N          -4.4901   -1.0199    0.6982 N.ar    1  UNL1       -0.2304
      5 C          -4.4255    0.0519   -0.1134 C.ar    1  UNL1        0.1111
      6 C          -5.2185    1.1764   -0.2178 C.ar    1  UNL1       -0.0198
      7 C          -6.3949    1.3601    0.6732 C.3     1  UNL1       -0.0375
      8 C          -4.8810    2.1175   -1.1735 C.ar    1  UNL1       -0.0356
      9 C          -3.7721    1.9179   -1.9946 C.ar    1  UNL1        0.0409
     10 C          -3.4438    2.9572   -3.0105 C.3     1  UNL1       -0.0223
     11 N          -3.0554    0.8023   -1.8303 N.ar    1  UNL1       -0.2326
     12 C          -3.3299   -0.1433   -0.9263 C.ar    1  UNL1        0.1612
     13 N          -2.7563   -1.3352   -0.5837 N.ar    1  UNL1       -0.3081
     14 C          -1.5974   -1.8352   -1.2438 C.3     1  UNL1        0.0513
     15 C          -0.3137   -1.4081   -0.6400 C.ar    1  UNL1       -0.0274
     16 C           0.3684   -2.1396    0.2977 C.ar    1  UNL1       -0.0534
     17 C           1.5519   -1.6952    0.8280 C.ar    1  UNL1       -0.0196
     18 C           2.1517   -0.4743    0.4596 C.ar    1  UNL1        0.1222
     19 O           3.3317   -0.1045    1.0356 O.3     1  UNL1       -0.4729
     20 C           4.0397    1.0485    0.7864 C.3     1  UNL1        0.2221
     21 C           4.0422    1.9212    2.0124 C.2     1  UNL1        0.3506
     22 O           4.6684    3.0065    1.9200 O.2     1  UNL1       -0.2464
     23 O           3.4071    1.5820    3.1817 O.3     1  UNL1       -0.4778
     24 C           5.4418    0.7947    0.3396 C.ar    1  UNL1        0.0218
     25 C           5.8268    0.8852   -0.9772 C.ar    1  UNL1       -0.0531
     26 C           7.1544    0.6388   -1.3443 C.ar    1  UNL1       -0.0613
     27 C           8.1103    0.3015   -0.4140 C.ar    1  UNL1       -0.0604
     28 C           7.7161    0.2122    0.9078 C.ar    1  UNL1       -0.0430
     29 C           6.3897    0.4588    1.2717 C.ar    1  UNL1        0.0482
     30 CL          5.9427    0.3327    2.9492 Cl      1  UNL1       -0.0831
     31 C           1.4577    0.2486   -0.4810 C.ar    1  UNL1       -0.0196
     32 C           0.2483   -0.2092   -1.0205 C.ar    1  UNL1       -0.0534
     33 H          -4.0341   -4.3364    2.6991 H       1  UNL1        0.0234
     34 H          -4.2040   -2.5037    2.8410 H       1  UNL1        0.0234
     35 H          -5.2513   -3.4006    1.6644 H       1  UNL1        0.0234
     36 H          -3.1588   -4.0301    0.4154 H       1  UNL1        0.0340
     37 H          -2.2216   -3.1054    1.6417 H       1  UNL1        0.0340
     38 H          -5.9898    1.5616    1.7062 H       1  UNL1        0.0278
     39 H          -7.0297    2.1837    0.3186 H       1  UNL1        0.0278
     40 H          -7.0085    0.4302    0.6635 H       1  UNL1        0.0278
     41 H          -5.4649    3.0221   -1.3043 H       1  UNL1        0.0639
     42 H          -2.7642    2.5253   -3.7585 H       1  UNL1        0.0292
     43 H          -2.8723    3.7608   -2.4679 H       1  UNL1        0.0292
     44 H          -4.3717    3.3650   -3.4448 H       1  UNL1        0.0292
     45 H          -1.5585   -1.5949   -2.3246 H       1  UNL1        0.0542
     46 H          -1.5910   -2.9640   -1.2013 H       1  UNL1        0.0542
     47 H          -0.0843   -3.0872    0.5884 H       1  UNL1        0.0622
     48 H           2.0718   -2.2905    1.5670 H       1  UNL1        0.0654
     49 H           3.5228    1.6615    0.0221 H       1  UNL1        0.0905
     50 H           3.0947    2.2883    3.8547 H       1  UNL1        0.2952
     51 H           5.0687    1.1512   -1.7027 H       1  UNL1        0.0622
     52 H           7.4044    0.7246   -2.4036 H       1  UNL1        0.0618
     53 H           9.1478    0.1095   -0.7031 H       1  UNL1        0.0618
     54 H           8.4723   -0.0550    1.6486 H       1  UNL1        0.0632
     55 H           1.8403    1.2000   -0.8264 H       1  UNL1        0.0654
     56 H          -0.2779    0.3820   -1.7620 H       1  UNL1        0.0622
@<TRIPOS>BOND
     1     1     2    1
     2     2     3    1
     3     3     4   ar
     4     4     5   ar
     5     5     6   ar
     6     6     7    1
     7     6     8   ar
     8     8     9   ar
     9     9    10    1
    10     9    11   ar
    11    11    12   ar
    12    12    13   ar
    13    13    14    1
    14    14    15    1
    15    15    16   ar
    16    16    17   ar
    17    17    18   ar
    18    18    19    1
    19    19    20    1
    20    20    21    1
    21    21    22    2
    22    21    23    1
    23    20    24    1
    24    24    25   ar
    25    25    26   ar
    26    26    27   ar
    27    27    28   ar
    28    28    29   ar
    29    29    30    1
    30    18    31   ar
    31    31    32   ar
    32    13     3   ar
    33    32    15   ar
    34    12     5   ar
    35    29    24   ar
    36     1    33    1
    37     1    34    1
    38     1    35    1
    39     2    36    1
    40     2    37    1
    41     7    38    1
    42     7    39    1
    43     7    40    1
    44     8    41    1
    45    10    42    1
    46    10    43    1
    47    10    44    1
    48    14    45    1
    49    14    46    1
    50    16    47    1
    51    17    48    1
    52    20    49    1
    53    23    50    1
    54    25    51    1
    55    26    52    1
    56    27    53    1
    57    28    54    1
    58    31    55    1
    59    32    56    1
