
     RDKit          3D

 56 59  0  0  0  0  0  0  0  0999 V2000
   -4.2565   -3.3972    2.1563 C   0  0  0  0  0  0  0  0  0  0  0  0
   -3.1886   -3.1712    1.0813 C   0  0  0  0  0  0  0  0  0  0  0  0
   -3.4653   -1.8791    0.4149 C   0  0  0  0  0  0  0  0  0  0  0  0
   -4.4901   -1.0199    0.6982 N   0  0  0  0  0  0  0  0  0  0  0  0
   -4.4255    0.0519   -0.1134 C   0  0  0  0  0  0  0  0  0  0  0  0
   -5.2185    1.1764   -0.2178 C   0  0  0  0  0  0  0  0  0  0  0  0
   -6.3949    1.3601    0.6732 C   0  0  0  0  0  0  0  0  0  0  0  0
   -4.8810    2.1175   -1.1735 C   0  0  0  0  0  0  0  0  0  0  0  0
   -3.7721    1.9179   -1.9946 C   0  0  0  0  0  0  0  0  0  0  0  0
   -3.4438    2.9572   -3.0105 C   0  0  0  0  0  0  0  0  0  0  0  0
   -3.0554    0.8023   -1.8303 N   0  0  0  0  0  0  0  0  0  0  0  0
   -3.3299   -0.1433   -0.9263 C   0  0  0  0  0  0  0  0  0  0  0  0
   -2.7563   -1.3352   -0.5837 N   0  0  0  0  0  0  0  0  0  0  0  0
   -1.5974   -1.8352   -1.2438 C   0  0  0  0  0  0  0  0  0  0  0  0
   -0.3137   -1.4081   -0.6400 C   0  0  0  0  0  0  0  0  0  0  0  0
    0.3684   -2.1396    0.2977 C   0  0  0  0  0  0  0  0  0  0  0  0
    1.5519   -1.6952    0.8280 C   0  0  0  0  0  0  0  0  0  0  0  0
    2.1517   -0.4743    0.4596 C   0  0  0  0  0  0  0  0  0  0  0  0
    3.3317   -0.1045    1.0356 O   0  0  0  0  0  0  0  0  0  0  0  0
    4.0397    1.0485    0.7864 C   0  0  0  0  0  0  0  0  0  0  0  0
    4.0422    1.9212    2.0124 C   0  0  0  0  0  0  0  0  0  0  0  0
    4.6684    3.0065    1.9200 O   0  0  0  0  0  0  0  0  0  0  0  0
    3.4071    1.5820    3.1817 O   0  0  0  0  0  0  0  0  0  0  0  0
    5.4418    0.7947    0.3396 C   0  0  0  0  0  0  0  0  0  0  0  0
    5.8268    0.8852   -0.9772 C   0  0  0  0  0  0  0  0  0  0  0  0
    7.1544    0.6388   -1.3443 C   0  0  0  0  0  0  0  0  0  0  0  0
    8.1103    0.3015   -0.4140 C   0  0  0  0  0  0  0  0  0  0  0  0
    7.7161    0.2122    0.9078 C   0  0  0  0  0  0  0  0  0  0  0  0
    6.3897    0.4588    1.2717 C   0  0  0  0  0  0  0  0  0  0  0  0
    5.9427    0.3327    2.9492 Cl  0  0  0  0  0  0  0  0  0  0  0  0
    1.4577    0.2486   -0.4810 C   0  0  0  0  0  0  0  0  0  0  0  0
    0.2483   -0.2092   -1.0205 C   0  0  0  0  0  0  0  0  0  0  0  0
   -4.0341   -4.3364    2.6991 H   0  0  0  0  0  0  0  0  0  0  0  0
   -4.2040   -2.5037    2.8410 H   0  0  0  0  0  0  0  0  0  0  0  0
   -5.2513   -3.4006    1.6644 H   0  0  0  0  0  0  0  0  0  0  0  0
   -3.1588   -4.0301    0.4154 H   0  0  0  0  0  0  0  0  0  0  0  0
   -2.2216   -3.1054    1.6417 H   0  0  0  0  0  0  0  0  0  0  0  0
   -5.9898    1.5616    1.7062 H   0  0  0  0  0  0  0  0  0  0  0  0
   -7.0297    2.1837    0.3186 H   0  0  0  0  0  0  0  0  0  0  0  0
   -7.0085    0.4302    0.6635 H   0  0  0  0  0  0  0  0  0  0  0  0
   -5.4649    3.0221   -1.3043 H   0  0  0  0  0  0  0  0  0  0  0  0
   -2.7642    2.5253   -3.7585 H   0  0  0  0  0  0  0  0  0  0  0  0
   -2.8723    3.7608   -2.4679 H   0  0  0  0  0  0  0  0  0  0  0  0
   -4.3717    3.3650   -3.4448 H   0  0  0  0  0  0  0  0  0  0  0  0
   -1.5585   -1.5949   -2.3246 H   0  0  0  0  0  0  0  0  0  0  0  0
   -1.5910   -2.9640   -1.2013 H   0  0  0  0  0  0  0  0  0  0  0  0
   -0.0843   -3.0872    0.5884 H   0  0  0  0  0  0  0  0  0  0  0  0
    2.0718   -2.2905    1.5670 H   0  0  0  0  0  0  0  0  0  0  0  0
    3.5228    1.6615    0.0221 H   0  0  0  0  0  0  0  0  0  0  0  0
    3.0947    2.2883    3.8547 H   0  0  0  0  0  0  0  0  0  0  0  0
    5.0687    1.1512   -1.7027 H   0  0  0  0  0  0  0  0  0  0  0  0
    7.4044    0.7246   -2.4036 H   0  0  0  0  0  0  0  0  0  0  0  0
    9.1478    0.1095   -0.7031 H   0  0  0  0  0  0  0  0  0  0  0  0
    8.4723   -0.0550    1.6486 H   0  0  0  0  0  0  0  0  0  0  0  0
    1.8403    1.2000   -0.8264 H   0  0  0  0  0  0  0  0  0  0  0  0
   -0.2779    0.3820   -1.7620 H   0  0  0  0  0  0  0  0  0  0  0  0
  1  2  1  0
  2  3  1  0
  3  4  2  0
  4  5  1  0
  5  6  2  0
  6  7  1  0
  6  8  1  0
  8  9  2  0
  9 10  1  0
  9 11  1  0
 11 12  2  0
 12 13  1  0
 13 14  1  0
 14 15  1  0
 15 16  2  0
 16 17  1  0
 17 18  2  0
 18 19  1  0
 19 20  1  0
 20 21  1  0
 21 22  2  0
 21 23  1  0
 20 24  1  0
 24 25  2  0
 25 26  1  0
 26 27  2  0
 27 28  1  0
 28 29  2  0
 29 30  1  0
 18 31  1  0
 31 32  2  0
 13  3  1  0
 32 15  1  0
 12  5  1  0
 29 24  1  0
  1 33  1  0
  1 34  1  0
  1 35  1  0
  2 36  1  0
  2 37  1  0
  7 38  1  0
  7 39  1  0
  7 40  1  0
  8 41  1  0
 10 42  1  0
 10 43  1  0
 10 44  1  0
 14 45  1  0
 14 46  1  0
 16 47  1  0
 17 48  1  0
 20 49  1  0
 23 50  1  0
 25 51  1  0
 26 52  1  0
 27 53  1  0
 28 54  1  0
 31 55  1  0
 32 56  1  0
M  END
$$$$
