@<TRIPOS>MOLECULE
*****
 42 44 0 0 0
SMALL
GASTEIGER

@<TRIPOS>ATOM
      1 C           4.4955   -0.9744   -0.0902 C.3     1  UNL1       -0.0127
      2 N           3.4588   -0.0186   -0.3345 N.3     1  UNL1       -0.3029
      3 C           3.0068    0.6748    0.8307 C.3     1  UNL1        0.0115
      4 C           1.5269    0.8604    0.9197 C.3     1  UNL1        0.0126
      5 N           0.7105   -0.1509    0.4435 N.3     1  UNL1       -0.2891
      6 C           1.3002   -1.1800   -0.2626 C.3     1  UNL1        0.0126
      7 C           2.4101   -0.5778   -1.1382 C.3     1  UNL1        0.0115
      8 C          -0.6372   -0.0535    0.7350 C.3     1  UNL1        0.0610
      9 C          -1.5282   -1.1413    0.2647 C.ar    1  UNL1       -0.0259
     10 C          -2.7190   -0.7929   -0.3746 C.ar    1  UNL1       -0.0568
     11 C          -3.5963   -1.7696   -0.8327 C.ar    1  UNL1       -0.0614
     12 C          -3.2571   -3.0990   -0.6377 C.ar    1  UNL1       -0.0617
     13 C          -2.0752   -3.4337   -0.0032 C.ar    1  UNL1       -0.0614
     14 C          -1.1879   -2.4609    0.4602 C.ar    1  UNL1       -0.0568
     15 C          -1.1289    1.2823    0.2397 C.ar    1  UNL1       -0.0259
     16 C          -1.9436    2.0907    1.0170 C.ar    1  UNL1       -0.0568
     17 C          -2.4188    3.3165    0.6106 C.ar    1  UNL1       -0.0614
     18 C          -2.0721    3.7781   -0.6385 C.ar    1  UNL1       -0.0617
     19 C          -1.2681    3.0133   -1.4431 C.ar    1  UNL1       -0.0614
     20 C          -0.8171    1.7912   -0.9905 C.ar    1  UNL1       -0.0568
     21 H           5.1853   -0.7021    0.7115 H       1  UNL1        0.0391
     22 H           4.1044   -2.0089    0.0430 H       1  UNL1        0.0391
     23 H           5.1048   -1.0283   -1.0385 H       1  UNL1        0.0391
     24 H           3.4823    1.6780    0.8286 H       1  UNL1        0.0439
     25 H           3.3820    0.1523    1.7344 H       1  UNL1        0.0439
     26 H           1.2240    1.8285    0.4222 H       1  UNL1        0.0439
     27 H           1.2564    1.0563    1.9994 H       1  UNL1        0.0439
     28 H           1.8688   -1.9256    0.3730 H       1  UNL1        0.0439
     29 H           0.6550   -1.7278   -0.9874 H       1  UNL1        0.0439
     30 H           1.9886    0.2297   -1.7710 H       1  UNL1        0.0439
     31 H           2.8270   -1.3615   -1.7757 H       1  UNL1        0.0439
     32 H          -0.7711   -0.0096    1.8511 H       1  UNL1        0.0562
     33 H          -3.0089    0.2377   -0.5402 H       1  UNL1        0.0621
     34 H          -4.5205   -1.4828   -1.3290 H       1  UNL1        0.0618
     35 H          -3.9562   -3.8357   -1.0032 H       1  UNL1        0.0618
     36 H          -1.9135   -4.4857    0.0941 H       1  UNL1        0.0618
     37 H          -0.2986   -2.7764    0.9401 H       1  UNL1        0.0621
     38 H          -2.2426    1.7709    2.0048 H       1  UNL1        0.0621
     39 H          -3.0484    3.9188    1.2368 H       1  UNL1        0.0618
     40 H          -2.4028    4.7311   -1.0351 H       1  UNL1        0.0618
     41 H          -0.9874    3.3633   -2.4273 H       1  UNL1        0.0618
     42 H          -0.1881    1.2233   -1.6560 H       1  UNL1        0.0621
@<TRIPOS>BOND
     1     1     2    1
     2     2     3    1
     3     3     4    1
     4     4     5    1
     5     5     6    1
     6     6     7    1
     7     5     8    1
     8     8     9    1
     9     9    10   ar
    10    10    11   ar
    11    11    12   ar
    12    12    13   ar
    13    13    14   ar
    14     8    15    1
    15    15    16   ar
    16    16    17   ar
    17    17    18   ar
    18    18    19   ar
    19    19    20   ar
    20     7     2    1
    21    14     9   ar
    22    20    15   ar
    23     1    21    1
    24     1    22    1
    25     1    23    1
    26     3    24    1
    27     3    25    1
    28     4    26    1
    29     4    27    1
    30     6    28    1
    31     6    29    1
    32     7    30    1
    33     7    31    1
    34     8    32    1
    35    10    33    1
    36    11    34    1
    37    12    35    1
    38    13    36    1
    39    14    37    1
    40    16    38    1
    41    17    39    1
    42    18    40    1
    43    19    41    1
    44    20    42    1
