
     RDKit          3D

 49 52  0  0  0  0  0  0  0  0999 V2000
    1.6347   -3.8604   -1.6345 C   0  0  0  0  0  0  0  0  0  0  0  0
    2.1832   -2.8170   -0.7760 N   0  0  0  0  0  0  0  0  0  0  0  0
    1.2603   -1.9163   -0.3891 C   0  0  0  0  0  0  0  0  0  0  0  0
    1.5882   -0.8547    0.4187 C   0  0  0  0  0  0  0  0  0  0  0  0
    0.5541   -0.0582    0.7172 N   0  0  0  0  0  0  0  0  0  0  0  0
    0.3290    1.1335    1.4634 C   0  0  0  0  0  0  0  0  0  0  0  0
    0.4414    2.3970    0.6843 C   0  0  0  0  0  0  0  0  0  0  0  0
   -0.6388    2.9552    0.0145 C   0  0  0  0  0  0  0  0  0  0  0  0
   -0.5227    4.1239   -0.7013 C   0  0  0  0  0  0  0  0  0  0  0  0
    0.6556    4.8060   -0.7980 C   0  0  0  0  0  0  0  0  0  0  0  0
    1.7625    4.2914   -0.1487 C   0  0  0  0  0  0  0  0  0  0  0  0
    1.6180    3.1205    0.5602 C   0  0  0  0  0  0  0  0  0  0  0  0
   -0.4781   -0.6340    0.0767 C   0  0  0  0  0  0  0  0  0  0  0  0
   -0.0630   -1.7458   -0.5879 N   0  0  0  0  0  0  0  0  0  0  0  0
   -1.8796   -0.4420   -0.1219 N   0  0  0  0  0  0  0  0  0  0  0  0
   -2.6378   -0.9250    0.9880 C   0  0  0  0  0  0  0  0  0  0  0  0
   -4.0105   -1.4543    0.6261 C   0  0  0  0  0  0  0  0  0  0  0  0
   -4.7447   -0.5500   -0.2132 N   0  0  0  0  0  4  0  0  0  0  0  0
   -3.9649    0.6128   -0.5997 C   0  0  0  0  0  0  0  0  0  0  0  0
   -2.6750    0.1250   -1.2163 C   0  0  0  0  0  0  0  0  0  0  0  0
    2.8910   -0.7071    0.8451 C   0  0  0  0  0  0  0  0  0  0  0  0
    3.2372    0.2448    1.5861 O   0  0  0  0  0  0  0  0  0  0  0  0
    3.7870   -1.6266    0.4390 N   0  0  0  0  0  0  0  0  0  0  0  0
    5.1573   -1.5107    0.8687 C   0  0  0  0  0  0  0  0  0  0  0  0
    3.4463   -2.6579   -0.3522 C   0  0  0  0  0  0  0  0  0  0  0  0
    4.2401   -3.5545   -0.7707 O   0  0  0  0  0  0  0  0  0  0  0  0
    0.9719   -4.5366   -1.0569 H   0  0  0  0  0  0  0  0  0  0  0  0
    0.9898   -3.4131   -2.4326 H   0  0  0  0  0  0  0  0  0  0  0  0
    2.4765   -4.4390   -2.0367 H   0  0  0  0  0  0  0  0  0  0  0  0
    1.0506    1.1355    2.3238 H   0  0  0  0  0  0  0  0  0  0  0  0
   -0.6692    1.1374    1.9618 H   0  0  0  0  0  0  0  0  0  0  0  0
   -1.6043    2.4829    0.0440 H   0  0  0  0  0  0  0  0  0  0  0  0
   -1.3729    4.5643   -1.2306 H   0  0  0  0  0  0  0  0  0  0  0  0
    0.7475    5.7233   -1.3600 H   0  0  0  0  0  0  0  0  0  0  0  0
    2.7033    4.8199   -0.2136 H   0  0  0  0  0  0  0  0  0  0  0  0
    2.5196    2.7847    1.0440 H   0  0  0  0  0  0  0  0  0  0  0  0
   -2.1417   -1.7499    1.5377 H   0  0  0  0  0  0  0  0  0  0  0  0
   -2.7937   -0.0946    1.7237 H   0  0  0  0  0  0  0  0  0  0  0  0
   -4.5599   -1.5169    1.6064 H   0  0  0  0  0  0  0  0  0  0  0  0
   -3.9712   -2.4699    0.2257 H   0  0  0  0  0  0  0  0  0  0  0  0
   -5.6339   -0.2180    0.2313 H   0  0  0  0  0  0  0  0  0  0  0  0
   -5.0203   -1.0525   -1.0939 H   0  0  0  0  0  0  0  0  0  0  0  0
   -4.6024    1.1478   -1.3531 H   0  0  0  0  0  0  0  0  0  0  0  0
   -3.7597    1.2138    0.2914 H   0  0  0  0  0  0  0  0  0  0  0  0
   -2.0746    0.9083   -1.6878 H   0  0  0  0  0  0  0  0  0  0  0  0
   -2.9596   -0.6701   -1.9439 H   0  0  0  0  0  0  0  0  0  0  0  0
    5.7140   -0.9735    0.0595 H   0  0  0  0  0  0  0  0  0  0  0  0
    5.2123   -0.8009    1.7441 H   0  0  0  0  0  0  0  0  0  0  0  0
    5.6072   -2.4785    1.1170 H   0  0  0  0  0  0  0  0  0  0  0  0
  1  2  1  0
  2  3  1  0
  3  4  2  0
  4  5  1  0
  5  6  1  0
  6  7  1  0
  7  8  2  0
  8  9  1  0
  9 10  2  0
 10 11  1  0
 11 12  2  0
  5 13  1  0
 13 14  2  0
 13 15  1  0
 15 16  1  0
 16 17  1  0
 17 18  1  0
 18 19  1  0
 19 20  1  0
  4 21  1  0
 21 22  2  0
 21 23  1  0
 23 24  1  0
 23 25  1  0
 25 26  2  0
 25  2  1  0
 14  3  1  0
 20 15  1  0
 12  7  1  0
  1 27  1  0
  1 28  1  0
  1 29  1  0
  6 30  1  0
  6 31  1  0
  8 32  1  0
  9 33  1  0
 10 34  1  0
 11 35  1  0
 12 36  1  0
 16 37  1  0
 16 38  1  0
 17 39  1  0
 17 40  1  0
 18 41  1  0
 18 42  1  0
 19 43  1  0
 19 44  1  0
 20 45  1  0
 20 46  1  0
 24 47  1  0
 24 48  1  0
 24 49  1  0
M  CHG  1  18   1
M  END
$$$$
