@<TRIPOS>MOLECULE
*****
 49 52 0 0 0
SMALL
GASTEIGER

@<TRIPOS>ATOM
      1 C           1.6347   -3.8604   -1.6345 C.3     1  UNL1        0.0181
      2 N           2.1832   -2.8170   -0.7760 N.ar    1  UNL1       -0.2795
      3 C           1.2603   -1.9163   -0.3891 C.ar    1  UNL1        0.1698
      4 C           1.5882   -0.8547    0.4187 C.ar    1  UNL1        0.1532
      5 N           0.5541   -0.0582    0.7172 N.ar    1  UNL1       -0.3018
      6 C           0.3290    1.1335    1.4634 C.3     1  UNL1        0.0516
      7 C           0.4414    2.3970    0.6843 C.ar    1  UNL1       -0.0277
      8 C          -0.6388    2.9552    0.0145 C.ar    1  UNL1       -0.0569
      9 C          -0.5227    4.1239   -0.7013 C.ar    1  UNL1       -0.0614
     10 C           0.6556    4.8060   -0.7980 C.ar    1  UNL1       -0.0617
     11 C           1.7625    4.2914   -0.1487 C.ar    1  UNL1       -0.0614
     12 C           1.6180    3.1205    0.5602 C.ar    1  UNL1       -0.0569
     13 C          -0.4781   -0.6340    0.0767 C.ar    1  UNL1        0.2014
     14 N          -0.0630   -1.7458   -0.5879 N.ar    1  UNL1       -0.1959
     15 N          -1.8796   -0.4420   -0.1219 N.pl3   1  UNL1       -0.2908
     16 C          -2.6378   -0.9250    0.9880 C.3     1  UNL1        0.0550
     17 C          -4.0105   -1.4543    0.6261 C.3     1  UNL1       -0.0174
     18 N          -4.7447   -0.5500   -0.2132 N.4     1  UNL1        0.2292
     19 C          -3.9649    0.6128   -0.5997 C.3     1  UNL1       -0.0174
     20 C          -2.6750    0.1250   -1.2163 C.3     1  UNL1        0.0550
     21 C           2.8910   -0.7071    0.8451 C.ar    1  UNL1        0.2822
     22 O           3.2372    0.2448    1.5861 O.2     1  UNL1       -0.2652
     23 N           3.7870   -1.6266    0.4390 N.ar    1  UNL1       -0.2622
     24 C           5.1573   -1.5107    0.8687 C.3     1  UNL1        0.0196
     25 C           3.4463   -2.6579   -0.3522 C.ar    1  UNL1        0.3331
     26 O           4.2401   -3.5545   -0.7707 O.2     1  UNL1       -0.2462
     27 H           0.9719   -4.5366   -1.0569 H       1  UNL1        0.0458
     28 H           0.9898   -3.4131   -2.4326 H       1  UNL1        0.0458
     29 H           2.4765   -4.4390   -2.0367 H       1  UNL1        0.0458
     30 H           1.0506    1.1355    2.3238 H       1  UNL1        0.0542
     31 H          -0.6692    1.1374    1.9618 H       1  UNL1        0.0542
     32 H          -1.6043    2.4829    0.0440 H       1  UNL1        0.0621
     33 H          -1.3729    4.5643   -1.2306 H       1  UNL1        0.0618
     34 H           0.7475    5.7233   -1.3600 H       1  UNL1        0.0618
     35 H           2.7033    4.8199   -0.2136 H       1  UNL1        0.0618
     36 H           2.5196    2.7847    1.0440 H       1  UNL1        0.0621
     37 H          -2.1417   -1.7499    1.5377 H       1  UNL1        0.0517
     38 H          -2.7937   -0.0946    1.7237 H       1  UNL1        0.0517
     39 H          -4.5599   -1.5169    1.6064 H       1  UNL1        0.0829
     40 H          -3.9712   -2.4699    0.2257 H       1  UNL1        0.0829
     41 H          -5.6339   -0.2180    0.2313 H       1  UNL1        0.2015
     42 H          -5.0203   -1.0525   -1.0939 H       1  UNL1        0.2015
     43 H          -4.6024    1.1478   -1.3531 H       1  UNL1        0.0829
     44 H          -3.7597    1.2138    0.2914 H       1  UNL1        0.0829
     45 H          -2.0746    0.9083   -1.6878 H       1  UNL1        0.0517
     46 H          -2.9596   -0.6701   -1.9439 H       1  UNL1        0.0517
     47 H           5.7140   -0.9735    0.0595 H       1  UNL1        0.0458
     48 H           5.2123   -0.8009    1.7441 H       1  UNL1        0.0458
     49 H           5.6072   -2.4785    1.1170 H       1  UNL1        0.0458
@<TRIPOS>UNITY_ATOM_ATTR
18 1
charge 1
@<TRIPOS>BOND
     1     1     2    1
     2     2     3   ar
     3     3     4   ar
     4     4     5   ar
     5     5     6    1
     6     6     7    1
     7     7     8   ar
     8     8     9   ar
     9     9    10   ar
    10    10    11   ar
    11    11    12   ar
    12     5    13   ar
    13    13    14   ar
    14    13    15    1
    15    15    16    1
    16    16    17    1
    17    17    18    1
    18    18    19    1
    19    19    20    1
    20     4    21   ar
    21    21    22    2
    22    21    23   ar
    23    23    24    1
    24    23    25   ar
    25    25    26    2
    26    25     2   ar
    27    14     3   ar
    28    20    15    1
    29    12     7   ar
    30     1    27    1
    31     1    28    1
    32     1    29    1
    33     6    30    1
    34     6    31    1
    35     8    32    1
    36     9    33    1
    37    10    34    1
    38    11    35    1
    39    12    36    1
    40    16    37    1
    41    16    38    1
    42    17    39    1
    43    17    40    1
    44    18    41    1
    45    18    42    1
    46    19    43    1
    47    19    44    1
    48    20    45    1
    49    20    46    1
    50    24    47    1
    51    24    48    1
    52    24    49    1
