@<TRIPOS>MOLECULE
*****
 67 71 0 0 0
SMALL
GASTEIGER

@<TRIPOS>ATOM
      1 C          -9.8065   -1.3912   -0.2873 C.3     1  UNL1        0.0804
      2 O          -9.7965    0.0213   -0.1553 O.3     1  UNL1       -0.4796
      3 C          -8.5588    0.6468   -0.2379 C.ar    1  UNL1        0.2147
      4 C          -8.5347    2.0197   -0.1118 C.ar    1  UNL1       -0.0000
      5 C          -7.3244    2.7025   -0.1859 C.ar    1  UNL1       -0.0549
      6 C          -6.1542    1.9689   -0.3884 C.ar    1  UNL1       -0.0373
      7 C          -6.2121    0.6013   -0.5102 C.ar    1  UNL1        0.0765
      8 C          -5.0079   -0.2238   -0.7245 C.3     1  UNL1        0.1078
      9 O          -5.4080   -1.3654   -1.4456 O.3     1  UNL1       -0.3824
     10 C          -4.4622   -0.6078    0.6290 C.3     1  UNL1       -0.0170
     11 C          -2.9738   -0.2426    0.6801 C.3     1  UNL1       -0.0344
     12 C          -2.3000   -0.9747   -0.4282 C.3     1  UNL1        0.0107
     13 N          -0.8707   -0.8849   -0.4028 N.3     1  UNL1       -0.2958
     14 C          -0.1493   -1.5646   -1.4313 C.3     1  UNL1        0.0189
     15 C           1.0001   -1.6452   -0.4285 C.3     1  UNL1        0.0486
     16 N           1.6445   -0.3657   -0.3216 N.am    1  UNL1       -0.3087
     17 C           3.0510   -0.1804   -0.2362 C.2     1  UNL1        0.2304
     18 O           3.7500   -1.2364   -0.2590 O.2     1  UNL1       -0.2741
     19 C           3.6498    1.1810   -0.1267 C.3     1  UNL1        0.0870
     20 N           5.1079    1.0366   -0.0539 N.pl3   1  UNL1       -0.3199
     21 C           5.6628    0.3046    1.0212 C.ar    1  UNL1        0.1301
     22 N           4.8481   -0.2507    1.9675 N.ar    1  UNL1       -0.2203
     23 C           5.2950   -0.9543    3.0121 C.ar    1  UNL1        0.1187
     24 N           6.6216   -1.1139    3.1211 N.ar    1  UNL1       -0.2353
     25 C           7.4876   -0.5970    2.2289 C.ar    1  UNL1        0.0760
     26 C           8.8362   -0.7665    2.3514 C.ar    1  UNL1       -0.0350
     27 C           9.7527   -0.2571    1.4657 C.ar    1  UNL1       -0.0481
     28 C           9.2992    0.4648    0.3934 C.ar    1  UNL1        0.0556
     29 C          10.2231    1.0547   -0.6177 C.3     1  UNL1        0.4174
     30 F           9.9880    0.4191   -1.8113 F       1  UNL1       -0.1659
     31 F          11.5158    0.8421   -0.1935 F       1  UNL1       -0.1659
     32 F           9.9372    2.3829   -0.7611 F       1  UNL1       -0.1659
     33 C           7.9179    0.6509    0.2488 C.ar    1  UNL1       -0.0376
     34 C           7.0061    0.1345    1.1447 C.ar    1  UNL1        0.0406
     35 C          -0.1745   -1.6819    0.5627 C.3     1  UNL1        0.0189
     36 C          -2.7532   -0.3653   -1.7539 C.3     1  UNL1       -0.0344
     37 C          -3.9932    0.4745   -1.5800 C.3     1  UNL1       -0.0170
     38 N          -7.4015   -0.0099   -0.4317 N.ar    1  UNL1       -0.2150
     39 H         -10.8277   -1.7971   -0.3572 H       1  UNL1        0.0660
     40 H          -9.2343   -1.6765   -1.1942 H       1  UNL1        0.0660
     41 H          -9.2370   -1.7874    0.5769 H       1  UNL1        0.0660
     42 H          -9.4589    2.5756    0.0456 H       1  UNL1        0.0671
     43 H          -7.2571    3.7808   -0.0923 H       1  UNL1        0.0620
     44 H          -5.2294    2.5290   -0.4405 H       1  UNL1        0.0636
     45 H          -5.3592   -1.1731   -2.4301 H       1  UNL1        0.2107
     46 H          -5.0068   -0.1757    1.4708 H       1  UNL1        0.0297
     47 H          -4.5225   -1.7107    0.7141 H       1  UNL1        0.0297
     48 H          -2.9071    0.8504    0.5251 H       1  UNL1        0.0281
     49 H          -2.6274   -0.5450    1.6810 H       1  UNL1        0.0281
     50 H          -2.6063   -2.0363   -0.4010 H       1  UNL1        0.0462
     51 H           0.1828   -0.9718   -2.3001 H       1  UNL1        0.0445
     52 H          -0.5068   -2.5816   -1.6914 H       1  UNL1        0.0445
     53 H           1.6070   -2.5344   -0.4526 H       1  UNL1        0.0523
     54 H           1.0299    0.4795   -0.3067 H       1  UNL1        0.1491
     55 H           3.3708    1.8352   -0.9763 H       1  UNL1        0.0557
     56 H           3.3421    1.7029    0.8004 H       1  UNL1        0.0557
     57 H           5.7170    1.4574   -0.7677 H       1  UNL1        0.1480
     58 H           4.6714   -1.4020    3.7711 H       1  UNL1        0.1048
     59 H           9.1875   -1.3404    3.2048 H       1  UNL1        0.0639
     60 H          10.8161   -0.3940    1.5675 H       1  UNL1        0.0624
     61 H           7.5861    1.2276   -0.6112 H       1  UNL1        0.0631
     62 H          -0.4869   -2.7286    0.6804 H       1  UNL1        0.0445
     63 H           0.0382   -1.1341    1.5028 H       1  UNL1        0.0445
     64 H          -2.8807   -1.1840   -2.4700 H       1  UNL1        0.0281
     65 H          -1.9659    0.3078   -2.1517 H       1  UNL1        0.0281
     66 H          -4.4477    0.5918   -2.5941 H       1  UNL1        0.0297
     67 H          -3.7004    1.4755   -1.2453 H       1  UNL1        0.0297
@<TRIPOS>BOND
     1     1     2    1
     2     2     3    1
     3     3     4   ar
     4     4     5   ar
     5     5     6   ar
     6     6     7   ar
     7     7     8    1
     8     8     9    1
     9     8    10    1
    10    10    11    1
    11    11    12    1
    12    12    13    1
    13    13    14    1
    14    14    15    1
    15    15    16    1
    16    16    17   am
    17    17    18    2
    18    17    19    1
    19    19    20    1
    20    20    21    1
    21    21    22   ar
    22    22    23   ar
    23    23    24   ar
    24    24    25   ar
    25    25    26   ar
    26    26    27   ar
    27    27    28   ar
    28    28    29    1
    29    29    30    1
    30    29    31    1
    31    29    32    1
    32    28    33   ar
    33    33    34   ar
    34    15    35    1
    35    12    36    1
    36    36    37    1
    37     7    38   ar
    38    38     3   ar
    39    37     8    1
    40    35    13    1
    41    34    21   ar
    42    34    25   ar
    43     1    39    1
    44     1    40    1
    45     1    41    1
    46     4    42    1
    47     5    43    1
    48     6    44    1
    49     9    45    1
    50    10    46    1
    51    10    47    1
    52    11    48    1
    53    11    49    1
    54    12    50    1
    55    14    51    1
    56    14    52    1
    57    15    53    1
    58    16    54    1
    59    19    55    1
    60    19    56    1
    61    20    57    1
    62    23    58    1
    63    26    59    1
    64    27    60    1
    65    33    61    1
    66    35    62    1
    67    35    63    1
    68    36    64    1
    69    36    65    1
    70    37    66    1
    71    37    67    1
