@<TRIPOS>MOLECULE
*****
 38 41 0 0 0
SMALL
GASTEIGER

@<TRIPOS>ATOM
      1 O          -2.5257    5.0116    0.3270 O.3     1  UNL1       -0.4782
      2 C          -2.1541    3.8626    0.9922 C.2     1  UNL1        0.3454
      3 O          -2.7041    3.8868    2.1382 O.2     1  UNL1       -0.2471
      4 C          -1.2646    2.8976    0.3150 C.3     1  UNL1        0.2137
      5 O          -0.9870    1.7801    1.1411 O.2     1  UNL1       -0.3817
      6 N          -0.1812    0.8307    0.6240 N.2     1  UNL1       -0.0818
      7 C          -0.4889   -0.3155    0.2829 C.2     1  UNL1        0.1375
      8 C          -1.8637   -0.7335    0.4380 C.2     1  UNL1        0.0272
      9 C          -3.0045   -0.2302    0.8700 C.2     1  UNL1       -0.0509
     10 C          -4.2345   -1.0075    0.8648 C.2     1  UNL1       -0.0647
     11 C          -4.3058   -2.2371    0.4417 C.2     1  UNL1       -0.0782
     12 C          -3.1515   -3.0084   -0.0890 C.3     1  UNL1        0.0087
     13 C          -1.9389   -2.1305   -0.0440 C.2     1  UNL1        0.0551
     14 N          -0.7651   -2.4450   -0.4159 N.2     1  UNL1       -0.2482
     15 C           0.1943   -1.4419   -0.2702 C.2     1  UNL1        0.1060
     16 C           1.4270   -1.5641   -0.5865 C.2     1  UNL1        0.0749
     17 C           2.0969   -2.7260   -1.1495 C.2     1  UNL1        0.2702
     18 O           1.5001   -3.8003   -1.4008 O.2     1  UNL1       -0.2680
     19 N           3.4754   -2.3629   -1.3248 N.am    1  UNL1       -0.1801
     20 C           3.6591   -1.1417   -0.9296 C.2     1  UNL1        0.0460
     21 C           5.0233   -0.5741   -1.0289 C.3     1  UNL1        0.0065
     22 C           4.9407    0.8148   -0.5149 C.2     1  UNL1       -0.0784
     23 C           3.8244    1.4061   -0.0569 C.2     1  UNL1       -0.0647
     24 C           2.5830    0.6564   -0.0498 C.2     1  UNL1       -0.0526
     25 C           2.4168   -0.5567   -0.4460 C.2     1  UNL1        0.0086
     26 H          -2.6744    5.9105    0.7190 H       1  UNL1        0.2952
     27 H          -0.2871    3.3490   -0.0030 H       1  UNL1        0.0843
     28 H          -1.7834    2.5072   -0.5867 H       1  UNL1        0.0843
     29 H          -3.0521    0.7811    1.2415 H       1  UNL1        0.0625
     30 H          -5.1572   -0.5754    1.2231 H       1  UNL1        0.0615
     31 H          -5.1640   -2.8927    0.3976 H       1  UNL1        0.0576
     32 H          -3.0107   -3.9583    0.4570 H       1  UNL1        0.0371
     33 H          -3.3661   -3.2612   -1.1601 H       1  UNL1        0.0371
     34 H           5.7500   -1.1242   -0.3820 H       1  UNL1        0.0369
     35 H           5.4086   -0.5729   -2.0658 H       1  UNL1        0.0369
     36 H           5.9066    1.2657   -0.5677 H       1  UNL1        0.0576
     37 H           4.0134    2.4188    0.2627 H       1  UNL1        0.0615
     38 H           1.8450    1.2809    0.3364 H       1  UNL1        0.0624
@<TRIPOS>BOND
     1     1     2    1
     2     2     3    2
     3     2     4    1
     4     4     5    1
     5     5     6    1
     6     6     7    2
     7     7     8    1
     8     8     9    2
     9     9    10    1
    10    10    11    2
    11    11    12    1
    12    12    13    1
    13    13    14    2
    14    14    15    1
    15    15    16    2
    16    16    17    1
    17    17    18    2
    18    17    19    1
    19    19    20    2
    20    20    21    1
    21    21    22    1
    22    22    23    2
    23    23    24    1
    24    24    25    2
    25    15     7    1
    26    25    16    1
    27    13     8    1
    28    25    20    1
    29     1    26    1
    30     4    27    1
    31     4    28    1
    32     9    29    1
    33    10    30    1
    34    11    31    1
    35    12    32    1
    36    12    33    1
    37    21    34    1
    38    21    35    1
    39    22    36    1
    40    23    37    1
    41    24    38    1
