
     RDKit          3D

 38 41  0  0  0  0  0  0  0  0999 V2000
   -2.5257    5.0116    0.3270 O   0  0  0  0  0  0  0  0  0  0  0  0
   -2.1541    3.8626    0.9922 C   0  0  0  0  0  0  0  0  0  0  0  0
   -2.7041    3.8868    2.1382 O   0  0  0  0  0  0  0  0  0  0  0  0
   -1.2646    2.8976    0.3150 C   0  0  0  0  0  0  0  0  0  0  0  0
   -0.9870    1.7801    1.1411 O   0  0  0  0  0  0  0  0  0  0  0  0
   -0.1812    0.8307    0.6240 N   0  0  0  0  0  0  0  0  0  0  0  0
   -0.4889   -0.3155    0.2829 C   0  0  0  0  0  0  0  0  0  0  0  0
   -1.8637   -0.7335    0.4380 C   0  0  0  0  0  0  0  0  0  0  0  0
   -3.0045   -0.2302    0.8700 C   0  0  0  0  0  0  0  0  0  0  0  0
   -4.2345   -1.0075    0.8648 C   0  0  0  0  0  0  0  0  0  0  0  0
   -4.3058   -2.2371    0.4417 C   0  0  0  0  0  0  0  0  0  0  0  0
   -3.1515   -3.0084   -0.0890 C   0  0  0  0  0  0  0  0  0  0  0  0
   -1.9389   -2.1305   -0.0440 C   0  0  0  0  0  0  0  0  0  0  0  0
   -0.7651   -2.4450   -0.4159 N   0  0  0  0  0  0  0  0  0  0  0  0
    0.1943   -1.4419   -0.2702 C   0  0  0  0  0  0  0  0  0  0  0  0
    1.4270   -1.5641   -0.5865 C   0  0  0  0  0  0  0  0  0  0  0  0
    2.0969   -2.7260   -1.1495 C   0  0  0  0  0  0  0  0  0  0  0  0
    1.5001   -3.8003   -1.4008 O   0  0  0  0  0  0  0  0  0  0  0  0
    3.4754   -2.3629   -1.3248 N   0  0  0  0  0  0  0  0  0  0  0  0
    3.6591   -1.1417   -0.9296 C   0  0  0  0  0  0  0  0  0  0  0  0
    5.0233   -0.5741   -1.0289 C   0  0  0  0  0  0  0  0  0  0  0  0
    4.9407    0.8148   -0.5149 C   0  0  0  0  0  0  0  0  0  0  0  0
    3.8244    1.4061   -0.0569 C   0  0  0  0  0  0  0  0  0  0  0  0
    2.5830    0.6564   -0.0498 C   0  0  0  0  0  0  0  0  0  0  0  0
    2.4168   -0.5567   -0.4460 C   0  0  0  0  0  0  0  0  0  0  0  0
   -2.6744    5.9105    0.7190 H   0  0  0  0  0  0  0  0  0  0  0  0
   -0.2871    3.3490   -0.0030 H   0  0  0  0  0  0  0  0  0  0  0  0
   -1.7834    2.5072   -0.5867 H   0  0  0  0  0  0  0  0  0  0  0  0
   -3.0521    0.7811    1.2415 H   0  0  0  0  0  0  0  0  0  0  0  0
   -5.1572   -0.5754    1.2231 H   0  0  0  0  0  0  0  0  0  0  0  0
   -5.1640   -2.8927    0.3976 H   0  0  0  0  0  0  0  0  0  0  0  0
   -3.0107   -3.9583    0.4570 H   0  0  0  0  0  0  0  0  0  0  0  0
   -3.3661   -3.2612   -1.1601 H   0  0  0  0  0  0  0  0  0  0  0  0
    5.7500   -1.1242   -0.3820 H   0  0  0  0  0  0  0  0  0  0  0  0
    5.4086   -0.5729   -2.0658 H   0  0  0  0  0  0  0  0  0  0  0  0
    5.9066    1.2657   -0.5677 H   0  0  0  0  0  0  0  0  0  0  0  0
    4.0134    2.4188    0.2627 H   0  0  0  0  0  0  0  0  0  0  0  0
    1.8450    1.2809    0.3364 H   0  0  0  0  0  0  0  0  0  0  0  0
  1  2  1  0
  2  3  2  0
  2  4  1  0
  4  5  1  0
  5  6  1  0
  6  7  2  0
  7  8  1  0
  8  9  2  0
  9 10  1  0
 10 11  2  0
 11 12  1  0
 12 13  1  0
 13 14  2  0
 14 15  1  0
 15 16  2  0
 16 17  1  0
 17 18  2  0
 17 19  1  0
 19 20  2  0
 20 21  1  0
 21 22  1  0
 22 23  2  0
 23 24  1  0
 24 25  2  0
 15  7  1  0
 25 16  1  0
 13  8  1  0
 25 20  1  0
  1 26  1  0
  4 27  1  0
  4 28  1  0
  9 29  1  0
 10 30  1  0
 11 31  1  0
 12 32  1  0
 12 33  1  0
 21 34  1  0
 21 35  1  0
 22 36  1  0
 23 37  1  0
 24 38  1  0
M  END
$$$$
