
     RDKit          3D

 50 53  0  0  0  0  0  0  0  0999 V2000
    1.4769    1.9300   -0.2901 O   0  0  0  0  0  0  0  0  0  0  0  0
    1.7286    0.7024   -0.1667 C   0  0  0  0  0  0  0  0  0  0  0  0
    3.0695    0.2480   -0.1515 N   0  0  0  0  0  0  0  0  0  0  0  0
    4.2121    1.0704   -0.2737 C   0  0  0  0  0  0  0  0  0  0  0  0
    4.1407    2.3746   -0.6870 C   0  0  0  0  0  0  0  0  0  0  0  0
    5.2498    3.2233   -0.8000 C   0  0  0  0  0  0  0  0  0  0  0  0
    6.4777    2.7308   -0.4827 C   0  0  0  0  0  0  0  0  0  0  0  0
    6.5911    1.4456   -0.0698 C   0  0  0  0  0  0  0  0  0  0  0  0
    5.4696    0.6032    0.0404 C   0  0  0  0  0  0  0  0  0  0  0  0
    5.6992   -0.7386    0.5166 C   0  0  0  0  0  0  0  0  0  0  0  0
    4.8766   -1.6410    0.7296 O   0  0  0  0  0  0  0  0  0  0  0  0
    7.0473   -1.1173    0.7915 O   0  0  0  0  0  0  0  0  0  0  0  0
    0.6124   -0.2205   -0.0421 C   0  0  0  0  0  0  0  0  0  0  0  0
    0.7725   -1.5603    0.1127 C   0  0  0  0  0  0  0  0  0  0  0  0
   -0.3507   -2.4073    0.2271 C   0  0  0  0  0  0  0  0  0  0  0  0
   -1.6335   -1.9139    0.1868 C   0  0  0  0  0  0  0  0  0  0  0  0
   -2.7965   -2.7895    0.3052 C   0  0  0  0  0  0  0  0  0  0  0  0
   -3.8455   -2.4117    1.1440 C   0  0  0  0  0  0  0  0  0  0  0  0
   -4.9382   -3.2331    1.2559 C   0  0  0  0  0  0  0  0  0  0  0  0
   -5.0490   -4.4395    0.5633 C   0  0  0  0  0  0  0  0  0  0  0  0
   -4.0079   -4.8059   -0.2637 C   0  0  0  0  0  0  0  0  0  0  0  0
   -2.8974   -3.9822   -0.3846 C   0  0  0  0  0  0  0  0  0  0  0  0
   -1.7664   -0.5476    0.0286 C   0  0  0  0  0  0  0  0  0  0  0  0
   -3.0671   -0.0249   -0.0148 O   0  0  0  0  0  0  0  0  0  0  0  0
   -3.2961    1.3348   -0.1709 C   0  0  0  0  0  0  0  0  0  0  0  0
   -3.4008    2.1858    0.9062 C   0  0  0  0  0  0  0  0  0  0  0  0
   -3.6275    3.5373    0.7783 C   0  0  0  0  0  0  0  0  0  0  0  0
   -3.7558    4.0618   -0.4974 C   0  0  0  0  0  0  0  0  0  0  0  0
   -3.6573    3.2452   -1.5914 C   0  0  0  0  0  0  0  0  0  0  0  0
   -3.4291    1.8924   -1.4259 C   0  0  0  0  0  0  0  0  0  0  0  0
   -0.6917    0.2972   -0.0849 C   0  0  0  0  0  0  0  0  0  0  0  0
    3.1827   -0.8150   -0.0602 H   0  0  0  0  0  0  0  0  0  0  0  0
    3.2291    2.8299   -0.9667 H   0  0  0  0  0  0  0  0  0  0  0  0
    5.1516    4.2465   -1.1294 H   0  0  0  0  0  0  0  0  0  0  0  0
    7.3767    3.3572   -0.5557 H   0  0  0  0  0  0  0  0  0  0  0  0
    7.5804    1.0822    0.1752 H   0  0  0  0  0  0  0  0  0  0  0  0
    7.2679   -2.0832    1.0195 H   0  0  0  0  0  0  0  0  0  0  0  0
    1.7510   -2.0189    0.1540 H   0  0  0  0  0  0  0  0  0  0  0  0
   -0.1883   -3.4799    0.3505 H   0  0  0  0  0  0  0  0  0  0  0  0
   -3.7662   -1.4809    1.6819 H   0  0  0  0  0  0  0  0  0  0  0  0
   -5.7653   -2.9737    1.8932 H   0  0  0  0  0  0  0  0  0  0  0  0
   -5.9318   -5.0724    0.6731 H   0  0  0  0  0  0  0  0  0  0  0  0
   -4.0932   -5.7405   -0.8007 H   0  0  0  0  0  0  0  0  0  0  0  0
   -2.0838   -4.2633   -1.0276 H   0  0  0  0  0  0  0  0  0  0  0  0
   -3.2993    1.7648    1.8841 H   0  0  0  0  0  0  0  0  0  0  0  0
   -3.7015    4.1584    1.6388 H   0  0  0  0  0  0  0  0  0  0  0  0
   -3.9328    5.1203   -0.5813 H   0  0  0  0  0  0  0  0  0  0  0  0
   -3.7584    3.6602   -2.5888 H   0  0  0  0  0  0  0  0  0  0  0  0
   -3.3612    1.2988   -2.3352 H   0  0  0  0  0  0  0  0  0  0  0  0
   -0.8714    1.3597   -0.2069 H   0  0  0  0  0  0  0  0  0  0  0  0
  1  2  2  0
  2  3  1  0
  3  4  1  0
  4  5  2  0
  5  6  1  0
  6  7  2  0
  7  8  1  0
  8  9  2  0
  9 10  1  0
 10 11  2  0
 10 12  1  0
  2 13  1  0
 13 14  2  0
 14 15  1  0
 15 16  2  0
 16 17  1  0
 17 18  2  0
 18 19  1  0
 19 20  2  0
 20 21  1  0
 21 22  2  0
 16 23  1  0
 23 24  1  0
 24 25  1  0
 25 26  2  0
 26 27  1  0
 27 28  2  0
 28 29  1  0
 29 30  2  0
 23 31  2  0
  9  4  1  0
 31 13  1  0
 22 17  1  0
 30 25  1  0
  3 32  1  0
  5 33  1  0
  6 34  1  0
  7 35  1  0
  8 36  1  0
 12 37  1  0
 14 38  1  0
 15 39  1  0
 18 40  1  0
 19 41  1  0
 20 42  1  0
 21 43  1  0
 22 44  1  0
 26 45  1  0
 27 46  1  0
 28 47  1  0
 29 48  1  0
 30 49  1  0
 31 50  1  0
M  END
$$$$
