@<TRIPOS>MOLECULE
*****
 50 53 0 0 0
SMALL
GASTEIGER

@<TRIPOS>ATOM
      1 O           1.4769    1.9300   -0.2901 O.2     1  UNL1       -0.2699
      2 C           1.7286    0.7024   -0.1667 C.2     1  UNL1        0.2484
      3 N           3.0695    0.2480   -0.1515 N.am    1  UNL1       -0.2808
      4 C           4.2121    1.0704   -0.2737 C.ar    1  UNL1        0.0477
      5 C           4.1407    2.3746   -0.6870 C.ar    1  UNL1       -0.0397
      6 C           5.2498    3.2233   -0.8000 C.ar    1  UNL1       -0.0600
      7 C           6.4777    2.7308   -0.4827 C.ar    1  UNL1       -0.0609
      8 C           6.5911    1.4456   -0.0698 C.ar    1  UNL1       -0.0460
      9 C           5.4696    0.6032    0.0404 C.ar    1  UNL1        0.0800
     10 C           5.6992   -0.7386    0.5166 C.2     1  UNL1        0.3386
     11 O           4.8766   -1.6410    0.7296 O.2     1  UNL1       -0.2451
     12 O           7.0473   -1.1173    0.7915 O.3     1  UNL1       -0.4771
     13 C           0.6124   -0.2205   -0.0421 C.ar    1  UNL1        0.0405
     14 C           0.7725   -1.5603    0.1127 C.ar    1  UNL1       -0.0488
     15 C          -0.3507   -2.4073    0.2271 C.ar    1  UNL1       -0.0498
     16 C          -1.6335   -1.9139    0.1868 C.ar    1  UNL1        0.0244
     17 C          -2.7965   -2.7895    0.3052 C.ar    1  UNL1       -0.0144
     18 C          -3.8455   -2.4117    1.1440 C.ar    1  UNL1       -0.0539
     19 C          -4.9382   -3.2331    1.2559 C.ar    1  UNL1       -0.0612
     20 C          -5.0490   -4.4395    0.5633 C.ar    1  UNL1       -0.0617
     21 C          -4.0079   -4.8059   -0.2637 C.ar    1  UNL1       -0.0612
     22 C          -2.8974   -3.9822   -0.3846 C.ar    1  UNL1       -0.0539
     23 C          -1.7664   -0.5476    0.0286 C.ar    1  UNL1        0.1368
     24 O          -3.0671   -0.0249   -0.0148 O.3     1  UNL1       -0.4554
     25 C          -3.2961    1.3348   -0.1709 C.ar    1  UNL1        0.1285
     26 C          -3.4008    2.1858    0.9062 C.ar    1  UNL1       -0.0193
     27 C          -3.6275    3.5373    0.7783 C.ar    1  UNL1       -0.0583
     28 C          -3.7558    4.0618   -0.4974 C.ar    1  UNL1       -0.0615
     29 C          -3.6573    3.2452   -1.5914 C.ar    1  UNL1       -0.0583
     30 C          -3.4291    1.8924   -1.4259 C.ar    1  UNL1       -0.0193
     31 C          -0.6917    0.2972   -0.0849 C.ar    1  UNL1       -0.0066
     32 H           3.1827   -0.8150   -0.0602 H       1  UNL1        0.1552
     33 H           3.2291    2.8299   -0.9667 H       1  UNL1        0.0636
     34 H           5.1516    4.2465   -1.1294 H       1  UNL1        0.0618
     35 H           7.3767    3.3572   -0.5557 H       1  UNL1        0.0618
     36 H           7.5804    1.0822    0.1752 H       1  UNL1        0.0626
     37 H           7.2679   -2.0832    1.0195 H       1  UNL1        0.2954
     38 H           1.7510   -2.0189    0.1540 H       1  UNL1        0.0625
     39 H          -0.1883   -3.4799    0.3505 H       1  UNL1        0.0625
     40 H          -3.7662   -1.4809    1.6819 H       1  UNL1        0.0624
     41 H          -5.7653   -2.9737    1.8932 H       1  UNL1        0.0618
     42 H          -5.9318   -5.0724    0.6731 H       1  UNL1        0.0618
     43 H          -4.0932   -5.7405   -0.8007 H       1  UNL1        0.0618
     44 H          -2.0838   -4.2633   -1.0276 H       1  UNL1        0.0624
     45 H          -3.2993    1.7648    1.8841 H       1  UNL1        0.0654
     46 H          -3.7015    4.1584    1.6388 H       1  UNL1        0.0619
     47 H          -3.9328    5.1203   -0.5813 H       1  UNL1        0.0618
     48 H          -3.7584    3.6602   -2.5888 H       1  UNL1        0.0619
     49 H          -3.3612    1.2988   -2.3352 H       1  UNL1        0.0654
     50 H          -0.8714    1.3597   -0.2069 H       1  UNL1        0.0662
@<TRIPOS>BOND
     1     1     2    2
     2     2     3   am
     3     3     4    1
     4     4     5   ar
     5     5     6   ar
     6     6     7   ar
     7     7     8   ar
     8     8     9   ar
     9     9    10    1
    10    10    11    2
    11    10    12    1
    12     2    13    1
    13    13    14   ar
    14    14    15   ar
    15    15    16   ar
    16    16    17    1
    17    17    18   ar
    18    18    19   ar
    19    19    20   ar
    20    20    21   ar
    21    21    22   ar
    22    16    23   ar
    23    23    24    1
    24    24    25    1
    25    25    26   ar
    26    26    27   ar
    27    27    28   ar
    28    28    29   ar
    29    29    30   ar
    30    23    31   ar
    31     9     4   ar
    32    31    13   ar
    33    22    17   ar
    34    30    25   ar
    35     3    32    1
    36     5    33    1
    37     6    34    1
    38     7    35    1
    39     8    36    1
    40    12    37    1
    41    14    38    1
    42    15    39    1
    43    18    40    1
    44    19    41    1
    45    20    42    1
    46    21    43    1
    47    22    44    1
    48    26    45    1
    49    27    46    1
    50    28    47    1
    51    29    48    1
    52    30    49    1
    53    31    50    1
