@<TRIPOS>MOLECULE
*****
 50 53 0 0 0
SMALL
GASTEIGER

@<TRIPOS>ATOM
      1 N           7.1101   -1.6630    1.5195 N.pl3   1  UNL1       -0.3377
      2 C           6.3161   -0.7625    0.7528 C.ar    1  UNL1        0.1964
      3 N           5.3214   -0.0692    1.3021 N.ar    1  UNL1       -0.2113
      4 C           4.5240    0.8022    0.6669 C.ar    1  UNL1        0.1213
      5 N           3.5197    1.5171    1.3373 N.pl3   1  UNL1       -0.3275
      6 C           2.5585    2.3906    0.7689 C.3     1  UNL1        0.0260
      7 C           1.4687    1.6715   -0.0259 C.3     1  UNL1        0.0273
      8 N           0.7807    0.7784    0.8746 N.pl3   1  UNL1       -0.3120
      9 C          -0.3726    0.0813    0.3917 C.ar    1  UNL1        0.2158
     10 N          -0.3315   -1.1172   -0.2088 N.ar    1  UNL1       -0.2222
     11 C          -1.4521   -1.7538   -0.6392 C.ar    1  UNL1        0.0439
     12 C          -2.6978   -1.1537   -0.4569 C.ar    1  UNL1        0.0614
     13 C          -3.9349   -1.7747   -0.8842 C.ar    1  UNL1        0.1417
     14 N          -5.1915   -1.3721   -0.8073 N.ar    1  UNL1       -0.2360
     15 C          -6.0004   -2.3016   -1.3455 C.ar    1  UNL1        0.0458
     16 C          -5.2209   -3.3464   -1.7866 C.ar    1  UNL1        0.0216
     17 N          -3.9686   -2.9963   -1.4916 N.ar    1  UNL1       -0.3443
     18 C          -2.7490    0.0670    0.1544 C.ar    1  UNL1        0.0880
     19 C          -4.0192    0.7116    0.3702 C.ar    1  UNL1        0.0196
     20 C          -4.8768    0.3458    1.3625 C.ar    1  UNL1       -0.0498
     21 C          -6.0555    1.0508    1.4712 C.ar    1  UNL1       -0.0427
     22 C          -6.4088    2.0926    0.6413 C.ar    1  UNL1        0.0424
     23 CL         -7.9401    2.9591    0.8394 Cl      1  UNL1       -0.0835
     24 C          -5.5245    2.4476   -0.3598 C.ar    1  UNL1       -0.0244
     25 C          -4.3398    1.7605   -0.4923 C.ar    1  UNL1        0.0515
     26 CL         -3.2637    2.2500   -1.7796 Cl      1  UNL1       -0.0828
     27 N          -1.6029    0.6451    0.5566 N.ar    1  UNL1       -0.2137
     28 C           4.7808    0.9787   -0.6901 C.ar    1  UNL1       -0.0153
     29 C           5.8034    0.2841   -1.3180 C.ar    1  UNL1        0.0224
     30 C           6.5875   -0.6042   -0.5835 C.ar    1  UNL1        0.3123
     31 N           7.6308   -1.2958   -1.2339 N.pl3   1  UNL1        0.0832
     32 O           7.9566   -2.4336   -0.8818 O.2     1  UNL1        0.0416
     33 O           8.2888   -0.6979   -2.2698 O.co2   1  UNL1       -0.5759
     34 H           7.1045   -2.6911    1.4396 H       1  UNL1        0.1439
     35 H           7.7741   -1.2643    2.2460 H       1  UNL1        0.1439
     36 H           3.4719    1.3901    2.3928 H       1  UNL1        0.1475
     37 H           2.9966    3.1333    0.0632 H       1  UNL1        0.0477
     38 H           2.0741    3.0142    1.5734 H       1  UNL1        0.0477
     39 H           0.7877    2.4038   -0.5060 H       1  UNL1        0.0477
     40 H           1.9591    1.1309   -0.8568 H       1  UNL1        0.0477
     41 H           1.1392    0.6666    1.8415 H       1  UNL1        0.1490
     42 H          -1.3979   -2.7235   -1.1240 H       1  UNL1        0.0838
     43 H          -7.0891   -2.2818   -1.4411 H       1  UNL1        0.0845
     44 H          -5.4993   -4.2715   -2.2720 H       1  UNL1        0.0823
     45 H          -3.1258   -3.6072   -1.7110 H       1  UNL1        0.1668
     46 H          -4.5952   -0.4753    2.0111 H       1  UNL1        0.0625
     47 H          -6.7226    0.7450    2.2712 H       1  UNL1        0.0632
     48 H          -5.8066    3.2828   -1.0214 H       1  UNL1        0.0647
     49 H           4.2167    1.6506   -1.2952 H       1  UNL1        0.0654
     50 H           6.0162    0.4056   -2.3629 H       1  UNL1        0.0687
@<TRIPOS>UNITY_ATOM_ATTR
31 1
charge 1
33 1
charge -1
@<TRIPOS>BOND
     1     1     2    1
     2     2     3   ar
     3     3     4   ar
     4     4     5    1
     5     5     6    1
     6     6     7    1
     7     7     8    1
     8     8     9    1
     9     9    10   ar
    10    10    11   ar
    11    11    12   ar
    12    12    13    1
    13    13    14   ar
    14    14    15   ar
    15    15    16   ar
    16    16    17   ar
    17    12    18   ar
    18    18    19    1
    19    19    20   ar
    20    20    21   ar
    21    21    22   ar
    22    22    23    1
    23    22    24   ar
    24    24    25   ar
    25    25    26    1
    26    18    27   ar
    27     4    28   ar
    28    28    29   ar
    29    29    30   ar
    30    30    31    1
    31    31    32    2
    32    31    33    1
    33    30     2   ar
    34    27     9   ar
    35    17    13   ar
    36    25    19   ar
    37     1    34    1
    38     1    35    1
    39     5    36    1
    40     6    37    1
    41     6    38    1
    42     7    39    1
    43     7    40    1
    44     8    41    1
    45    11    42    1
    46    15    43    1
    47    16    44    1
    48    17    45    1
    49    20    46    1
    50    21    47    1
    51    24    48    1
    52    28    49    1
    53    29    50    1
