
     RDKit          3D

 50 53  0  0  0  0  0  0  0  0999 V2000
    7.1101   -1.6630    1.5195 N   0  0  0  0  0  0  0  0  0  0  0  0
    6.3161   -0.7625    0.7528 C   0  0  0  0  0  0  0  0  0  0  0  0
    5.3214   -0.0692    1.3021 N   0  0  0  0  0  0  0  0  0  0  0  0
    4.5240    0.8022    0.6669 C   0  0  0  0  0  0  0  0  0  0  0  0
    3.5197    1.5171    1.3373 N   0  0  0  0  0  0  0  0  0  0  0  0
    2.5585    2.3906    0.7689 C   0  0  0  0  0  0  0  0  0  0  0  0
    1.4687    1.6715   -0.0259 C   0  0  0  0  0  0  0  0  0  0  0  0
    0.7807    0.7784    0.8746 N   0  0  0  0  0  0  0  0  0  0  0  0
   -0.3726    0.0813    0.3917 C   0  0  0  0  0  0  0  0  0  0  0  0
   -0.3315   -1.1172   -0.2088 N   0  0  0  0  0  0  0  0  0  0  0  0
   -1.4521   -1.7538   -0.6392 C   0  0  0  0  0  0  0  0  0  0  0  0
   -2.6978   -1.1537   -0.4569 C   0  0  0  0  0  0  0  0  0  0  0  0
   -3.9349   -1.7747   -0.8842 C   0  0  0  0  0  0  0  0  0  0  0  0
   -5.1915   -1.3721   -0.8073 N   0  0  0  0  0  0  0  0  0  0  0  0
   -6.0004   -2.3016   -1.3455 C   0  0  0  0  0  0  0  0  0  0  0  0
   -5.2209   -3.3464   -1.7866 C   0  0  0  0  0  0  0  0  0  0  0  0
   -3.9686   -2.9963   -1.4916 N   0  0  0  0  0  0  0  0  0  0  0  0
   -2.7490    0.0670    0.1544 C   0  0  0  0  0  0  0  0  0  0  0  0
   -4.0192    0.7116    0.3702 C   0  0  0  0  0  0  0  0  0  0  0  0
   -4.8768    0.3458    1.3625 C   0  0  0  0  0  0  0  0  0  0  0  0
   -6.0555    1.0508    1.4712 C   0  0  0  0  0  0  0  0  0  0  0  0
   -6.4088    2.0926    0.6413 C   0  0  0  0  0  0  0  0  0  0  0  0
   -7.9401    2.9591    0.8394 Cl  0  0  0  0  0  0  0  0  0  0  0  0
   -5.5245    2.4476   -0.3598 C   0  0  0  0  0  0  0  0  0  0  0  0
   -4.3398    1.7605   -0.4923 C   0  0  0  0  0  0  0  0  0  0  0  0
   -3.2637    2.2500   -1.7796 Cl  0  0  0  0  0  0  0  0  0  0  0  0
   -1.6029    0.6451    0.5566 N   0  0  0  0  0  0  0  0  0  0  0  0
    4.7808    0.9787   -0.6901 C   0  0  0  0  0  0  0  0  0  0  0  0
    5.8034    0.2841   -1.3180 C   0  0  0  0  0  0  0  0  0  0  0  0
    6.5875   -0.6042   -0.5835 C   0  0  0  0  0  0  0  0  0  0  0  0
    7.6308   -1.2958   -1.2339 N   0  0  0  0  0  4  0  0  0  0  0  0
    7.9566   -2.4336   -0.8818 O   0  0  0  0  0  0  0  0  0  0  0  0
    8.2888   -0.6979   -2.2698 O   0  0  0  0  0  1  0  0  0  0  0  0
    7.1045   -2.6911    1.4396 H   0  0  0  0  0  0  0  0  0  0  0  0
    7.7741   -1.2643    2.2460 H   0  0  0  0  0  0  0  0  0  0  0  0
    3.4719    1.3901    2.3928 H   0  0  0  0  0  0  0  0  0  0  0  0
    2.9966    3.1333    0.0632 H   0  0  0  0  0  0  0  0  0  0  0  0
    2.0741    3.0142    1.5734 H   0  0  0  0  0  0  0  0  0  0  0  0
    0.7877    2.4038   -0.5060 H   0  0  0  0  0  0  0  0  0  0  0  0
    1.9591    1.1309   -0.8568 H   0  0  0  0  0  0  0  0  0  0  0  0
    1.1392    0.6666    1.8415 H   0  0  0  0  0  0  0  0  0  0  0  0
   -1.3979   -2.7235   -1.1240 H   0  0  0  0  0  0  0  0  0  0  0  0
   -7.0891   -2.2818   -1.4411 H   0  0  0  0  0  0  0  0  0  0  0  0
   -5.4993   -4.2715   -2.2720 H   0  0  0  0  0  0  0  0  0  0  0  0
   -3.1258   -3.6072   -1.7110 H   0  0  0  0  0  0  0  0  0  0  0  0
   -4.5952   -0.4753    2.0111 H   0  0  0  0  0  0  0  0  0  0  0  0
   -6.7226    0.7450    2.2712 H   0  0  0  0  0  0  0  0  0  0  0  0
   -5.8066    3.2828   -1.0214 H   0  0  0  0  0  0  0  0  0  0  0  0
    4.2167    1.6506   -1.2952 H   0  0  0  0  0  0  0  0  0  0  0  0
    6.0162    0.4056   -2.3629 H   0  0  0  0  0  0  0  0  0  0  0  0
  1  2  1  0
  2  3  2  0
  3  4  1  0
  4  5  1  0
  5  6  1  0
  6  7  1  0
  7  8  1  0
  8  9  1  0
  9 10  2  0
 10 11  1  0
 11 12  2  0
 12 13  1  0
 13 14  2  0
 14 15  1  0
 15 16  2  0
 16 17  1  0
 12 18  1  0
 18 19  1  0
 19 20  2  0
 20 21  1  0
 21 22  2  0
 22 23  1  0
 22 24  1  0
 24 25  2  0
 25 26  1  0
 18 27  2  0
  4 28  2  0
 28 29  1  0
 29 30  2  0
 30 31  1  0
 31 32  2  0
 31 33  1  0
 30  2  1  0
 27  9  1  0
 17 13  1  0
 25 19  1  0
  1 34  1  0
  1 35  1  0
  5 36  1  0
  6 37  1  0
  6 38  1  0
  7 39  1  0
  7 40  1  0
  8 41  1  0
 11 42  1  0
 15 43  1  0
 16 44  1  0
 17 45  1  0
 20 46  1  0
 21 47  1  0
 24 48  1  0
 28 49  1  0
 29 50  1  0
M  CHG  2  31   1  33  -1
M  END
$$$$
