@<TRIPOS>MOLECULE
*****
 68 71 0 0 0
SMALL
GASTEIGER

@<TRIPOS>ATOM
      1 C           7.0376    0.6369    3.8381 C.3     1  UNL1       -0.0223
      2 C           6.8486    0.6295    2.3806 C.ar    1  UNL1        0.0391
      3 C           5.5982    0.3659    1.8584 C.ar    1  UNL1       -0.0329
      4 C           5.4093    0.3570    0.5108 C.ar    1  UNL1       -0.0145
      5 C           4.0945    0.0825   -0.0950 C.ar    1  UNL1       -0.0178
      6 C           3.1909   -0.7677    0.5044 C.ar    1  UNL1       -0.0537
      7 C           1.9605   -1.0186   -0.0657 C.ar    1  UNL1       -0.0562
      8 C           1.5736   -0.4365   -1.2555 C.ar    1  UNL1       -0.0271
      9 C           0.2183   -0.7465   -1.8219 C.3     1  UNL1        0.0515
     10 C          -0.1311    0.1953   -2.9436 C.3     1  UNL1       -0.0421
     11 N          -0.7686   -0.6600   -0.7569 N.am    1  UNL1       -0.2605
     12 C          -1.5644   -1.7996   -0.4343 C.3     1  UNL1        0.0224
     13 C          -2.9187   -1.4894    0.0558 C.3     1  UNL1        0.0076
     14 C          -3.2698   -0.0871    0.3837 C.3     1  UNL1        0.1440
     15 C          -4.1658    0.1062    1.5661 C.3     1  UNL1        0.0199
     16 C          -5.5083   -0.4995    1.5541 C.3     1  UNL1        0.0645
     17 C          -6.1516   -0.0781    2.9059 C.3     1  UNL1       -0.0362
     18 C          -5.5408   -2.0160    1.6727 C.3     1  UNL1       -0.0362
     19 O          -6.3423   -0.0852    0.5465 O.3     1  UNL1       -0.3890
     20 C          -3.6991    0.6423   -0.8164 C.ar    1  UNL1       -0.0040
     21 C          -4.1742    1.9346   -0.7268 C.ar    1  UNL1       -0.0548
     22 C          -4.5601    2.5888   -1.8664 C.ar    1  UNL1       -0.0614
     23 C          -4.4766    1.9691   -3.0875 C.ar    1  UNL1       -0.0617
     24 C          -4.0112    0.6857   -3.2331 C.ar    1  UNL1       -0.0614
     25 C          -3.6254    0.0488   -2.0419 C.ar    1  UNL1       -0.0548
     26 O          -2.0524    0.6023    0.7789 O.3     1  UNL1       -0.4387
     27 C          -0.9376    0.5405   -0.0173 C.2     1  UNL1        0.4042
     28 O          -0.0723    1.4446   -0.1404 O.2     1  UNL1       -0.2262
     29 C           2.4705    0.4143   -1.8609 C.ar    1  UNL1       -0.0562
     30 C           3.7177    0.6692   -1.2839 C.ar    1  UNL1       -0.0537
     31 C           6.5148    0.6209   -0.2996 C.ar    1  UNL1       -0.0329
     32 C           7.7532    0.8817    0.2232 C.ar    1  UNL1        0.0391
     33 C           8.9362    1.1637   -0.6257 C.3     1  UNL1       -0.0223
     34 N           7.8890    0.8795    1.5520 N.ar    1  UNL1       -0.2570
     35 H           6.3264   -0.0134    4.3795 H       1  UNL1        0.0292
     36 H           8.0758    0.2979    4.0729 H       1  UNL1        0.0292
     37 H           6.9357    1.6968    4.1851 H       1  UNL1        0.0292
     38 H           4.7841    0.1695    2.5382 H       1  UNL1        0.0641
     39 H           3.4557   -1.2417    1.4342 H       1  UNL1        0.0624
     40 H           1.2404   -1.6979    0.4141 H       1  UNL1        0.0621
     41 H           0.1638   -1.7690   -2.2395 H       1  UNL1        0.0549
     42 H          -1.1002   -0.1340   -3.3753 H       1  UNL1        0.0251
     43 H          -0.1203    1.2162   -2.5619 H       1  UNL1        0.0251
     44 H           0.6636    0.0355   -3.7329 H       1  UNL1        0.0251
     45 H          -1.6639   -2.4919   -1.3335 H       1  UNL1        0.0467
     46 H          -1.0248   -2.4636    0.3223 H       1  UNL1        0.0467
     47 H          -3.0859   -2.1715    0.9554 H       1  UNL1        0.0322
     48 H          -3.6754   -1.9457   -0.6633 H       1  UNL1        0.0322
     49 H          -3.6042   -0.3737    2.4291 H       1  UNL1        0.0335
     50 H          -4.1613    1.1822    1.8297 H       1  UNL1        0.0335
     51 H          -5.5411   -0.5128    3.7378 H       1  UNL1        0.0257
     52 H          -6.0417    1.0219    3.0033 H       1  UNL1        0.0257
     53 H          -7.1769   -0.4388    2.9794 H       1  UNL1        0.0257
     54 H          -4.8771   -2.3538    2.5039 H       1  UNL1        0.0257
     55 H          -6.5930   -2.2568    2.0326 H       1  UNL1        0.0257
     56 H          -5.4461   -2.5577    0.7420 H       1  UNL1        0.0257
     57 H          -6.3976   -0.6962   -0.2159 H       1  UNL1        0.2101
     58 H          -4.2359    2.4253    0.2563 H       1  UNL1        0.0622
     59 H          -4.9363    3.6191   -1.7726 H       1  UNL1        0.0618
     60 H          -4.7873    2.5012   -3.9874 H       1  UNL1        0.0618
     61 H          -3.9432    0.1895   -4.2011 H       1  UNL1        0.0618
     62 H          -3.2540   -0.9642   -2.2392 H       1  UNL1        0.0622
     63 H           2.2145    0.8879   -2.7802 H       1  UNL1        0.0621
     64 H           4.4242    1.3419   -1.7648 H       1  UNL1        0.0624
     65 H           6.3645    0.6134   -1.3614 H       1  UNL1        0.0641
     66 H           8.6172    1.5762   -1.6200 H       1  UNL1        0.0292
     67 H           9.5862    1.9387   -0.1569 H       1  UNL1        0.0292
     68 H           9.5716    0.2668   -0.7681 H       1  UNL1        0.0292
@<TRIPOS>BOND
     1     1     2    1
     2     2     3   ar
     3     3     4   ar
     4     4     5    1
     5     5     6   ar
     6     6     7   ar
     7     7     8   ar
     8     8     9    1
     9     9    10    1
    10     9    11    1
    11    11    12    1
    12    12    13    1
    13    13    14    1
    14    14    15    1
    15    15    16    1
    16    16    17    1
    17    16    18    1
    18    16    19    1
    19    14    20    1
    20    20    21   ar
    21    21    22   ar
    22    22    23   ar
    23    23    24   ar
    24    24    25   ar
    25    14    26    1
    26    26    27    1
    27    27    28    2
    28     8    29   ar
    29    29    30   ar
    30     4    31   ar
    31    31    32   ar
    32    32    33    1
    33    32    34   ar
    34    34     2   ar
    35    30     5   ar
    36    27    11   am
    37    25    20   ar
    38     1    35    1
    39     1    36    1
    40     1    37    1
    41     3    38    1
    42     6    39    1
    43     7    40    1
    44     9    41    1
    45    10    42    1
    46    10    43    1
    47    10    44    1
    48    12    45    1
    49    12    46    1
    50    13    47    1
    51    13    48    1
    52    15    49    1
    53    15    50    1
    54    17    51    1
    55    17    52    1
    56    17    53    1
    57    18    54    1
    58    18    55    1
    59    18    56    1
    60    19    57    1
    61    21    58    1
    62    22    59    1
    63    23    60    1
    64    24    61    1
    65    25    62    1
    66    29    63    1
    67    30    64    1
    68    31    65    1
    69    33    66    1
    70    33    67    1
    71    33    68    1
