
     RDKit          3D

 68 71  0  0  0  0  0  0  0  0999 V2000
    7.0376    0.6369    3.8381 C   0  0  0  0  0  0  0  0  0  0  0  0
    6.8486    0.6295    2.3806 C   0  0  0  0  0  0  0  0  0  0  0  0
    5.5982    0.3659    1.8584 C   0  0  0  0  0  0  0  0  0  0  0  0
    5.4093    0.3570    0.5108 C   0  0  0  0  0  0  0  0  0  0  0  0
    4.0945    0.0825   -0.0950 C   0  0  0  0  0  0  0  0  0  0  0  0
    3.1909   -0.7677    0.5044 C   0  0  0  0  0  0  0  0  0  0  0  0
    1.9605   -1.0186   -0.0657 C   0  0  0  0  0  0  0  0  0  0  0  0
    1.5736   -0.4365   -1.2555 C   0  0  0  0  0  0  0  0  0  0  0  0
    0.2183   -0.7465   -1.8219 C   0  0  2  0  0  0  0  0  0  0  0  0
   -0.1311    0.1953   -2.9436 C   0  0  0  0  0  0  0  0  0  0  0  0
   -0.7686   -0.6600   -0.7569 N   0  0  0  0  0  0  0  0  0  0  0  0
   -1.5644   -1.7996   -0.4343 C   0  0  0  0  0  0  0  0  0  0  0  0
   -2.9187   -1.4894    0.0558 C   0  0  0  0  0  0  0  0  0  0  0  0
   -3.2698   -0.0871    0.3837 C   0  0  2  0  0  0  0  0  0  0  0  0
   -4.1658    0.1062    1.5661 C   0  0  0  0  0  0  0  0  0  0  0  0
   -5.5083   -0.4995    1.5541 C   0  0  0  0  0  0  0  0  0  0  0  0
   -6.1516   -0.0781    2.9059 C   0  0  0  0  0  0  0  0  0  0  0  0
   -5.5408   -2.0160    1.6727 C   0  0  0  0  0  0  0  0  0  0  0  0
   -6.3423   -0.0852    0.5465 O   0  0  0  0  0  0  0  0  0  0  0  0
   -3.6991    0.6423   -0.8164 C   0  0  0  0  0  0  0  0  0  0  0  0
   -4.1742    1.9346   -0.7268 C   0  0  0  0  0  0  0  0  0  0  0  0
   -4.5601    2.5888   -1.8664 C   0  0  0  0  0  0  0  0  0  0  0  0
   -4.4766    1.9691   -3.0875 C   0  0  0  0  0  0  0  0  0  0  0  0
   -4.0112    0.6857   -3.2331 C   0  0  0  0  0  0  0  0  0  0  0  0
   -3.6254    0.0488   -2.0419 C   0  0  0  0  0  0  0  0  0  0  0  0
   -2.0524    0.6023    0.7789 O   0  0  0  0  0  0  0  0  0  0  0  0
   -0.9376    0.5405   -0.0173 C   0  0  0  0  0  0  0  0  0  0  0  0
   -0.0723    1.4446   -0.1404 O   0  0  0  0  0  0  0  0  0  0  0  0
    2.4705    0.4143   -1.8609 C   0  0  0  0  0  0  0  0  0  0  0  0
    3.7177    0.6692   -1.2839 C   0  0  0  0  0  0  0  0  0  0  0  0
    6.5148    0.6209   -0.2996 C   0  0  0  0  0  0  0  0  0  0  0  0
    7.7532    0.8817    0.2232 C   0  0  0  0  0  0  0  0  0  0  0  0
    8.9362    1.1637   -0.6257 C   0  0  0  0  0  0  0  0  0  0  0  0
    7.8890    0.8795    1.5520 N   0  0  0  0  0  0  0  0  0  0  0  0
    6.3264   -0.0134    4.3795 H   0  0  0  0  0  0  0  0  0  0  0  0
    8.0758    0.2979    4.0729 H   0  0  0  0  0  0  0  0  0  0  0  0
    6.9357    1.6968    4.1851 H   0  0  0  0  0  0  0  0  0  0  0  0
    4.7841    0.1695    2.5382 H   0  0  0  0  0  0  0  0  0  0  0  0
    3.4557   -1.2417    1.4342 H   0  0  0  0  0  0  0  0  0  0  0  0
    1.2404   -1.6979    0.4141 H   0  0  0  0  0  0  0  0  0  0  0  0
    0.1638   -1.7690   -2.2395 H   0  0  0  0  0  0  0  0  0  0  0  0
   -1.1002   -0.1340   -3.3753 H   0  0  0  0  0  0  0  0  0  0  0  0
   -0.1203    1.2162   -2.5619 H   0  0  0  0  0  0  0  0  0  0  0  0
    0.6636    0.0355   -3.7329 H   0  0  0  0  0  0  0  0  0  0  0  0
   -1.6639   -2.4919   -1.3335 H   0  0  0  0  0  0  0  0  0  0  0  0
   -1.0248   -2.4636    0.3223 H   0  0  0  0  0  0  0  0  0  0  0  0
   -3.0859   -2.1715    0.9554 H   0  0  0  0  0  0  0  0  0  0  0  0
   -3.6754   -1.9457   -0.6633 H   0  0  0  0  0  0  0  0  0  0  0  0
   -3.6042   -0.3737    2.4291 H   0  0  0  0  0  0  0  0  0  0  0  0
   -4.1613    1.1822    1.8297 H   0  0  0  0  0  0  0  0  0  0  0  0
   -5.5411   -0.5128    3.7378 H   0  0  0  0  0  0  0  0  0  0  0  0
   -6.0417    1.0219    3.0033 H   0  0  0  0  0  0  0  0  0  0  0  0
   -7.1769   -0.4388    2.9794 H   0  0  0  0  0  0  0  0  0  0  0  0
   -4.8771   -2.3538    2.5039 H   0  0  0  0  0  0  0  0  0  0  0  0
   -6.5930   -2.2568    2.0326 H   0  0  0  0  0  0  0  0  0  0  0  0
   -5.4461   -2.5577    0.7420 H   0  0  0  0  0  0  0  0  0  0  0  0
   -6.3976   -0.6962   -0.2159 H   0  0  0  0  0  0  0  0  0  0  0  0
   -4.2359    2.4253    0.2563 H   0  0  0  0  0  0  0  0  0  0  0  0
   -4.9363    3.6191   -1.7726 H   0  0  0  0  0  0  0  0  0  0  0  0
   -4.7873    2.5012   -3.9874 H   0  0  0  0  0  0  0  0  0  0  0  0
   -3.9432    0.1895   -4.2011 H   0  0  0  0  0  0  0  0  0  0  0  0
   -3.2540   -0.9642   -2.2392 H   0  0  0  0  0  0  0  0  0  0  0  0
    2.2145    0.8879   -2.7802 H   0  0  0  0  0  0  0  0  0  0  0  0
    4.4242    1.3419   -1.7648 H   0  0  0  0  0  0  0  0  0  0  0  0
    6.3645    0.6134   -1.3614 H   0  0  0  0  0  0  0  0  0  0  0  0
    8.6172    1.5762   -1.6200 H   0  0  0  0  0  0  0  0  0  0  0  0
    9.5862    1.9387   -0.1569 H   0  0  0  0  0  0  0  0  0  0  0  0
    9.5716    0.2668   -0.7681 H   0  0  0  0  0  0  0  0  0  0  0  0
  1  2  1  0
  2  3  2  0
  3  4  1  0
  4  5  1  0
  5  6  2  0
  6  7  1  0
  7  8  2  0
  8  9  1  0
  9 10  1  0
  9 11  1  0
 11 12  1  0
 12 13  1  0
 13 14  1  0
 14 15  1  1
 15 16  1  0
 16 17  1  0
 16 18  1  0
 16 19  1  0
 14 20  1  0
 20 21  2  0
 21 22  1  0
 22 23  2  0
 23 24  1  0
 24 25  2  0
 14 26  1  0
 26 27  1  0
 27 28  2  0
  8 29  1  0
 29 30  2  0
  4 31  2  0
 31 32  1  0
 32 33  1  0
 32 34  2  0
 34  2  1  0
 30  5  1  0
 27 11  1  0
 25 20  1  0
  1 35  1  0
  1 36  1  0
  1 37  1  0
  3 38  1  0
  6 39  1  0
  7 40  1  0
  9 41  1  6
 10 42  1  0
 10 43  1  0
 10 44  1  0
 12 45  1  0
 12 46  1  0
 13 47  1  0
 13 48  1  0
 15 49  1  0
 15 50  1  0
 17 51  1  0
 17 52  1  0
 17 53  1  0
 18 54  1  0
 18 55  1  0
 18 56  1  0
 19 57  1  0
 21 58  1  0
 22 59  1  0
 23 60  1  0
 24 61  1  0
 25 62  1  0
 29 63  1  0
 30 64  1  0
 31 65  1  0
 33 66  1  0
 33 67  1  0
 33 68  1  0
M  END
$$$$
