
     RDKit          3D

 54 56  0  0  0  0  0  0  0  0999 V2000
    5.8350    1.7651    1.3907 C   0  0  0  0  0  0  0  0  0  0  0  0
    6.4790    0.8659    0.3991 C   0  0  0  0  0  0  0  0  0  0  0  0
    7.8402    0.6094    0.5494 C   0  0  0  0  0  0  0  0  0  0  0  0
    8.4473   -0.2309   -0.3759 C   0  0  0  0  0  0  0  0  0  0  0  0
    7.7147   -0.7858   -1.4041 C   0  0  0  0  0  0  0  0  0  0  0  0
    6.3722   -0.5071   -1.5172 C   0  0  0  0  0  0  0  0  0  0  0  0
    5.7221    0.3323   -0.6090 C   0  0  0  0  0  0  0  0  0  0  0  0
    4.2888    0.6389   -0.7169 C   0  0  0  0  0  0  0  0  0  0  0  0
    3.5308   -0.0718    0.2328 O   0  0  0  0  0  0  0  0  0  0  0  0
    2.1625    0.0459    0.3308 C   0  0  0  0  0  0  0  0  0  0  0  0
    1.4190    0.8626   -0.4835 C   0  0  0  0  0  0  0  0  0  0  0  0
    0.0446    0.9560   -0.3567 C   0  0  0  0  0  0  0  0  0  0  0  0
   -0.6326    0.2368    0.5877 C   0  0  0  0  0  0  0  0  0  0  0  0
   -2.3944    0.3512    0.7529 S   0  0  0  0  0  6  0  0  0  0  0  0
   -2.6833    0.2684    2.2043 O   0  0  0  0  0  0  0  0  0  0  0  0
   -2.7277    1.7365    0.2139 O   0  0  0  0  0  0  0  0  0  0  0  0
   -3.1116   -0.8215   -0.2182 N   0  0  0  0  0  0  0  0  0  0  0  0
   -2.7828   -0.5975   -1.5926 C   0  0  0  0  0  0  0  0  0  0  0  0
   -3.6408    0.4176   -2.2675 C   0  0  0  0  0  0  0  0  0  0  0  0
   -4.6333    1.0346   -1.4892 N   0  0  0  0  0  0  0  0  0  0  0  0
   -5.1087    0.4196   -0.3108 C   0  0  1  0  0  0  0  0  0  0  0  0
   -6.6387    0.3550   -0.4158 C   0  0  0  0  0  0  0  0  0  0  0  0
   -4.5532   -0.9430   -0.1414 C   0  0  2  0  0  0  0  0  0  0  0  0
   -4.9708   -1.6725    1.0723 C   0  0  0  0  0  0  0  0  0  0  0  0
   -4.1262   -1.9075    2.0057 O   0  0  0  0  0  0  0  0  0  0  0  0
   -6.2711   -2.1652    1.3216 N   0  0  0  0  0  0  0  0  0  0  0  0
   -6.5764   -2.8334    2.4837 O   0  0  0  0  0  0  0  0  0  0  0  0
    0.0980   -0.5905    1.4166 C   0  0  0  0  0  0  0  0  0  0  0  0
    1.4651   -0.6796    1.2861 C   0  0  0  0  0  0  0  0  0  0  0  0
    6.3741    1.7486    2.3659 H   0  0  0  0  0  0  0  0  0  0  0  0
    5.8037    2.7701    0.9340 H   0  0  0  0  0  0  0  0  0  0  0  0
    4.8232    1.3585    1.5853 H   0  0  0  0  0  0  0  0  0  0  0  0
    8.3809    1.0595    1.3642 H   0  0  0  0  0  0  0  0  0  0  0  0
    9.5034   -0.4450   -0.2799 H   0  0  0  0  0  0  0  0  0  0  0  0
    8.2271   -1.4337   -2.1006 H   0  0  0  0  0  0  0  0  0  0  0  0
    5.8113   -0.9489   -2.3275 H   0  0  0  0  0  0  0  0  0  0  0  0
    3.9111    0.3874   -1.7359 H   0  0  0  0  0  0  0  0  0  0  0  0
    4.1676    1.7488   -0.5912 H   0  0  0  0  0  0  0  0  0  0  0  0
    1.9490    1.4336   -1.2323 H   0  0  0  0  0  0  0  0  0  0  0  0
   -0.4923    1.6166   -1.0248 H   0  0  0  0  0  0  0  0  0  0  0  0
   -1.7034   -0.3510   -1.6492 H   0  0  0  0  0  0  0  0  0  0  0  0
   -2.8658   -1.6024   -2.1042 H   0  0  0  0  0  0  0  0  0  0  0  0
   -2.9584    1.2158   -2.6754 H   0  0  0  0  0  0  0  0  0  0  0  0
   -4.1052   -0.0510   -3.1606 H   0  0  0  0  0  0  0  0  0  0  0  0
   -5.3973    1.4775   -2.0512 H   0  0  0  0  0  0  0  0  0  0  0  0
   -4.9263    1.0960    0.5514 H   0  0  0  0  0  0  0  0  0  0  0  0
   -6.9595   -0.4451   -1.0853 H   0  0  0  0  0  0  0  0  0  0  0  0
   -6.9800    1.3297   -0.8491 H   0  0  0  0  0  0  0  0  0  0  0  0
   -7.1280    0.2990    0.5693 H   0  0  0  0  0  0  0  0  0  0  0  0
   -4.8649   -1.5568   -1.0116 H   0  0  0  0  0  0  0  0  0  0  0  0
   -7.0386   -2.0495    0.6324 H   0  0  0  0  0  0  0  0  0  0  0  0
   -5.7141   -3.2491    2.7629 H   0  0  0  0  0  0  0  0  0  0  0  0
   -0.4080   -1.1664    2.1668 H   0  0  0  0  0  0  0  0  0  0  0  0
    2.0226   -1.3315    1.9422 H   0  0  0  0  0  0  0  0  0  0  0  0
  1  2  1  0
  2  3  2  0
  3  4  1  0
  4  5  2  0
  5  6  1  0
  6  7  2  0
  7  8  1  0
  8  9  1  0
  9 10  1  0
 10 11  2  0
 11 12  1  0
 12 13  2  0
 13 14  1  0
 14 15  2  0
 14 16  2  0
 14 17  1  0
 17 18  1  0
 18 19  1  0
 19 20  1  0
 20 21  1  0
 21 22  1  0
 21 23  1  0
 23 24  1  0
 24 25  2  0
 24 26  1  0
 26 27  1  0
 13 28  1  0
 28 29  2  0
  7  2  1  0
 29 10  1  0
 23 17  1  0
  1 30  1  0
  1 31  1  0
  1 32  1  0
  3 33  1  0
  4 34  1  0
  5 35  1  0
  6 36  1  0
  8 37  1  0
  8 38  1  0
 11 39  1  0
 12 40  1  0
 18 41  1  0
 18 42  1  0
 19 43  1  0
 19 44  1  0
 20 45  1  0
 21 46  1  1
 22 47  1  0
 22 48  1  0
 22 49  1  0
 23 50  1  6
 26 51  1  0
 27 52  1  0
 28 53  1  0
 29 54  1  0
M  END
$$$$
