@<TRIPOS>MOLECULE
*****
 54 56 0 0 0
SMALL
GASTEIGER

@<TRIPOS>ATOM
      1 C           5.8350    1.7651    1.3907 C.3     1  UNL1       -0.0393
      2 C           6.4790    0.8659    0.3991 C.ar    1  UNL1       -0.0441
      3 C           7.8402    0.6094    0.5494 C.ar    1  UNL1       -0.0585
      4 C           8.4473   -0.2309   -0.3759 C.ar    1  UNL1       -0.0615
      5 C           7.7147   -0.7858   -1.4041 C.ar    1  UNL1       -0.0614
      6 C           6.3722   -0.5071   -1.5172 C.ar    1  UNL1       -0.0551
      7 C           5.7221    0.3323   -0.6090 C.ar    1  UNL1       -0.0075
      8 C           4.2888    0.6389   -0.7169 C.3     1  UNL1        0.1149
      9 O           3.5308   -0.0718    0.2328 O.3     1  UNL1       -0.4874
     10 C           2.1625    0.0459    0.3308 C.ar    1  UNL1        0.1211
     11 C           1.4190    0.8626   -0.4835 C.ar    1  UNL1       -0.0181
     12 C           0.0446    0.9560   -0.3567 C.ar    1  UNL1       -0.0319
     13 C          -0.6326    0.2368    0.5877 C.ar    1  UNL1        0.1057
     14 S          -2.3944    0.3512    0.7529 S.O2    1  UNL1        0.0616
     15 O          -2.6833    0.2684    2.2043 O.2     1  UNL1       -0.1528
     16 O          -2.7277    1.7365    0.2139 O.2     1  UNL1       -0.1528
     17 N          -3.1116   -0.8215   -0.2182 N.3     1  UNL1       -0.1619
     18 C          -2.7828   -0.5975   -1.5926 C.3     1  UNL1        0.0339
     19 C          -3.6408    0.4176   -2.2675 C.3     1  UNL1        0.0107
     20 N          -4.6333    1.0346   -1.4892 N.3     1  UNL1       -0.3102
     21 C          -5.1087    0.4196   -0.3108 C.3     1  UNL1        0.0306
     22 C          -6.6387    0.3550   -0.4158 C.3     1  UNL1       -0.0477
     23 C          -4.5532   -0.9430   -0.1414 C.3     1  UNL1        0.1247
     24 C          -4.9708   -1.6725    1.0723 C.2     1  UNL1        0.2558
     25 O          -4.1262   -1.9075    2.0057 O.2     1  UNL1       -0.2719
     26 N          -6.2711   -2.1652    1.3216 N.am    1  UNL1       -0.1961
     27 O          -6.5764   -2.8334    2.4837 O.3     1  UNL1       -0.2951
     28 C           0.0980   -0.5905    1.4166 C.ar    1  UNL1       -0.0319
     29 C           1.4651   -0.6796    1.2861 C.ar    1  UNL1       -0.0181
     30 H           6.3741    1.7486    2.3659 H       1  UNL1        0.0278
     31 H           5.8037    2.7701    0.9340 H       1  UNL1        0.0278
     32 H           4.8232    1.3585    1.5853 H       1  UNL1        0.0278
     33 H           8.3809    1.0595    1.3642 H       1  UNL1        0.0620
     34 H           9.5034   -0.4450   -0.2799 H       1  UNL1        0.0618
     35 H           8.2271   -1.4337   -2.1006 H       1  UNL1        0.0618
     36 H           5.8113   -0.9489   -2.3275 H       1  UNL1        0.0621
     37 H           3.9111    0.3874   -1.7359 H       1  UNL1        0.0748
     38 H           4.1676    1.7488   -0.5912 H       1  UNL1        0.0748
     39 H           1.9490    1.4336   -1.2323 H       1  UNL1        0.0655
     40 H          -0.4923    1.6166   -1.0248 H       1  UNL1        0.0638
     41 H          -1.7034   -0.3510   -1.6492 H       1  UNL1        0.0457
     42 H          -2.8658   -1.6024   -2.1042 H       1  UNL1        0.0457
     43 H          -2.9584    1.2158   -2.6754 H       1  UNL1        0.0437
     44 H          -4.1052   -0.0510   -3.1606 H       1  UNL1        0.0437
     45 H          -5.3973    1.4775   -2.0512 H       1  UNL1        0.1223
     46 H          -4.9263    1.0960    0.5514 H       1  UNL1        0.0478
     47 H          -6.9595   -0.4451   -1.0853 H       1  UNL1        0.0245
     48 H          -6.9800    1.3297   -0.8491 H       1  UNL1        0.0245
     49 H          -7.1280    0.2990    0.5693 H       1  UNL1        0.0245
     50 H          -4.8649   -1.5568   -1.0116 H       1  UNL1        0.0592
     51 H          -7.0386   -2.0495    0.6324 H       1  UNL1        0.1822
     52 H          -5.7141   -3.2491    2.7629 H       1  UNL1        0.2414
     53 H          -0.4080   -1.1664    2.1668 H       1  UNL1        0.0638
     54 H           2.0226   -1.3315    1.9422 H       1  UNL1        0.0655
@<TRIPOS>BOND
     1     1     2    1
     2     2     3   ar
     3     3     4   ar
     4     4     5   ar
     5     5     6   ar
     6     6     7   ar
     7     7     8    1
     8     8     9    1
     9     9    10    1
    10    10    11   ar
    11    11    12   ar
    12    12    13   ar
    13    13    14    1
    14    14    15    2
    15    14    16    2
    16    14    17    1
    17    17    18    1
    18    18    19    1
    19    19    20    1
    20    20    21    1
    21    21    22    1
    22    21    23    1
    23    23    24    1
    24    24    25    2
    25    24    26   am
    26    26    27    1
    27    13    28   ar
    28    28    29   ar
    29     7     2   ar
    30    29    10   ar
    31    23    17    1
    32     1    30    1
    33     1    31    1
    34     1    32    1
    35     3    33    1
    36     4    34    1
    37     5    35    1
    38     6    36    1
    39     8    37    1
    40     8    38    1
    41    11    39    1
    42    12    40    1
    43    18    41    1
    44    18    42    1
    45    19    43    1
    46    19    44    1
    47    20    45    1
    48    21    46    1
    49    22    47    1
    50    22    48    1
    51    22    49    1
    52    23    50    1
    53    26    51    1
    54    27    52    1
    55    28    53    1
    56    29    54    1
