@<TRIPOS>MOLECULE
*****
 45 48 0 0 0
SMALL
GASTEIGER

@<TRIPOS>ATOM
      1 C          -0.9606   -0.1787    3.6080 C.3     1  UNL1       -0.0634
      2 C          -1.4941   -1.4103    2.8941 C.3     1  UNL1       -0.0352
      3 C          -2.1236   -0.9903    1.5994 C.3     1  UNL1        0.0329
      4 C          -2.6570   -2.0011    0.6982 C.3     1  UNL1       -0.0442
      5 N          -1.6144    0.2575    1.0636 N.ar    1  UNL1       -0.3267
      6 C          -2.0924    1.4732    1.5180 C.ar    1  UNL1        0.0973
      7 N          -1.4966    2.4735    0.9141 N.ar    1  UNL1       -0.2351
      8 C          -0.6083    1.9777    0.0365 C.ar    1  UNL1        0.0967
      9 C           0.2236    2.8096   -0.8174 C.ar    1  UNL1        0.0026
     10 C          -0.2823    3.3530   -1.9764 C.ar    1  UNL1       -0.0498
     11 C           0.4678    4.2123   -2.7591 C.ar    1  UNL1       -0.0258
     12 C           1.7458    4.5270   -2.3697 C.ar    1  UNL1        0.1234
     13 F           2.4877    5.3840   -3.1164 F       1  UNL1       -0.2055
     14 C           2.2484    3.9783   -1.2143 C.ar    1  UNL1       -0.0258
     15 C           1.5009    3.1267   -0.4352 C.ar    1  UNL1       -0.0498
     16 C          -0.6886    0.5738    0.1433 C.ar    1  UNL1        0.0781
     17 C           0.1765   -0.3545   -0.5813 C.ar    1  UNL1        0.0173
     18 C           0.7265    0.0103   -1.7845 C.ar    1  UNL1       -0.0477
     19 C           1.5911   -0.8638   -2.4807 C.ar    1  UNL1       -0.0181
     20 C           1.8999   -2.1038   -1.9888 C.ar    1  UNL1        0.1385
     21 N           2.6593   -3.1535   -2.4162 N.ar    1  UNL1       -0.2348
     22 C           2.5813   -4.1502   -1.5323 C.ar    1  UNL1        0.0643
     23 C           1.7436   -3.7224   -0.5033 C.ar    1  UNL1        0.1438
     24 C           1.3096   -4.5086    0.6150 C.1     1  UNL1        0.1192
     25 N           0.9418   -5.1559    1.5531 N.1     1  UNL1       -0.1893
     26 N           1.3580   -2.4628   -0.8213 N.ar    1  UNL1       -0.2906
     27 C           0.5336   -1.6044   -0.1550 C.ar    1  UNL1        0.0216
     28 H          -0.3034    0.3912    2.8935 H       1  UNL1        0.0230
     29 H          -0.2652   -0.4234    4.4536 H       1  UNL1        0.0230
     30 H          -1.8088    0.3881    3.9720 H       1  UNL1        0.0230
     31 H          -2.2346   -1.9164    3.5731 H       1  UNL1        0.0282
     32 H          -0.6948   -2.1166    2.7432 H       1  UNL1        0.0282
     33 H          -3.1791   -0.5959    2.0716 H       1  UNL1        0.0525
     34 H          -2.9948   -1.5455   -0.2859 H       1  UNL1        0.0250
     35 H          -1.9434   -2.7867    0.3993 H       1  UNL1        0.0250
     36 H          -3.6187   -2.4657    1.0826 H       1  UNL1        0.0250
     37 H          -2.8731    1.5582    2.2884 H       1  UNL1        0.1029
     38 H          -1.2783    3.1241   -2.3023 H       1  UNL1        0.0625
     39 H           0.1023    4.6510   -3.6746 H       1  UNL1        0.0646
     40 H           3.2478    4.2527   -0.9352 H       1  UNL1        0.0646
     41 H           1.8931    2.6934    0.4756 H       1  UNL1        0.0625
     42 H           0.5454    0.9323   -2.2792 H       1  UNL1        0.0626
     43 H           2.0201   -0.5457   -3.4308 H       1  UNL1        0.0654
     44 H           3.0341   -5.1446   -1.5074 H       1  UNL1        0.0859
     45 H           0.1739   -1.9470    0.7710 H       1  UNL1        0.0820
@<TRIPOS>BOND
     1     1     2    1
     2     2     3    1
     3     3     4    1
     4     3     5    1
     5     5     6   ar
     6     6     7   ar
     7     7     8   ar
     8     8     9    1
     9     9    10   ar
    10    10    11   ar
    11    11    12   ar
    12    12    13    1
    13    12    14   ar
    14    14    15   ar
    15     8    16   ar
    16    16    17    1
    17    17    18   ar
    18    18    19   ar
    19    19    20   ar
    20    20    21   ar
    21    21    22   ar
    22    22    23   ar
    23    23    24    1
    24    24    25    3
    25    23    26   ar
    26    26    27   ar
    27    16     5   ar
    28    27    17   ar
    29    15     9   ar
    30    26    20   ar
    31     1    28    1
    32     1    29    1
    33     1    30    1
    34     2    31    1
    35     2    32    1
    36     3    33    1
    37     4    34    1
    38     4    35    1
    39     4    36    1
    40     6    37    1
    41    10    38    1
    42    11    39    1
    43    14    40    1
    44    15    41    1
    45    18    42    1
    46    19    43    1
    47    22    44    1
    48    27    45    1
