
     RDKit          3D

 45 48  0  0  0  0  0  0  0  0999 V2000
   -0.9606   -0.1787    3.6080 C   0  0  0  0  0  0  0  0  0  0  0  0
   -1.4941   -1.4103    2.8941 C   0  0  0  0  0  0  0  0  0  0  0  0
   -2.1236   -0.9903    1.5994 C   0  0  0  0  0  0  0  0  0  0  0  0
   -2.6570   -2.0011    0.6982 C   0  0  0  0  0  0  0  0  0  0  0  0
   -1.6144    0.2575    1.0636 N   0  0  0  0  0  0  0  0  0  0  0  0
   -2.0924    1.4732    1.5180 C   0  0  0  0  0  0  0  0  0  0  0  0
   -1.4966    2.4735    0.9141 N   0  0  0  0  0  0  0  0  0  0  0  0
   -0.6083    1.9777    0.0365 C   0  0  0  0  0  0  0  0  0  0  0  0
    0.2236    2.8096   -0.8174 C   0  0  0  0  0  0  0  0  0  0  0  0
   -0.2823    3.3530   -1.9764 C   0  0  0  0  0  0  0  0  0  0  0  0
    0.4678    4.2123   -2.7591 C   0  0  0  0  0  0  0  0  0  0  0  0
    1.7458    4.5270   -2.3697 C   0  0  0  0  0  0  0  0  0  0  0  0
    2.4877    5.3840   -3.1164 F   0  0  0  0  0  0  0  0  0  0  0  0
    2.2484    3.9783   -1.2143 C   0  0  0  0  0  0  0  0  0  0  0  0
    1.5009    3.1267   -0.4352 C   0  0  0  0  0  0  0  0  0  0  0  0
   -0.6886    0.5738    0.1433 C   0  0  0  0  0  0  0  0  0  0  0  0
    0.1765   -0.3545   -0.5813 C   0  0  0  0  0  0  0  0  0  0  0  0
    0.7265    0.0103   -1.7845 C   0  0  0  0  0  0  0  0  0  0  0  0
    1.5911   -0.8638   -2.4807 C   0  0  0  0  0  0  0  0  0  0  0  0
    1.8999   -2.1038   -1.9888 C   0  0  0  0  0  0  0  0  0  0  0  0
    2.6593   -3.1535   -2.4162 N   0  0  0  0  0  0  0  0  0  0  0  0
    2.5813   -4.1502   -1.5323 C   0  0  0  0  0  0  0  0  0  0  0  0
    1.7436   -3.7224   -0.5033 C   0  0  0  0  0  0  0  0  0  0  0  0
    1.3096   -4.5086    0.6150 C   0  0  0  0  0  0  0  0  0  0  0  0
    0.9418   -5.1559    1.5531 N   0  0  0  0  0  0  0  0  0  0  0  0
    1.3580   -2.4628   -0.8213 N   0  0  0  0  0  0  0  0  0  0  0  0
    0.5336   -1.6044   -0.1550 C   0  0  0  0  0  0  0  0  0  0  0  0
   -0.3034    0.3912    2.8935 H   0  0  0  0  0  0  0  0  0  0  0  0
   -0.2652   -0.4234    4.4536 H   0  0  0  0  0  0  0  0  0  0  0  0
   -1.8088    0.3881    3.9720 H   0  0  0  0  0  0  0  0  0  0  0  0
   -2.2346   -1.9164    3.5731 H   0  0  0  0  0  0  0  0  0  0  0  0
   -0.6948   -2.1166    2.7432 H   0  0  0  0  0  0  0  0  0  0  0  0
   -3.1791   -0.5959    2.0716 H   0  0  0  0  0  0  0  0  0  0  0  0
   -2.9948   -1.5455   -0.2859 H   0  0  0  0  0  0  0  0  0  0  0  0
   -1.9434   -2.7867    0.3993 H   0  0  0  0  0  0  0  0  0  0  0  0
   -3.6187   -2.4657    1.0826 H   0  0  0  0  0  0  0  0  0  0  0  0
   -2.8731    1.5582    2.2884 H   0  0  0  0  0  0  0  0  0  0  0  0
   -1.2783    3.1241   -2.3023 H   0  0  0  0  0  0  0  0  0  0  0  0
    0.1023    4.6510   -3.6746 H   0  0  0  0  0  0  0  0  0  0  0  0
    3.2478    4.2527   -0.9352 H   0  0  0  0  0  0  0  0  0  0  0  0
    1.8931    2.6934    0.4756 H   0  0  0  0  0  0  0  0  0  0  0  0
    0.5454    0.9323   -2.2792 H   0  0  0  0  0  0  0  0  0  0  0  0
    2.0201   -0.5457   -3.4308 H   0  0  0  0  0  0  0  0  0  0  0  0
    3.0341   -5.1446   -1.5074 H   0  0  0  0  0  0  0  0  0  0  0  0
    0.1739   -1.9470    0.7710 H   0  0  0  0  0  0  0  0  0  0  0  0
  1  2  1  0
  2  3  1  0
  3  4  1  0
  3  5  1  0
  5  6  1  0
  6  7  2  0
  7  8  1  0
  8  9  1  0
  9 10  2  0
 10 11  1  0
 11 12  2  0
 12 13  1  0
 12 14  1  0
 14 15  2  0
  8 16  2  0
 16 17  1  0
 17 18  1  0
 18 19  2  0
 19 20  1  0
 20 21  2  0
 21 22  1  0
 22 23  2  0
 23 24  1  0
 24 25  3  0
 23 26  1  0
 26 27  1  0
 16  5  1  0
 27 17  2  0
 15  9  1  0
 26 20  1  0
  1 28  1  0
  1 29  1  0
  1 30  1  0
  2 31  1  0
  2 32  1  0
  3 33  1  0
  4 34  1  0
  4 35  1  0
  4 36  1  0
  6 37  1  0
 10 38  1  0
 11 39  1  0
 14 40  1  0
 15 41  1  0
 18 42  1  0
 19 43  1  0
 22 44  1  0
 27 45  1  0
M  END
$$$$
