@<TRIPOS>MOLECULE
*****
 75 82 0 0 0
SMALL
GASTEIGER

@<TRIPOS>ATOM
      1 C          -9.6676    3.4055    3.5251 C.3     1  UNL1       -0.0041
      2 C          -9.0003    2.5963    2.4735 C.ar    1  UNL1        0.1346
      3 N          -9.6214    2.0957    1.4049 N.ar    1  UNL1       -0.1340
      4 N          -8.7724    1.4200    0.6453 N.ar    1  UNL1       -0.1287
      5 C          -7.5616    1.4875    1.2453 C.ar    1  UNL1        0.1703
      6 C          -6.3347    0.9553    0.8726 C.ar    1  UNL1        0.0456
      7 C          -6.2024    0.2140   -0.2832 C.ar    1  UNL1       -0.0392
      8 C          -4.9339   -0.2943   -0.5993 C.ar    1  UNL1        0.0088
      9 C          -4.7207   -1.0767   -1.7924 C.ar    1  UNL1       -0.0158
     10 C          -5.3894   -2.2623   -1.9576 C.ar    1  UNL1       -0.0540
     11 C          -5.2272   -3.0566   -3.0782 C.ar    1  UNL1       -0.0612
     12 C          -4.3463   -2.6160   -4.0638 C.ar    1  UNL1       -0.0617
     13 C          -3.6588   -1.4300   -3.9293 C.ar    1  UNL1       -0.0612
     14 C          -3.8578   -0.6597   -2.7734 C.ar    1  UNL1       -0.0540
     15 C          -3.8521   -0.0610    0.2193 C.ar    1  UNL1        0.0794
     16 C          -2.5589   -0.6117   -0.1494 C.ar    1  UNL1        0.0010
     17 C          -1.4914    0.2156   -0.4282 C.ar    1  UNL1       -0.0522
     18 C          -0.2460   -0.2827   -0.7837 C.ar    1  UNL1       -0.0567
     19 C          -0.0138   -1.6387   -0.8759 C.ar    1  UNL1       -0.0333
     20 C           1.3105   -2.1656   -1.2568 C.3     1  UNL1        0.0240
     21 N           2.2039   -2.4049   -0.1655 N.3     1  UNL1       -0.2981
     22 C           3.4398   -2.9419   -0.6990 C.3     1  UNL1       -0.0001
     23 C           4.6480   -2.3848    0.0192 C.3     1  UNL1       -0.0304
     24 C           4.7455   -0.9000   -0.3170 C.3     1  UNL1        0.0212
     25 C           5.8691   -0.3418    0.4782 C.ar    1  UNL1        0.1344
     26 N           6.0033   -0.2700    1.8120 N.ar    1  UNL1       -0.1339
     27 N           7.1762    0.3113    2.0736 N.ar    1  UNL1       -0.1278
     28 C           7.7794    0.6052    0.9158 C.ar    1  UNL1        0.1800
     29 C           9.0875    1.2531    0.7460 C.ar    1  UNL1        0.1077
     30 C           9.5732    1.4906   -0.5227 C.ar    1  UNL1       -0.0326
     31 C          10.8104    2.1039   -0.7107 C.ar    1  UNL1       -0.0582
     32 C          11.5502    2.4740    0.3854 C.ar    1  UNL1       -0.0436
     33 C          11.0164    2.2126    1.6392 C.ar    1  UNL1        0.0284
     34 N           9.8201    1.6195    1.8125 N.ar    1  UNL1       -0.2519
     35 N           6.9742    0.2028   -0.0621 N.ar    1  UNL1       -0.3237
     36 C           3.4262   -0.2688   -0.0211 C.3     1  UNL1       -0.0304
     37 C           2.4563   -1.2255    0.6334 C.3     1  UNL1       -0.0001
     38 C          -1.0916   -2.4674   -0.5941 C.ar    1  UNL1       -0.0567
     39 C          -2.3305   -1.9762   -0.2407 C.ar    1  UNL1       -0.0522
     40 N          -4.0154    0.6637    1.3353 N.ar    1  UNL1       -0.2459
     41 C          -5.2356    1.1746    1.6750 C.ar    1  UNL1        0.0766
     42 C          -5.4191    1.9211    2.8195 C.ar    1  UNL1       -0.0190
     43 C          -6.6513    2.4414    3.1706 C.ar    1  UNL1        0.0149
     44 N          -7.7136    2.2160    2.3729 N.ar    1  UNL1       -0.2860
     45 H          -9.0827    3.4481    4.4668 H       1  UNL1        0.0308
     46 H         -10.6571    2.9613    3.8131 H       1  UNL1        0.0308
     47 H          -9.8264    4.4137    3.1195 H       1  UNL1        0.0308
     48 H          -7.0293    0.0199   -0.9345 H       1  UNL1        0.0632
     49 H          -6.0738   -2.6077   -1.1947 H       1  UNL1        0.0624
     50 H          -5.7670   -3.9869   -3.1823 H       1  UNL1        0.0618
     51 H          -4.2252   -3.2498   -4.9436 H       1  UNL1        0.0618
     52 H          -2.9893   -1.1369   -4.7228 H       1  UNL1        0.0618
     53 H          -3.2964    0.2583   -2.7172 H       1  UNL1        0.0624
     54 H          -1.6646    1.2849   -0.3581 H       1  UNL1        0.0624
     55 H           0.5722    0.4141   -0.9974 H       1  UNL1        0.0621
     56 H           1.2376   -3.1156   -1.8394 H       1  UNL1        0.0476
     57 H           1.8023   -1.4408   -1.9381 H       1  UNL1        0.0476
     58 H           3.5283   -2.6065   -1.7525 H       1  UNL1        0.0427
     59 H           3.4651   -4.0532   -0.6589 H       1  UNL1        0.0427
     60 H           4.6501   -2.5547    1.0944 H       1  UNL1        0.0284
     61 H           5.5464   -2.8549   -0.4173 H       1  UNL1        0.0284
     62 H           4.9436   -0.8287   -1.4071 H       1  UNL1        0.0380
     63 H           8.9843    1.1959   -1.3639 H       1  UNL1        0.0640
     64 H          11.1727    2.2811   -1.7245 H       1  UNL1        0.0619
     65 H          12.5194    2.9549    0.2772 H       1  UNL1        0.0633
     66 H          11.6240    2.5165    2.4947 H       1  UNL1        0.0830
     67 H           7.1724    0.2967   -1.1009 H       1  UNL1        0.1686
     68 H           3.4833    0.6248    0.6317 H       1  UNL1        0.0284
     69 H           2.9473    0.1063   -0.9729 H       1  UNL1        0.0284
     70 H           1.5464   -0.6887    0.8909 H       1  UNL1        0.0427
     71 H           2.9350   -1.5723    1.5831 H       1  UNL1        0.0427
     72 H          -0.9311   -3.5347   -0.6603 H       1  UNL1        0.0621
     73 H          -3.1749   -2.6273   -0.0203 H       1  UNL1        0.0624
     74 H          -4.5951    2.1259    3.4871 H       1  UNL1        0.0654
     75 H          -6.7937    3.0327    4.0780 H       1  UNL1        0.0814
@<TRIPOS>BOND
     1     1     2    1
     2     2     3   ar
     3     3     4   ar
     4     4     5   ar
     5     5     6   ar
     6     6     7   ar
     7     7     8   ar
     8     8     9    1
     9     9    10   ar
    10    10    11   ar
    11    11    12   ar
    12    12    13   ar
    13    13    14   ar
    14     8    15   ar
    15    15    16    1
    16    16    17   ar
    17    17    18   ar
    18    18    19   ar
    19    19    20    1
    20    20    21    1
    21    21    22    1
    22    22    23    1
    23    23    24    1
    24    24    25    1
    25    25    26   ar
    26    26    27   ar
    27    27    28   ar
    28    28    29    1
    29    29    30   ar
    30    30    31   ar
    31    31    32   ar
    32    32    33   ar
    33    33    34   ar
    34    28    35   ar
    35    24    36    1
    36    36    37    1
    37    19    38   ar
    38    38    39   ar
    39    15    40   ar
    40    40    41   ar
    41    41    42   ar
    42    42    43   ar
    43    43    44   ar
    44    44     2   ar
    45    44     5   ar
    46    41     6   ar
    47    14     9   ar
    48    39    16   ar
    49    37    21    1
    50    35    25   ar
    51    34    29   ar
    52     1    45    1
    53     1    46    1
    54     1    47    1
    55     7    48    1
    56    10    49    1
    57    11    50    1
    58    12    51    1
    59    13    52    1
    60    14    53    1
    61    17    54    1
    62    18    55    1
    63    20    56    1
    64    20    57    1
    65    22    58    1
    66    22    59    1
    67    23    60    1
    68    23    61    1
    69    24    62    1
    70    30    63    1
    71    31    64    1
    72    32    65    1
    73    33    66    1
    74    35    67    1
    75    36    68    1
    76    36    69    1
    77    37    70    1
    78    37    71    1
    79    38    72    1
    80    39    73    1
    81    42    74    1
    82    43    75    1
