
     RDKit          3D

 58 62  0  0  0  0  0  0  0  0999 V2000
   -1.4794   -2.9140    0.3095 C   0  0  0  0  0  0  0  0  0  0  0  0
   -0.6561   -1.8350    0.0111 O   0  0  0  0  0  0  0  0  0  0  0  0
   -1.1603   -0.6575   -0.5230 C   0  0  0  0  0  0  0  0  0  0  0  0
   -2.4938   -0.5117   -0.7789 C   0  0  0  0  0  0  0  0  0  0  0  0
   -3.0054    0.6538   -1.3096 C   0  0  0  0  0  0  0  0  0  0  0  0
   -4.3563    0.7628   -1.5534 C   0  0  0  0  0  0  0  0  0  0  0  0
   -5.2106   -0.3213   -1.2518 N   0  0  0  0  0  0  0  0  0  0  0  0
   -5.9515   -0.3038   -0.0385 C   0  0  0  0  0  0  0  0  0  0  0  0
   -5.8231    0.7075    0.8887 C   0  0  0  0  0  0  0  0  0  0  0  0
   -6.5379    0.7463    2.0466 C   0  0  0  0  0  0  0  0  0  0  0  0
   -7.4478   -0.2438    2.3623 C   0  0  0  0  0  0  0  0  0  0  0  0
   -8.3429   -0.1583    3.8494 Cl  0  0  0  0  0  0  0  0  0  0  0  0
   -7.5978   -1.2810    1.4403 C   0  0  0  0  0  0  0  0  0  0  0  0
   -8.7535   -2.5269    1.8509 Cl  0  0  0  0  0  0  0  0  0  0  0  0
   -6.8621   -1.2953    0.2776 C   0  0  0  0  0  0  0  0  0  0  0  0
   -4.8108    1.9247   -2.0745 N   0  0  0  0  0  0  0  0  0  0  0  0
   -4.0262    2.9693   -2.3638 C   0  0  0  0  0  0  0  0  0  0  0  0
   -2.6865    2.8544   -2.1197 N   0  0  0  0  0  0  0  0  0  0  0  0
   -2.1796    1.7319   -1.6067 C   0  0  0  0  0  0  0  0  0  0  0  0
   -0.8272    1.5697   -1.3415 C   0  0  0  0  0  0  0  0  0  0  0  0
   -0.3101    0.4121   -0.8129 C   0  0  0  0  0  0  0  0  0  0  0  0
    1.0188    0.1945   -0.5273 O   0  0  0  0  0  0  0  0  0  0  0  0
    1.9821    1.1676   -0.7588 C   0  0  0  0  0  0  0  0  0  0  0  0
    3.3694    0.6933   -0.3397 C   0  0  1  0  0  0  0  0  0  0  0  0
    3.3734    0.3554    1.1424 C   0  0  0  0  0  0  0  0  0  0  0  0
    4.4903   -0.6470    1.3045 C   0  0  2  0  0  0  0  0  0  0  0  0
    5.7868    0.0300    1.6443 C   0  0  0  0  0  0  0  0  0  0  0  0
    6.7862   -0.5178    0.7909 N   0  0  0  0  0  0  0  0  0  0  0  0
    7.7276    0.5383    0.4559 C   0  0  0  0  0  0  0  0  0  0  0  0
    6.1518   -1.0805   -0.3461 C   0  0  0  0  0  0  0  0  0  0  0  0
    4.7121   -1.2475   -0.0327 C   0  0  2  0  0  0  0  0  0  0  0  0
    3.7960   -0.5693   -0.9894 C   0  0  0  0  0  0  0  0  0  0  0  0
   -2.1178   -2.7201    1.1958 H   0  0  0  0  0  0  0  0  0  0  0  0
   -0.8729   -3.8233    0.6000 H   0  0  0  0  0  0  0  0  0  0  0  0
   -2.1215   -3.2673   -0.5201 H   0  0  0  0  0  0  0  0  0  0  0  0
   -3.2073   -1.3238   -0.5694 H   0  0  0  0  0  0  0  0  0  0  0  0
   -5.2989   -1.1261   -1.9128 H   0  0  0  0  0  0  0  0  0  0  0  0
   -5.1241    1.5367    0.7199 H   0  0  0  0  0  0  0  0  0  0  0  0
   -6.3991    1.5745    2.7486 H   0  0  0  0  0  0  0  0  0  0  0  0
   -6.9840   -2.1020   -0.4290 H   0  0  0  0  0  0  0  0  0  0  0  0
   -4.4625    3.8744   -2.7811 H   0  0  0  0  0  0  0  0  0  0  0  0
   -0.1580    2.4113   -1.5700 H   0  0  0  0  0  0  0  0  0  0  0  0
    1.7835    2.1242   -0.2413 H   0  0  0  0  0  0  0  0  0  0  0  0
    2.0077    1.3882   -1.8599 H   0  0  0  0  0  0  0  0  0  0  0  0
    4.0780    1.4999   -0.5822 H   0  0  0  0  0  0  0  0  0  0  0  0
    3.5131    1.2855    1.7208 H   0  0  0  0  0  0  0  0  0  0  0  0
    2.4006   -0.1080    1.3627 H   0  0  0  0  0  0  0  0  0  0  0  0
    4.2157   -1.4177    2.0777 H   0  0  0  0  0  0  0  0  0  0  0  0
    5.6677    1.1314    1.5398 H   0  0  0  0  0  0  0  0  0  0  0  0
    5.9730   -0.1428    2.7271 H   0  0  0  0  0  0  0  0  0  0  0  0
    7.6153    1.4128    1.1579 H   0  0  0  0  0  0  0  0  0  0  0  0
    7.4335    0.9197   -0.5455 H   0  0  0  0  0  0  0  0  0  0  0  0
    8.7720    0.1975    0.4311 H   0  0  0  0  0  0  0  0  0  0  0  0
    6.6638   -2.0687   -0.5621 H   0  0  0  0  0  0  0  0  0  0  0  0
    6.3496   -0.4284   -1.2234 H   0  0  0  0  0  0  0  0  0  0  0  0
    4.5069   -2.3719   -0.0136 H   0  0  0  0  0  0  0  0  0  0  0  0
    2.8721   -1.2244   -1.0644 H   0  0  0  0  0  0  0  0  0  0  0  0
    4.2176   -0.4669   -2.0129 H   0  0  0  0  0  0  0  0  0  0  0  0
  1  2  1  0
  2  3  1  0
  3  4  2  0
  4  5  1  0
  5  6  2  0
  6  7  1  0
  7  8  1  0
  8  9  2  0
  9 10  1  0
 10 11  2  0
 11 12  1  0
 11 13  1  0
 13 14  1  0
 13 15  2  0
  6 16  1  0
 16 17  2  0
 17 18  1  0
 18 19  2  0
 19 20  1  0
 20 21  2  0
 21 22  1  0
 22 23  1  0
 23 24  1  0
 24 25  1  0
 25 26  1  0
 26 27  1  0
 27 28  1  0
 28 29  1  0
 28 30  1  0
 30 31  1  0
 31 32  1  0
 21  3  1  0
 32 24  1  0
 19  5  1  0
 31 26  1  0
 15  8  1  0
  1 33  1  0
  1 34  1  0
  1 35  1  0
  4 36  1  0
  7 37  1  0
  9 38  1  0
 10 39  1  0
 15 40  1  0
 17 41  1  0
 20 42  1  0
 23 43  1  0
 23 44  1  0
 24 45  1  1
 25 46  1  0
 25 47  1  0
 26 48  1  1
 27 49  1  0
 27 50  1  0
 29 51  1  0
 29 52  1  0
 29 53  1  0
 30 54  1  0
 30 55  1  0
 31 56  1  1
 32 57  1  0
 32 58  1  0
M  END
$$$$
