@<TRIPOS>MOLECULE
*****
 58 62 0 0 0
SMALL
GASTEIGER

@<TRIPOS>ATOM
      1 C          -1.4794   -2.9140    0.3095 C.3     1  UNL1        0.0790
      2 O          -0.6561   -1.8350    0.0111 O.3     1  UNL1       -0.4914
      3 C          -1.1603   -0.6575   -0.5230 C.ar    1  UNL1        0.1623
      4 C          -2.4938   -0.5117   -0.7789 C.ar    1  UNL1       -0.0038
      5 C          -3.0054    0.6538   -1.3096 C.ar    1  UNL1        0.0441
      6 C          -4.3563    0.7628   -1.5534 C.ar    1  UNL1        0.1340
      7 N          -5.2106   -0.3213   -1.2518 N.pl3   1  UNL1       -0.2988
      8 C          -5.9515   -0.3038   -0.0385 C.ar    1  UNL1        0.0339
      9 C          -5.8231    0.7075    0.8887 C.ar    1  UNL1       -0.0390
     10 C          -6.5379    0.7463    2.0466 C.ar    1  UNL1       -0.0402
     11 C          -7.4478   -0.2438    2.3623 C.ar    1  UNL1        0.0594
     12 CL         -8.3429   -0.1583    3.8494 Cl      1  UNL1       -0.0820
     13 C          -7.5978   -1.2810    1.4403 C.ar    1  UNL1        0.0610
     14 CL         -8.7535   -2.5269    1.8509 Cl      1  UNL1       -0.0820
     15 C          -6.8621   -1.2953    0.2776 C.ar    1  UNL1       -0.0207
     16 N          -4.8108    1.9247   -2.0745 N.ar    1  UNL1       -0.2200
     17 C          -4.0262    2.9693   -2.3638 C.ar    1  UNL1        0.1187
     18 N          -2.6865    2.8544   -2.1197 N.ar    1  UNL1       -0.2352
     19 C          -2.1796    1.7319   -1.6067 C.ar    1  UNL1        0.0797
     20 C          -0.8272    1.5697   -1.3415 C.ar    1  UNL1        0.0098
     21 C          -0.3101    0.4121   -0.8129 C.ar    1  UNL1        0.1640
     22 O           1.0188    0.1945   -0.5273 O.3     1  UNL1       -0.4880
     23 C           1.9821    1.1676   -0.7588 C.3     1  UNL1        0.0926
     24 C           3.3694    0.6933   -0.3397 C.3     1  UNL1       -0.0062
     25 C           3.3734    0.3554    1.1424 C.3     1  UNL1       -0.0428
     26 C           4.4903   -0.6470    1.3045 C.3     1  UNL1       -0.0239
     27 C           5.7868    0.0300    1.6443 C.3     1  UNL1        0.0017
     28 N           6.7862   -0.5178    0.7909 N.3     1  UNL1       -0.3048
     29 C           7.7276    0.5383    0.4559 C.3     1  UNL1       -0.0127
     30 C           6.1518   -1.0805   -0.3461 C.3     1  UNL1        0.0017
     31 C           4.7121   -1.2475   -0.0327 C.3     1  UNL1       -0.0239
     32 C           3.7960   -0.5693   -0.9894 C.3     1  UNL1       -0.0428
     33 H          -2.1178   -2.7201    1.1958 H       1  UNL1        0.0660
     34 H          -0.8729   -3.8233    0.6000 H       1  UNL1        0.0660
     35 H          -2.1215   -3.2673   -0.5201 H       1  UNL1        0.0660
     36 H          -3.2073   -1.3238   -0.5694 H       1  UNL1        0.0663
     37 H          -5.2989   -1.1261   -1.9128 H       1  UNL1        0.1536
     38 H          -5.1241    1.5367    0.7199 H       1  UNL1        0.0636
     39 H          -6.3991    1.5745    2.7486 H       1  UNL1        0.0633
     40 H          -6.9840   -2.1020   -0.4290 H       1  UNL1        0.0651
     41 H          -4.4625    3.8744   -2.7811 H       1  UNL1        0.1048
     42 H          -0.1580    2.4113   -1.5700 H       1  UNL1        0.0677
     43 H           1.7835    2.1242   -0.2413 H       1  UNL1        0.0699
     44 H           2.0077    1.3882   -1.8599 H       1  UNL1        0.0699
     45 H           4.0780    1.4999   -0.5822 H       1  UNL1        0.0334
     46 H           3.5131    1.2855    1.7208 H       1  UNL1        0.0272
     47 H           2.4006   -0.1080    1.3627 H       1  UNL1        0.0272
     48 H           4.2157   -1.4177    2.0777 H       1  UNL1        0.0316
     49 H           5.6677    1.1314    1.5398 H       1  UNL1        0.0429
     50 H           5.9730   -0.1428    2.7271 H       1  UNL1        0.0429
     51 H           7.6153    1.4128    1.1579 H       1  UNL1        0.0391
     52 H           7.4335    0.9197   -0.5455 H       1  UNL1        0.0391
     53 H           8.7720    0.1975    0.4311 H       1  UNL1        0.0391
     54 H           6.6638   -2.0687   -0.5621 H       1  UNL1        0.0429
     55 H           6.3496   -0.4284   -1.2234 H       1  UNL1        0.0429
     56 H           4.5069   -2.3719   -0.0136 H       1  UNL1        0.0316
     57 H           2.8721   -1.2244   -1.0644 H       1  UNL1        0.0272
     58 H           4.2176   -0.4669   -2.0129 H       1  UNL1        0.0272
@<TRIPOS>BOND
     1     1     2    1
     2     2     3    1
     3     3     4   ar
     4     4     5   ar
     5     5     6   ar
     6     6     7    1
     7     7     8    1
     8     8     9   ar
     9     9    10   ar
    10    10    11   ar
    11    11    12    1
    12    11    13   ar
    13    13    14    1
    14    13    15   ar
    15     6    16   ar
    16    16    17   ar
    17    17    18   ar
    18    18    19   ar
    19    19    20   ar
    20    20    21   ar
    21    21    22    1
    22    22    23    1
    23    23    24    1
    24    24    25    1
    25    25    26    1
    26    26    27    1
    27    27    28    1
    28    28    29    1
    29    28    30    1
    30    30    31    1
    31    31    32    1
    32    21     3   ar
    33    32    24    1
    34    19     5   ar
    35    31    26    1
    36    15     8   ar
    37     1    33    1
    38     1    34    1
    39     1    35    1
    40     4    36    1
    41     7    37    1
    42     9    38    1
    43    10    39    1
    44    15    40    1
    45    17    41    1
    46    20    42    1
    47    23    43    1
    48    23    44    1
    49    24    45    1
    50    25    46    1
    51    25    47    1
    52    26    48    1
    53    27    49    1
    54    27    50    1
    55    29    51    1
    56    29    52    1
    57    29    53    1
    58    30    54    1
    59    30    55    1
    60    31    56    1
    61    32    57    1
    62    32    58    1
