@<TRIPOS>MOLECULE
*****
 44 46 0 0 0
SMALL
GASTEIGER

@<TRIPOS>ATOM
      1 C           1.3790   -1.4267    1.1602 C.3     1  UNL1        0.0163
      2 N           0.0765   -0.9205    0.7800 N.ar    1  UNL1       -0.2993
      3 C          -0.1742   -0.2315   -0.3314 C.ar    1  UNL1        0.1230
      4 C           0.7882    0.0943   -1.3622 C.3     1  UNL1        0.0826
      5 C           2.2033    0.0468   -1.1429 C.2     1  UNL1        0.2245
      6 O           2.8561   -1.0254   -1.2053 O.2     1  UNL1       -0.2750
      7 N           2.9681    1.2312   -0.8356 N.am    1  UNL1       -0.2851
      8 C           4.3724    1.0400   -0.6241 C.ar    1  UNL1        0.0349
      9 C           4.8457    0.7896    0.6709 C.ar    1  UNL1       -0.0377
     10 C           6.1485    0.5828    0.9853 C.ar    1  UNL1       -0.0232
     11 C           7.0693    0.6230   -0.0550 C.ar    1  UNL1        0.1417
     12 F           8.3610    0.4138    0.2861 F       1  UNL1       -0.2040
     13 C           6.6476    0.8669   -1.3521 C.ar    1  UNL1        0.0778
     14 CL          7.8427    0.9063   -2.6523 Cl      1  UNL1       -0.0805
     15 C           5.3157    1.0715   -1.6202 C.ar    1  UNL1       -0.0193
     16 N          -1.4479    0.2351   -0.5958 N.ar    1  UNL1       -0.2184
     17 C          -2.5003    0.0555    0.1906 C.ar    1  UNL1        0.1285
     18 N          -3.8158    0.5079   -0.0454 N.pl3   1  UNL1       -0.3106
     19 C          -4.6102    0.1224   -1.2250 C.3     1  UNL1        0.0370
     20 C          -5.9670   -0.3926   -0.7690 C.3     1  UNL1        0.0634
     21 O          -5.9646   -0.4884    0.6037 O.3     1  UNL1       -0.3767
     22 C          -5.8965    0.7747    1.1699 C.3     1  UNL1        0.0634
     23 C          -4.5380    1.4086    0.8659 C.3     1  UNL1        0.0370
     24 C          -2.2362   -0.6748    1.3670 C.ar    1  UNL1        0.0429
     25 C          -0.9745   -1.1382    1.6299 C.ar    1  UNL1        0.2556
     26 O          -0.7310   -1.7960    2.6892 O.2     1  UNL1       -0.2675
     27 H           1.6957   -2.3387    0.6755 H       1  UNL1        0.0457
     28 H           2.0791   -0.5753    1.2172 H       1  UNL1        0.0457
     29 H           1.3085   -1.7306    2.2662 H       1  UNL1        0.0457
     30 H           0.4881   -0.4962   -2.2778 H       1  UNL1        0.0438
     31 H           0.5547    1.1651   -1.7130 H       1  UNL1        0.0438
     32 H           2.5054    2.1615   -0.7804 H       1  UNL1        0.1548
     33 H           4.0980    0.7629    1.4609 H       1  UNL1        0.0637
     34 H           6.4440    0.3893    2.0292 H       1  UNL1        0.0647
     35 H           4.9692    1.2625   -2.6336 H       1  UNL1        0.0652
     36 H          -4.0664   -0.6969   -1.7149 H       1  UNL1        0.0487
     37 H          -4.6969    0.9995   -1.8710 H       1  UNL1        0.0487
     38 H          -6.1246   -1.3927   -1.2461 H       1  UNL1        0.0575
     39 H          -6.7471    0.3111   -1.1198 H       1  UNL1        0.0575
     40 H          -6.0274    0.6643    2.2592 H       1  UNL1        0.0575
     41 H          -6.7315    1.3806    0.7817 H       1  UNL1        0.0575
     42 H          -4.7274    2.3306    0.2929 H       1  UNL1        0.0487
     43 H          -3.9761    1.6568    1.7730 H       1  UNL1        0.0487
     44 H          -3.0630   -0.8328    2.0190 H       1  UNL1        0.0706
@<TRIPOS>BOND
     1     1     2    1
     2     2     3   ar
     3     3     4    1
     4     4     5    1
     5     5     6    2
     6     5     7   am
     7     7     8    1
     8     8     9   ar
     9     9    10   ar
    10    10    11   ar
    11    11    12    1
    12    11    13   ar
    13    13    14    1
    14    13    15   ar
    15     3    16   ar
    16    16    17   ar
    17    17    18    1
    18    18    19    1
    19    19    20    1
    20    20    21    1
    21    21    22    1
    22    22    23    1
    23    17    24   ar
    24    24    25   ar
    25    25    26    2
    26    25     2   ar
    27    15     8   ar
    28    23    18    1
    29     1    27    1
    30     1    28    1
    31     1    29    1
    32     4    30    1
    33     4    31    1
    34     7    32    1
    35     9    33    1
    36    10    34    1
    37    15    35    1
    38    19    36    1
    39    19    37    1
    40    20    38    1
    41    20    39    1
    42    22    40    1
    43    22    41    1
    44    23    42    1
    45    23    43    1
    46    24    44    1
