@<TRIPOS>MOLECULE
*****
 59 62 0 0 0
SMALL
GASTEIGER

@<TRIPOS>ATOM
      1 C          -0.5056    2.9110   -0.0544 C.3     1  UNL1       -0.0045
      2 C          -0.9791    1.5071    0.0597 C.ar    1  UNL1        0.1301
      3 N          -0.1553    0.5536    0.5200 N.ar    1  UNL1       -0.2174
      4 C          -0.5557   -0.7470    0.6338 C.ar    1  UNL1        0.1296
      5 N           0.3447   -1.7189    1.1310 N.pl3   1  UNL1       -0.2785
      6 C           1.5822   -1.9961    0.3594 C.ar    1  UNL1        0.1641
      7 N           2.0680   -2.5928   -0.4516 N.ar    1  UNL1       -0.2322
      8 C           3.3087   -2.5677   -0.9111 C.ar    1  UNL1        0.0491
      9 C           4.1337   -1.6961   -0.3270 C.ar    1  UNL1        0.0953
     10 C           5.5635   -1.3241   -0.5030 C.2     1  UNL1        0.2565
     11 O           6.2552   -1.9006   -1.3751 O.2     1  UNL1       -0.2692
     12 N           6.1050   -0.3085    0.3386 N.am    1  UNL1       -0.2796
     13 C           7.4569    0.0639    0.1879 C.ar    1  UNL1        0.0551
     14 C           7.8168    1.0730   -0.6720 C.ar    1  UNL1       -0.0278
     15 C           6.7754    1.7800   -1.4537 C.3     1  UNL1       -0.0379
     16 C           9.1530    1.4407   -0.8171 C.ar    1  UNL1       -0.0570
     17 C          10.1386    0.7936   -0.0957 C.ar    1  UNL1       -0.0600
     18 C           9.7869   -0.2155    0.7653 C.ar    1  UNL1       -0.0416
     19 C           8.4434   -0.5693    0.8966 C.ar    1  UNL1        0.0624
     20 CL          8.0395   -1.8743    2.0159 Cl      1  UNL1       -0.0816
     21 S           3.0577   -0.9051    0.9174 S.2     1  UNL1       -0.0475
     22 C          -1.8508   -1.0161    0.2494 C.ar    1  UNL1        0.0185
     23 C          -2.7353   -0.0770   -0.2280 C.ar    1  UNL1        0.1266
     24 N          -4.0628   -0.3224   -0.6199 N.pl3   1  UNL1       -0.3126
     25 C          -4.6915   -1.6053   -0.5360 C.3     1  UNL1        0.0263
     26 C          -6.0584   -1.5500    0.0967 C.3     1  UNL1        0.0148
     27 N          -6.7761   -0.3713   -0.1015 N.3     1  UNL1       -0.2972
     28 C          -8.1313   -0.3392    0.2875 C.3     1  UNL1        0.0222
     29 C          -8.8111    0.9896    0.0261 C.3     1  UNL1        0.0569
     30 O         -10.1443    0.8264    0.4725 O.3     1  UNL1       -0.3937
     31 C          -6.0809    0.8452   -0.2440 C.3     1  UNL1        0.0148
     32 C          -4.8618    0.7587   -1.1385 C.3     1  UNL1        0.0263
     33 N          -2.2326    1.1915   -0.3018 N.ar    1  UNL1       -0.2175
     34 H          -1.2793    3.6433    0.2475 H       1  UNL1        0.0308
     35 H          -0.2238    3.0655   -1.1253 H       1  UNL1        0.0308
     36 H           0.3723    3.0183    0.6212 H       1  UNL1        0.0308
     37 H           0.2332   -2.2700    1.9914 H       1  UNL1        0.1555
     38 H           3.6422   -3.2378   -1.7382 H       1  UNL1        0.0843
     39 H           5.4941    0.1375    1.0465 H       1  UNL1        0.1552
     40 H           6.9650    2.8598   -1.5223 H       1  UNL1        0.0278
     41 H           5.7702    1.6523   -0.9938 H       1  UNL1        0.0278
     42 H           6.8103    1.3440   -2.4819 H       1  UNL1        0.0278
     43 H           9.4225    2.2268   -1.4883 H       1  UNL1        0.0621
     44 H          11.1581    1.0821   -0.2141 H       1  UNL1        0.0618
     45 H          10.5507   -0.7281    1.3336 H       1  UNL1        0.0633
     46 H          -2.1719   -2.0295    0.3341 H       1  UNL1        0.0686
     47 H          -4.1007   -2.4109   -0.1081 H       1  UNL1        0.0477
     48 H          -4.8794   -1.9149   -1.6099 H       1  UNL1        0.0477
     49 H          -5.9284   -1.7711    1.1930 H       1  UNL1        0.0442
     50 H          -6.6370   -2.4148   -0.2929 H       1  UNL1        0.0442
     51 H          -8.1773   -0.4703    1.4103 H       1  UNL1        0.0449
     52 H          -8.7036   -1.1857   -0.1140 H       1  UNL1        0.0449
     53 H          -8.8406    1.2695   -1.0258 H       1  UNL1        0.0570
     54 H          -8.3766    1.7901    0.6572 H       1  UNL1        0.0570
     55 H         -10.5616    0.2657   -0.2571 H       1  UNL1        0.2095
     56 H          -5.6969    1.1768    0.7633 H       1  UNL1        0.0442
     57 H          -6.7687    1.6449   -0.5761 H       1  UNL1        0.0442
     58 H          -5.1357    0.4759   -2.1786 H       1  UNL1        0.0477
     59 H          -4.3337    1.7436   -1.0903 H       1  UNL1        0.0477
@<TRIPOS>BOND
     1     1     2    1
     2     2     3   ar
     3     3     4   ar
     4     4     5    1
     5     5     6    1
     6     6     7   ar
     7     7     8   ar
     8     8     9   ar
     9     9    10    1
    10    10    11    2
    11    10    12   am
    12    12    13    1
    13    13    14   ar
    14    14    15    1
    15    14    16   ar
    16    16    17   ar
    17    17    18   ar
    18    18    19   ar
    19    19    20    1
    20     9    21   ar
    21     4    22   ar
    22    22    23   ar
    23    23    24    1
    24    24    25    1
    25    25    26    1
    26    26    27    1
    27    27    28    1
    28    28    29    1
    29    29    30    1
    30    27    31    1
    31    31    32    1
    32    23    33   ar
    33    33     2   ar
    34    21     6   ar
    35    32    24    1
    36    19    13   ar
    37     1    34    1
    38     1    35    1
    39     1    36    1
    40     5    37    1
    41     8    38    1
    42    12    39    1
    43    15    40    1
    44    15    41    1
    45    15    42    1
    46    16    43    1
    47    17    44    1
    48    18    45    1
    49    22    46    1
    50    25    47    1
    51    25    48    1
    52    26    49    1
    53    26    50    1
    54    28    51    1
    55    28    52    1
    56    29    53    1
    57    29    54    1
    58    30    55    1
    59    31    56    1
    60    31    57    1
    61    32    58    1
    62    32    59    1
