
     RDKit          3D

 59 62  0  0  0  0  0  0  0  0999 V2000
   -0.5056    2.9110   -0.0544 C   0  0  0  0  0  0  0  0  0  0  0  0
   -0.9791    1.5071    0.0597 C   0  0  0  0  0  0  0  0  0  0  0  0
   -0.1553    0.5536    0.5200 N   0  0  0  0  0  0  0  0  0  0  0  0
   -0.5557   -0.7470    0.6338 C   0  0  0  0  0  0  0  0  0  0  0  0
    0.3447   -1.7189    1.1310 N   0  0  0  0  0  0  0  0  0  0  0  0
    1.5822   -1.9961    0.3594 C   0  0  0  0  0  0  0  0  0  0  0  0
    2.0680   -2.5928   -0.4516 N   0  0  0  0  0  0  0  0  0  0  0  0
    3.3087   -2.5677   -0.9111 C   0  0  0  0  0  0  0  0  0  0  0  0
    4.1337   -1.6961   -0.3270 C   0  0  0  0  0  0  0  0  0  0  0  0
    5.5635   -1.3241   -0.5030 C   0  0  0  0  0  0  0  0  0  0  0  0
    6.2552   -1.9006   -1.3751 O   0  0  0  0  0  0  0  0  0  0  0  0
    6.1050   -0.3085    0.3386 N   0  0  0  0  0  0  0  0  0  0  0  0
    7.4569    0.0639    0.1879 C   0  0  0  0  0  0  0  0  0  0  0  0
    7.8168    1.0730   -0.6720 C   0  0  0  0  0  0  0  0  0  0  0  0
    6.7754    1.7800   -1.4537 C   0  0  0  0  0  0  0  0  0  0  0  0
    9.1530    1.4407   -0.8171 C   0  0  0  0  0  0  0  0  0  0  0  0
   10.1386    0.7936   -0.0957 C   0  0  0  0  0  0  0  0  0  0  0  0
    9.7869   -0.2155    0.7653 C   0  0  0  0  0  0  0  0  0  0  0  0
    8.4434   -0.5693    0.8966 C   0  0  0  0  0  0  0  0  0  0  0  0
    8.0395   -1.8743    2.0159 Cl  0  0  0  0  0  0  0  0  0  0  0  0
    3.0577   -0.9051    0.9174 S   0  0  0  0  0  0  0  0  0  0  0  0
   -1.8508   -1.0161    0.2494 C   0  0  0  0  0  0  0  0  0  0  0  0
   -2.7353   -0.0770   -0.2280 C   0  0  0  0  0  0  0  0  0  0  0  0
   -4.0628   -0.3224   -0.6199 N   0  0  0  0  0  0  0  0  0  0  0  0
   -4.6915   -1.6053   -0.5360 C   0  0  0  0  0  0  0  0  0  0  0  0
   -6.0584   -1.5500    0.0967 C   0  0  0  0  0  0  0  0  0  0  0  0
   -6.7761   -0.3713   -0.1015 N   0  0  0  0  0  0  0  0  0  0  0  0
   -8.1313   -0.3392    0.2875 C   0  0  0  0  0  0  0  0  0  0  0  0
   -8.8111    0.9896    0.0261 C   0  0  0  0  0  0  0  0  0  0  0  0
  -10.1443    0.8264    0.4725 O   0  0  0  0  0  0  0  0  0  0  0  0
   -6.0809    0.8452   -0.2440 C   0  0  0  0  0  0  0  0  0  0  0  0
   -4.8618    0.7587   -1.1385 C   0  0  0  0  0  0  0  0  0  0  0  0
   -2.2326    1.1915   -0.3018 N   0  0  0  0  0  0  0  0  0  0  0  0
   -1.2793    3.6433    0.2475 H   0  0  0  0  0  0  0  0  0  0  0  0
   -0.2238    3.0655   -1.1253 H   0  0  0  0  0  0  0  0  0  0  0  0
    0.3723    3.0183    0.6212 H   0  0  0  0  0  0  0  0  0  0  0  0
    0.2332   -2.2700    1.9914 H   0  0  0  0  0  0  0  0  0  0  0  0
    3.6422   -3.2378   -1.7382 H   0  0  0  0  0  0  0  0  0  0  0  0
    5.4941    0.1375    1.0465 H   0  0  0  0  0  0  0  0  0  0  0  0
    6.9650    2.8598   -1.5223 H   0  0  0  0  0  0  0  0  0  0  0  0
    5.7702    1.6523   -0.9938 H   0  0  0  0  0  0  0  0  0  0  0  0
    6.8103    1.3440   -2.4819 H   0  0  0  0  0  0  0  0  0  0  0  0
    9.4225    2.2268   -1.4883 H   0  0  0  0  0  0  0  0  0  0  0  0
   11.1581    1.0821   -0.2141 H   0  0  0  0  0  0  0  0  0  0  0  0
   10.5507   -0.7281    1.3336 H   0  0  0  0  0  0  0  0  0  0  0  0
   -2.1719   -2.0295    0.3341 H   0  0  0  0  0  0  0  0  0  0  0  0
   -4.1007   -2.4109   -0.1081 H   0  0  0  0  0  0  0  0  0  0  0  0
   -4.8794   -1.9149   -1.6099 H   0  0  0  0  0  0  0  0  0  0  0  0
   -5.9284   -1.7711    1.1930 H   0  0  0  0  0  0  0  0  0  0  0  0
   -6.6370   -2.4148   -0.2929 H   0  0  0  0  0  0  0  0  0  0  0  0
   -8.1773   -0.4703    1.4103 H   0  0  0  0  0  0  0  0  0  0  0  0
   -8.7036   -1.1857   -0.1140 H   0  0  0  0  0  0  0  0  0  0  0  0
   -8.8406    1.2695   -1.0258 H   0  0  0  0  0  0  0  0  0  0  0  0
   -8.3766    1.7901    0.6572 H   0  0  0  0  0  0  0  0  0  0  0  0
  -10.5616    0.2657   -0.2571 H   0  0  0  0  0  0  0  0  0  0  0  0
   -5.6969    1.1768    0.7633 H   0  0  0  0  0  0  0  0  0  0  0  0
   -6.7687    1.6449   -0.5761 H   0  0  0  0  0  0  0  0  0  0  0  0
   -5.1357    0.4759   -2.1786 H   0  0  0  0  0  0  0  0  0  0  0  0
   -4.3337    1.7436   -1.0903 H   0  0  0  0  0  0  0  0  0  0  0  0
  1  2  1  0
  2  3  2  0
  3  4  1  0
  4  5  1  0
  5  6  1  0
  6  7  2  0
  7  8  1  0
  8  9  2  0
  9 10  1  0
 10 11  2  0
 10 12  1  0
 12 13  1  0
 13 14  2  0
 14 15  1  0
 14 16  1  0
 16 17  2  0
 17 18  1  0
 18 19  2  0
 19 20  1  0
  9 21  1  0
  4 22  2  0
 22 23  1  0
 23 24  1  0
 24 25  1  0
 25 26  1  0
 26 27  1  0
 27 28  1  0
 28 29  1  0
 29 30  1  0
 27 31  1  0
 31 32  1  0
 23 33  2  0
 33  2  1  0
 21  6  1  0
 32 24  1  0
 19 13  1  0
  1 34  1  0
  1 35  1  0
  1 36  1  0
  5 37  1  0
  8 38  1  0
 12 39  1  0
 15 40  1  0
 15 41  1  0
 15 42  1  0
 16 43  1  0
 17 44  1  0
 18 45  1  0
 22 46  1  0
 25 47  1  0
 25 48  1  0
 26 49  1  0
 26 50  1  0
 28 51  1  0
 28 52  1  0
 29 53  1  0
 29 54  1  0
 30 55  1  0
 31 56  1  0
 31 57  1  0
 32 58  1  0
 32 59  1  0
M  END
$$$$
