
     RDKit          3D

 53 55  0  0  0  0  0  0  0  0999 V2000
   -4.4764    3.3120    1.9200 O   0  0  0  0  0  0  0  0  0  0  0  0
   -4.1014    2.2541    2.4837 C   0  0  0  0  0  0  0  0  0  0  0  0
   -4.1262    2.2126    3.8678 O   0  0  0  0  0  0  0  0  0  0  0  0
   -3.6376    1.0603    1.7211 C   0  0  0  0  0  0  0  0  0  0  0  0
   -2.2207    1.3508    1.3062 C   0  0  0  0  0  0  0  0  0  0  0  0
   -1.5162    0.3288    0.5342 C   0  0  0  0  0  0  0  0  0  0  0  0
   -2.2088   -0.0621   -0.7156 C   0  0  0  0  0  0  0  0  0  0  0  0
   -2.5873   -1.4098   -0.9053 C   0  0  0  0  0  0  0  0  0  0  0  0
   -3.1618   -1.8753   -2.0642 C   0  0  0  0  0  0  0  0  0  0  0  0
   -3.3717   -0.9782   -3.0719 C   0  0  0  0  0  0  0  0  0  0  0  0
   -3.0080    0.3276   -2.8857 C   0  0  0  0  0  0  0  0  0  0  0  0
   -2.4162    0.8368   -1.7036 C   0  0  0  0  0  0  0  0  0  0  0  0
   -2.2420    2.2426   -1.7066 C   0  0  0  0  0  0  0  0  0  0  0  0
   -3.2703    2.8114   -0.9203 F   0  0  0  0  0  0  0  0  0  0  0  0
   -2.5404    2.7885   -2.9596 F   0  0  0  0  0  0  0  0  0  0  0  0
   -1.1327    2.8820   -1.3119 F   0  0  0  0  0  0  0  0  0  0  0  0
   -1.3903   -0.9028    1.4060 C   0  0  0  0  0  0  0  0  0  0  0  0
   -0.3830   -0.6686    2.5358 C   0  0  0  0  0  0  0  0  0  0  0  0
    0.9491   -1.0585    1.8608 C   0  0  0  0  0  0  0  0  0  0  0  0
    0.9613   -0.1828    0.7012 N   0  0  0  0  0  0  0  0  0  0  0  0
    2.1776   -0.2236   -0.0362 C   0  0  0  0  0  0  0  0  0  0  0  0
    2.2971    0.4930   -1.0547 O   0  0  0  0  0  0  0  0  0  0  0  0
    3.2819   -1.0422    0.3202 N   0  0  0  0  0  0  0  0  0  0  0  0
    4.4828   -1.0613   -0.4359 C   0  0  0  0  0  0  0  0  0  0  0  0
    5.5053   -0.1891   -0.1327 C   0  0  0  0  0  0  0  0  0  0  0  0
    6.6911   -0.1600   -0.8280 C   0  0  0  0  0  0  0  0  0  0  0  0
    6.8541   -1.0355   -1.8610 C   0  0  0  0  0  0  0  0  0  0  0  0
    8.3595   -1.0297   -2.7772 Cl  0  0  0  0  0  0  0  0  0  0  0  0
    5.8422   -1.9245   -2.1887 C   0  0  0  0  0  0  0  0  0  0  0  0
    4.6501   -1.9344   -1.4691 C   0  0  0  0  0  0  0  0  0  0  0  0
   -0.0618    0.6849    0.2343 C   0  0  0  0  0  0  0  0  0  0  0  0
   -4.0615    3.0312    4.4635 H   0  0  0  0  0  0  0  0  0  0  0  0
   -4.3260    0.9858    0.8389 H   0  0  0  0  0  0  0  0  0  0  0  0
   -3.7935    0.2081    2.3519 H   0  0  0  0  0  0  0  0  0  0  0  0
   -2.1987    2.3860    1.0232 H   0  0  0  0  0  0  0  0  0  0  0  0
   -1.7100    1.3219    2.3874 H   0  0  0  0  0  0  0  0  0  0  0  0
   -2.4375   -2.0785   -0.0866 H   0  0  0  0  0  0  0  0  0  0  0  0
   -3.4340   -2.9269   -2.1587 H   0  0  0  0  0  0  0  0  0  0  0  0
   -3.8272   -1.3233   -4.0083 H   0  0  0  0  0  0  0  0  0  0  0  0
   -3.2057    0.9976   -3.7407 H   0  0  0  0  0  0  0  0  0  0  0  0
   -0.9265   -1.6840    0.7185 H   0  0  0  0  0  0  0  0  0  0  0  0
   -2.3131   -1.3316    1.7631 H   0  0  0  0  0  0  0  0  0  0  0  0
   -0.1930    0.3868    2.7785 H   0  0  0  0  0  0  0  0  0  0  0  0
   -0.6340   -1.2989    3.3761 H   0  0  0  0  0  0  0  0  0  0  0  0
    0.9095   -2.1121    1.5498 H   0  0  0  0  0  0  0  0  0  0  0  0
    1.7317   -0.8195    2.5951 H   0  0  0  0  0  0  0  0  0  0  0  0
    3.2324   -1.6716    1.1791 H   0  0  0  0  0  0  0  0  0  0  0  0
    5.4070    0.5292    0.6933 H   0  0  0  0  0  0  0  0  0  0  0  0
    7.4934    0.5219   -0.5926 H   0  0  0  0  0  0  0  0  0  0  0  0
    6.0154   -2.6075   -3.0228 H   0  0  0  0  0  0  0  0  0  0  0  0
    3.8987   -2.6490   -1.7703 H   0  0  0  0  0  0  0  0  0  0  0  0
    0.0422    0.6221   -0.8775 H   0  0  0  0  0  0  0  0  0  0  0  0
    0.1311    1.6651    0.6760 H   0  0  0  0  0  0  0  0  0  0  0  0
  1  2  2  0
  2  3  1  0
  2  4  1  0
  4  5  1  0
  5  6  1  0
  6  7  1  0
  7  8  2  0
  8  9  1  0
  9 10  2  0
 10 11  1  0
 11 12  2  0
 12 13  1  0
 13 14  1  0
 13 15  1  0
 13 16  1  0
  6 17  1  0
 17 18  1  0
 18 19  1  0
 19 20  1  0
 20 21  1  0
 21 22  2  0
 21 23  1  0
 23 24  1  0
 24 25  2  0
 25 26  1  0
 26 27  2  0
 27 28  1  0
 27 29  1  0
 29 30  2  0
 20 31  1  0
 31  6  1  0
 12  7  1  0
 30 24  1  0
  3 32  1  0
  4 33  1  0
  4 34  1  0
  5 35  1  0
  5 36  1  0
  8 37  1  0
  9 38  1  0
 10 39  1  0
 11 40  1  0
 17 41  1  0
 17 42  1  0
 18 43  1  0
 18 44  1  0
 19 45  1  0
 19 46  1  0
 23 47  1  0
 25 48  1  0
 26 49  1  0
 29 50  1  0
 30 51  1  0
 31 52  1  0
 31 53  1  0
M  END
$$$$
