@<TRIPOS>MOLECULE
*****
 53 55 0 0 0
SMALL
GASTEIGER

@<TRIPOS>ATOM
      1 O          -4.4764    3.3120    1.9200 O.2     1  UNL1       -0.2510
      2 C          -4.1014    2.2541    2.4837 C.2     1  UNL1        0.3047
      3 O          -4.1262    2.2126    3.8678 O.3     1  UNL1       -0.4806
      4 C          -3.6376    1.0603    1.7211 C.3     1  UNL1        0.0456
      5 C          -2.2207    1.3508    1.3062 C.3     1  UNL1       -0.0318
      6 C          -1.5162    0.3288    0.5342 C.3     1  UNL1        0.0126
      7 C          -2.2088   -0.0621   -0.7156 C.ar    1  UNL1       -0.0281
      8 C          -2.5873   -1.4098   -0.9053 C.ar    1  UNL1       -0.0575
      9 C          -3.1618   -1.8753   -2.0642 C.ar    1  UNL1       -0.0615
     10 C          -3.3717   -0.9782   -3.0719 C.ar    1  UNL1       -0.0612
     11 C          -3.0080    0.3276   -2.8857 C.ar    1  UNL1       -0.0498
     12 C          -2.4162    0.8368   -1.7036 C.ar    1  UNL1        0.0586
     13 C          -2.2420    2.2426   -1.7066 C.3     1  UNL1        0.4177
     14 F          -3.2703    2.8114   -0.9203 F       1  UNL1       -0.1659
     15 F          -2.5404    2.7885   -2.9596 F       1  UNL1       -0.1659
     16 F          -1.1327    2.8820   -1.3119 F       1  UNL1       -0.1659
     17 C          -1.3903   -0.9028    1.4060 C.3     1  UNL1       -0.0405
     18 C          -0.3830   -0.6686    2.5358 C.3     1  UNL1       -0.0362
     19 C           0.9491   -1.0585    1.8608 C.3     1  UNL1        0.0162
     20 N           0.9613   -0.1828    0.7012 N.am    1  UNL1       -0.2845
     21 C           2.1776   -0.2236   -0.0362 C.2     1  UNL1        0.3065
     22 O           2.2971    0.4930   -1.0547 O.2     1  UNL1       -0.2523
     23 N           3.2819   -1.0422    0.3202 N.am    1  UNL1       -0.2693
     24 C           4.4828   -1.0613   -0.4359 C.ar    1  UNL1        0.0349
     25 C           5.5053   -0.1891   -0.1327 C.ar    1  UNL1       -0.0391
     26 C           6.6911   -0.1600   -0.8280 C.ar    1  UNL1       -0.0416
     27 C           6.8541   -1.0355   -1.8610 C.ar    1  UNL1        0.0411
     28 CL          8.3595   -1.0297   -2.7772 Cl      1  UNL1       -0.0835
     29 C           5.8422   -1.9245   -2.1887 C.ar    1  UNL1       -0.0416
     30 C           4.6501   -1.9344   -1.4691 C.ar    1  UNL1       -0.0391
     31 C          -0.0618    0.6849    0.2343 C.3     1  UNL1        0.0258
     32 H          -4.0615    3.0312    4.4635 H       1  UNL1        0.2951
     33 H          -4.3260    0.9858    0.8389 H       1  UNL1        0.0378
     34 H          -3.7935    0.2081    2.3519 H       1  UNL1        0.0378
     35 H          -2.1987    2.3860    1.0232 H       1  UNL1        0.0279
     36 H          -1.7100    1.3219    2.3874 H       1  UNL1        0.0279
     37 H          -2.4375   -2.0785   -0.0866 H       1  UNL1        0.0621
     38 H          -3.4340   -2.9269   -2.1587 H       1  UNL1        0.0618
     39 H          -3.8272   -1.3233   -4.0083 H       1  UNL1        0.0618
     40 H          -3.2057    0.9976   -3.7407 H       1  UNL1        0.0623
     41 H          -0.9265   -1.6840    0.7185 H       1  UNL1        0.0275
     42 H          -2.3131   -1.3316    1.7631 H       1  UNL1        0.0275
     43 H          -0.1930    0.3868    2.7785 H       1  UNL1        0.0281
     44 H          -0.6340   -1.2989    3.3761 H       1  UNL1        0.0281
     45 H           0.9095   -2.1121    1.5498 H       1  UNL1        0.0465
     46 H           1.7317   -0.8195    2.5951 H       1  UNL1        0.0465
     47 H           3.2324   -1.6716    1.1791 H       1  UNL1        0.1564
     48 H           5.4070    0.5292    0.6933 H       1  UNL1        0.0636
     49 H           7.4934    0.5219   -0.5926 H       1  UNL1        0.0633
     50 H           6.0154   -2.6075   -3.0228 H       1  UNL1        0.0633
     51 H           3.8987   -2.6490   -1.7703 H       1  UNL1        0.0636
     52 H           0.0422    0.6221   -0.8775 H       1  UNL1        0.0474
     53 H           0.1311    1.6651    0.6760 H       1  UNL1        0.0474
@<TRIPOS>BOND
     1     1     2    2
     2     2     3    1
     3     2     4    1
     4     4     5    1
     5     5     6    1
     6     6     7    1
     7     7     8   ar
     8     8     9   ar
     9     9    10   ar
    10    10    11   ar
    11    11    12   ar
    12    12    13    1
    13    13    14    1
    14    13    15    1
    15    13    16    1
    16     6    17    1
    17    17    18    1
    18    18    19    1
    19    19    20    1
    20    20    21   am
    21    21    22    2
    22    21    23   am
    23    23    24    1
    24    24    25   ar
    25    25    26   ar
    26    26    27   ar
    27    27    28    1
    28    27    29   ar
    29    29    30   ar
    30    20    31    1
    31    31     6    1
    32    12     7   ar
    33    30    24   ar
    34     3    32    1
    35     4    33    1
    36     4    34    1
    37     5    35    1
    38     5    36    1
    39     8    37    1
    40     9    38    1
    41    10    39    1
    42    11    40    1
    43    17    41    1
    44    17    42    1
    45    18    43    1
    46    18    44    1
    47    19    45    1
    48    19    46    1
    49    23    47    1
    50    25    48    1
    51    26    49    1
    52    29    50    1
    53    30    51    1
    54    31    52    1
    55    31    53    1
