
     RDKit          3D

 46 48  0  0  0  0  0  0  0  0999 V2000
   -1.0314    0.4609   -0.2786 C   0  0  2  0  0  0  0  0  0  0  0  0
    0.3535    0.2666   -0.2923 O   0  0  0  0  0  0  0  0  0  0  0  0
    1.2585    0.6922   -1.2166 C   0  0  0  0  0  0  0  0  0  0  0  0
    1.0354    1.4180   -2.3650 C   0  0  0  0  0  0  0  0  0  0  0  0
    2.0083    1.8064   -3.2441 C   0  0  0  0  0  0  0  0  0  0  0  0
    3.3174    1.4569   -2.9821 C   0  0  0  0  0  0  0  0  0  0  0  0
    3.6012    0.7282   -1.8437 C   0  0  0  0  0  0  0  0  0  0  0  0
    2.5896    0.3641   -0.9953 C   0  0  0  0  0  0  0  0  0  0  0  0
    2.9502   -0.3557    0.1098 O   0  0  0  0  0  0  0  0  0  0  0  0
    4.2454   -0.7463    0.4431 C   0  0  0  0  0  0  0  0  0  0  0  0
    4.2236   -1.5355    1.7560 C   0  0  0  0  0  0  0  0  0  0  0  0
   -1.3754    1.2707    0.8900 C   0  0  0  0  0  0  0  0  0  0  0  0
   -2.2680    2.3451    0.8004 C   0  0  0  0  0  0  0  0  0  0  0  0
   -2.6239    3.1390    1.8755 C   0  0  0  0  0  0  0  0  0  0  0  0
   -2.0672    2.8617    3.1251 C   0  0  0  0  0  0  0  0  0  0  0  0
   -1.1832    1.8054    3.2375 C   0  0  0  0  0  0  0  0  0  0  0  0
   -0.8467    1.0358    2.1631 C   0  0  0  0  0  0  0  0  0  0  0  0
   -1.7331   -0.8552   -0.3473 C   0  0  1  0  0  0  0  0  0  0  0  0
   -3.2225   -0.7756   -0.2951 C   0  0  0  0  0  0  0  0  0  0  0  0
   -3.6546   -2.0855    0.1969 N   0  0  0  0  0  0  0  0  0  0  0  0
   -2.8282   -3.1534   -0.2678 C   0  0  0  0  0  0  0  0  0  0  0  0
   -1.8799   -2.8558   -1.3456 C   0  0  0  0  0  0  0  0  0  0  0  0
   -1.4270   -1.5770   -1.4976 O   0  0  0  0  0  0  0  0  0  0  0  0
   -1.3155    1.0440   -1.1756 H   0  0  0  0  0  0  0  0  0  0  0  0
    0.0117    1.6893   -2.5665 H   0  0  0  0  0  0  0  0  0  0  0  0
    1.7769    2.3766   -4.1326 H   0  0  0  0  0  0  0  0  0  0  0  0
    4.0717    1.7765   -3.6943 H   0  0  0  0  0  0  0  0  0  0  0  0
    4.6411    0.4572   -1.6465 H   0  0  0  0  0  0  0  0  0  0  0  0
    4.9851    0.0562    0.5196 H   0  0  0  0  0  0  0  0  0  0  0  0
    4.5479   -1.5099   -0.3272 H   0  0  0  0  0  0  0  0  0  0  0  0
    3.7664   -2.5327    1.6051 H   0  0  0  0  0  0  0  0  0  0  0  0
    3.6621   -0.9587    2.5303 H   0  0  0  0  0  0  0  0  0  0  0  0
    5.2604   -1.6703    2.1204 H   0  0  0  0  0  0  0  0  0  0  0  0
   -2.7084    2.5662   -0.1829 H   0  0  0  0  0  0  0  0  0  0  0  0
   -3.3331    3.9517    1.6802 H   0  0  0  0  0  0  0  0  0  0  0  0
   -2.4050    3.5358    3.9044 H   0  0  0  0  0  0  0  0  0  0  0  0
   -0.8028    1.6655    4.2421 H   0  0  0  0  0  0  0  0  0  0  0  0
   -0.1459    0.2113    2.2913 H   0  0  0  0  0  0  0  0  0  0  0  0
   -1.3614   -1.4815    0.4990 H   0  0  0  0  0  0  0  0  0  0  0  0
   -3.6961   -0.7098   -1.3115 H   0  0  0  0  0  0  0  0  0  0  0  0
   -3.6342    0.0061    0.3569 H   0  0  0  0  0  0  0  0  0  0  0  0
   -3.6409   -1.9891    1.2422 H   0  0  0  0  0  0  0  0  0  0  0  0
   -3.5312   -3.9819   -0.5751 H   0  0  0  0  0  0  0  0  0  0  0  0
   -2.2817   -3.5681    0.6098 H   0  0  0  0  0  0  0  0  0  0  0  0
   -2.3446   -3.1397   -2.3352 H   0  0  0  0  0  0  0  0  0  0  0  0
   -0.9649   -3.5058   -1.2804 H   0  0  0  0  0  0  0  0  0  0  0  0
  1  2  1  0
  2  3  1  0
  3  4  2  0
  4  5  1  0
  5  6  2  0
  6  7  1  0
  7  8  2  0
  8  9  1  0
  9 10  1  0
 10 11  1  0
  1 12  1  0
 12 13  2  0
 13 14  1  0
 14 15  2  0
 15 16  1  0
 16 17  2  0
  1 18  1  0
 18 19  1  0
 19 20  1  0
 20 21  1  0
 21 22  1  0
 22 23  1  0
  8  3  1  0
 17 12  1  0
 23 18  1  0
  1 24  1  6
  4 25  1  0
  5 26  1  0
  6 27  1  0
  7 28  1  0
 10 29  1  0
 10 30  1  0
 11 31  1  0
 11 32  1  0
 11 33  1  0
 13 34  1  0
 14 35  1  0
 15 36  1  0
 16 37  1  0
 17 38  1  0
 18 39  1  1
 19 40  1  0
 19 41  1  0
 20 42  1  0
 21 43  1  0
 21 44  1  0
 22 45  1  0
 22 46  1  0
M  END
$$$$
