@<TRIPOS>MOLECULE
*****
 46 48 0 0 0
SMALL
GASTEIGER

@<TRIPOS>ATOM
      1 C          -1.0314    0.4609   -0.2786 C.3     1  UNL1        0.1525
      2 O           0.3535    0.2666   -0.2923 O.3     1  UNL1       -0.4779
      3 C           1.2585    0.6922   -1.2166 C.ar    1  UNL1        0.1629
      4 C           1.0354    1.4180   -2.3650 C.ar    1  UNL1       -0.0163
      5 C           2.0083    1.8064   -3.2441 C.ar    1  UNL1       -0.0581
      6 C           3.3174    1.4569   -2.9821 C.ar    1  UNL1       -0.0581
      7 C           3.6012    0.7282   -1.8437 C.ar    1  UNL1       -0.0163
      8 C           2.5896    0.3641   -0.9953 C.ar    1  UNL1        0.1619
      9 O           2.9502   -0.3557    0.1098 O.3     1  UNL1       -0.4886
     10 C           4.2454   -0.7463    0.4431 C.3     1  UNL1        0.0870
     11 C           4.2236   -1.5355    1.7560 C.3     1  UNL1       -0.0307
     12 C          -1.3754    1.2707    0.8900 C.ar    1  UNL1       -0.0048
     13 C          -2.2680    2.3451    0.8004 C.ar    1  UNL1       -0.0550
     14 C          -2.6239    3.1390    1.8755 C.ar    1  UNL1       -0.0614
     15 C          -2.0672    2.8617    3.1251 C.ar    1  UNL1       -0.0617
     16 C          -1.1832    1.8054    3.2375 C.ar    1  UNL1       -0.0614
     17 C          -0.8467    1.0358    2.1631 C.ar    1  UNL1       -0.0550
     18 C          -1.7331   -0.8552   -0.3473 C.3     1  UNL1        0.1120
     19 C          -3.2225   -0.7756   -0.2951 C.3     1  UNL1        0.0261
     20 N          -3.6546   -2.0855    0.1969 N.3     1  UNL1       -0.3112
     21 C          -2.8282   -3.1534   -0.2678 C.3     1  UNL1        0.0195
     22 C          -1.8799   -2.8558   -1.3456 C.3     1  UNL1        0.0607
     23 O          -1.4270   -1.5770   -1.4976 O.3     1  UNL1       -0.3700
     24 H          -1.3155    1.0440   -1.1756 H       1  UNL1        0.0811
     25 H           0.0117    1.6893   -2.5665 H       1  UNL1        0.0655
     26 H           1.7769    2.3766   -4.1326 H       1  UNL1        0.0619
     27 H           4.0717    1.7765   -3.6943 H       1  UNL1        0.0619
     28 H           4.6411    0.4572   -1.6465 H       1  UNL1        0.0655
     29 H           4.9851    0.0562    0.5196 H       1  UNL1        0.0694
     30 H           4.5479   -1.5099   -0.3272 H       1  UNL1        0.0694
     31 H           3.7664   -2.5327    1.6051 H       1  UNL1        0.0262
     32 H           3.6621   -0.9587    2.5303 H       1  UNL1        0.0262
     33 H           5.2604   -1.6703    2.1204 H       1  UNL1        0.0262
     34 H          -2.7084    2.5662   -0.1829 H       1  UNL1        0.0621
     35 H          -3.3331    3.9517    1.6802 H       1  UNL1        0.0618
     36 H          -2.4050    3.5358    3.9044 H       1  UNL1        0.0618
     37 H          -0.8028    1.6655    4.2421 H       1  UNL1        0.0618
     38 H          -0.1459    0.2113    2.2913 H       1  UNL1        0.0621
     39 H          -1.3614   -1.4815    0.4990 H       1  UNL1        0.0649
     40 H          -3.6961   -0.7098   -1.3115 H       1  UNL1        0.0451
     41 H          -3.6342    0.0061    0.3569 H       1  UNL1        0.0451
     42 H          -3.6409   -1.9891    1.2422 H       1  UNL1        0.1221
     43 H          -3.5312   -3.9819   -0.5751 H       1  UNL1        0.0446
     44 H          -2.2817   -3.5681    0.6098 H       1  UNL1        0.0446
     45 H          -2.3446   -3.1397   -2.3352 H       1  UNL1        0.0573
     46 H          -0.9649   -3.5058   -1.2804 H       1  UNL1        0.0573
@<TRIPOS>BOND
     1     1     2    1
     2     2     3    1
     3     3     4   ar
     4     4     5   ar
     5     5     6   ar
     6     6     7   ar
     7     7     8   ar
     8     8     9    1
     9     9    10    1
    10    10    11    1
    11     1    12    1
    12    12    13   ar
    13    13    14   ar
    14    14    15   ar
    15    15    16   ar
    16    16    17   ar
    17     1    18    1
    18    18    19    1
    19    19    20    1
    20    20    21    1
    21    21    22    1
    22    22    23    1
    23     8     3   ar
    24    17    12   ar
    25    23    18    1
    26     1    24    1
    27     4    25    1
    28     5    26    1
    29     6    27    1
    30     7    28    1
    31    10    29    1
    32    10    30    1
    33    11    31    1
    34    11    32    1
    35    11    33    1
    36    13    34    1
    37    14    35    1
    38    15    36    1
    39    16    37    1
    40    17    38    1
    41    18    39    1
    42    19    40    1
    43    19    41    1
    44    20    42    1
    45    21    43    1
    46    21    44    1
    47    22    45    1
    48    22    46    1
