@<TRIPOS>MOLECULE
*****
 73 77 0 0 0
SMALL
GASTEIGER

@<TRIPOS>ATOM
      1 C           9.8844    2.4995    2.4113 C.3     1  UNL1       -0.0306
      2 C           8.9228    1.5866    3.1118 C.3     1  UNL1        0.0885
      3 O           7.9229    1.0724    2.2294 O.3     1  UNL1       -0.4744
      4 C           8.2423    0.3187    1.1236 C.ar    1  UNL1        0.2555
      5 N           9.4537   -0.0584    0.6803 N.ar    1  UNL1       -0.1317
      6 N           9.3404   -0.7754   -0.4160 N.ar    1  UNL1       -0.2692
      7 C          10.4375   -1.3422   -1.1550 C.3     1  UNL1        0.0304
      8 C           8.0116   -0.8718   -0.7010 C.ar    1  UNL1        0.0503
      9 C           7.2871   -0.1986    0.2416 C.ar    1  UNL1        0.1152
     10 N           5.8840   -0.0311    0.3524 N.pl3   1  UNL1       -0.2782
     11 C           4.9365   -0.5595   -0.5588 C.ar    1  UNL1        0.2203
     12 N           5.3322   -1.2771   -1.6248 N.ar    1  UNL1       -0.2198
     13 C           4.5005   -1.8077   -2.5299 C.ar    1  UNL1        0.0685
     14 C           3.1546   -1.5858   -2.3277 C.ar    1  UNL1        0.1674
     15 F           2.2300   -2.0845   -3.1938 F       1  UNL1       -0.2016
     16 C           2.7229   -0.8466   -1.2326 C.ar    1  UNL1        0.1132
     17 C           1.2788   -0.6519   -1.0827 C.ar    1  UNL1        0.0284
     18 C           0.4338   -0.1384   -2.0749 C.ar    1  UNL1        0.0121
     19 N          -0.8289   -0.0993   -1.6044 N.ar    1  UNL1       -0.3586
     20 C          -0.7887   -0.5795   -0.3344 C.ar    1  UNL1        0.0686
     21 C          -1.7871   -0.7677    0.6222 C.ar    1  UNL1        0.0576
     22 N          -3.1311   -0.4065    0.2519 N.am    1  UNL1       -0.2825
     23 C          -3.6475    0.8733    0.4663 C.2     1  UNL1        0.2342
     24 O          -2.8822    1.7317    1.0069 O.2     1  UNL1       -0.2738
     25 C          -5.0478    1.3061    0.0986 C.3     1  UNL1        0.0850
     26 C          -4.9754    2.4069   -0.9437 C.3     1  UNL1       -0.0409
     27 N          -5.8613    0.2214   -0.2863 N.3     1  UNL1       -0.2866
     28 C          -6.0150   -0.7410    0.7418 C.3     1  UNL1        0.0127
     29 C          -7.3397   -0.5763    1.4351 C.3     1  UNL1        0.0115
     30 N          -8.4397   -0.7604    0.5451 N.3     1  UNL1       -0.3027
     31 C          -9.6699   -0.1609    0.9441 C.3     1  UNL1       -0.0127
     32 C          -8.0963   -0.6111   -0.8414 C.3     1  UNL1        0.0140
     33 C          -7.0191    0.4441   -1.0466 C.3     1  UNL1        0.0211
     34 C          -7.6428    1.7738   -0.6921 C.3     1  UNL1       -0.0483
     35 C          -1.5103   -1.2800    1.8689 C.ar    1  UNL1       -0.0384
     36 C          -0.1979   -1.6285    2.2071 C.ar    1  UNL1       -0.0593
     37 C           0.7911   -1.4355    1.2416 C.ar    1  UNL1       -0.0518
     38 C           0.4888   -0.9226    0.0044 C.ar    1  UNL1        0.0107
     39 N           3.6043   -0.3385   -0.3568 N.ar    1  UNL1       -0.2113
     40 H           9.9532    2.1677    1.3479 H       1  UNL1        0.0262
     41 H          10.9147    2.4547    2.8405 H       1  UNL1        0.0262
     42 H           9.5232    3.5597    2.4733 H       1  UNL1        0.0262
     43 H           8.4862    2.0836    3.9795 H       1  UNL1        0.0694
     44 H           9.4581    0.6711    3.4846 H       1  UNL1        0.0694
     45 H          10.0567   -2.0657   -1.9362 H       1  UNL1        0.0473
     46 H          11.0310   -0.6045   -1.7227 H       1  UNL1        0.0473
     47 H          11.0973   -1.9759   -0.5012 H       1  UNL1        0.0473
     48 H           7.6382   -1.4093   -1.5550 H       1  UNL1        0.0846
     49 H           5.4844    0.5227    1.1626 H       1  UNL1        0.1552
     50 H           4.7897   -2.3849   -3.3894 H       1  UNL1        0.0861
     51 H           0.7477    0.1755   -3.0592 H       1  UNL1        0.0814
     52 H          -1.6859    0.2206   -2.0700 H       1  UNL1        0.1654
     53 H          -3.7116   -1.1373   -0.1948 H       1  UNL1        0.1549
     54 H          -5.4531    1.7648    1.0217 H       1  UNL1        0.0556
     55 H          -3.8796    2.6761   -1.0309 H       1  UNL1        0.0249
     56 H          -5.4563    3.3010   -0.5693 H       1  UNL1        0.0249
     57 H          -5.2493    2.0676   -1.9510 H       1  UNL1        0.0249
     58 H          -5.2421   -0.5896    1.5383 H       1  UNL1        0.0439
     59 H          -5.9295   -1.7561    0.2817 H       1  UNL1        0.0439
     60 H          -7.3688   -1.3518    2.2441 H       1  UNL1        0.0439
     61 H          -7.3636    0.4213    1.9083 H       1  UNL1        0.0439
     62 H         -10.3466    0.0033    0.0824 H       1  UNL1        0.0391
     63 H         -10.2051   -0.9217    1.5860 H       1  UNL1        0.0391
     64 H          -9.5189    0.7172    1.5850 H       1  UNL1        0.0391
     65 H          -7.7699   -1.5914   -1.2327 H       1  UNL1        0.0442
     66 H          -9.0130   -0.3014   -1.3896 H       1  UNL1        0.0442
     67 H          -6.8315    0.4055   -2.1684 H       1  UNL1        0.0473
     68 H          -8.7670    1.6652   -0.5978 H       1  UNL1        0.0245
     69 H          -7.5315    2.5392   -1.4921 H       1  UNL1        0.0245
     70 H          -7.3146    2.1204    0.2868 H       1  UNL1        0.0245
     71 H          -2.3328   -1.4070    2.5819 H       1  UNL1        0.0637
     72 H           0.0139   -2.0267    3.1777 H       1  UNL1        0.0618
     73 H           1.7969   -1.7124    1.5240 H       1  UNL1        0.0624
@<TRIPOS>BOND
     1     1     2    1
     2     2     3    1
     3     3     4    1
     4     4     5   ar
     5     5     6   ar
     6     6     7    1
     7     6     8   ar
     8     8     9   ar
     9     9    10    1
    10    10    11    1
    11    11    12   ar
    12    12    13   ar
    13    13    14   ar
    14    14    15    1
    15    14    16   ar
    16    16    17    1
    17    17    18   ar
    18    18    19   ar
    19    19    20   ar
    20    20    21   ar
    21    21    22    1
    22    22    23   am
    23    23    24    2
    24    23    25    1
    25    25    26    1
    26    25    27    1
    27    27    28    1
    28    28    29    1
    29    29    30    1
    30    30    31    1
    31    30    32    1
    32    32    33    1
    33    33    34    1
    34    21    35   ar
    35    35    36   ar
    36    36    37   ar
    37    37    38   ar
    38    16    39   ar
    39     9     4   ar
    40    39    11   ar
    41    38    17   ar
    42    38    20   ar
    43    33    27    1
    44     1    40    1
    45     1    41    1
    46     1    42    1
    47     2    43    1
    48     2    44    1
    49     7    45    1
    50     7    46    1
    51     7    47    1
    52     8    48    1
    53    10    49    1
    54    13    50    1
    55    18    51    1
    56    19    52    1
    57    22    53    1
    58    25    54    1
    59    26    55    1
    60    26    56    1
    61    26    57    1
    62    28    58    1
    63    28    59    1
    64    29    60    1
    65    29    61    1
    66    31    62    1
    67    31    63    1
    68    31    64    1
    69    32    65    1
    70    32    66    1
    71    33    67    1
    72    34    68    1
    73    34    69    1
    74    34    70    1
    75    35    71    1
    76    36    72    1
    77    37    73    1
