
     RDKit          3D

 73 77  0  0  0  0  0  0  0  0999 V2000
    9.8844    2.4995    2.4113 C   0  0  0  0  0  0  0  0  0  0  0  0
    8.9228    1.5866    3.1118 C   0  0  0  0  0  0  0  0  0  0  0  0
    7.9229    1.0724    2.2294 O   0  0  0  0  0  0  0  0  0  0  0  0
    8.2423    0.3187    1.1236 C   0  0  0  0  0  0  0  0  0  0  0  0
    9.4537   -0.0584    0.6803 N   0  0  0  0  0  0  0  0  0  0  0  0
    9.3404   -0.7754   -0.4160 N   0  0  0  0  0  0  0  0  0  0  0  0
   10.4375   -1.3422   -1.1550 C   0  0  0  0  0  0  0  0  0  0  0  0
    8.0116   -0.8718   -0.7010 C   0  0  0  0  0  0  0  0  0  0  0  0
    7.2871   -0.1986    0.2416 C   0  0  0  0  0  0  0  0  0  0  0  0
    5.8840   -0.0311    0.3524 N   0  0  0  0  0  0  0  0  0  0  0  0
    4.9365   -0.5595   -0.5588 C   0  0  0  0  0  0  0  0  0  0  0  0
    5.3322   -1.2771   -1.6248 N   0  0  0  0  0  0  0  0  0  0  0  0
    4.5005   -1.8077   -2.5299 C   0  0  0  0  0  0  0  0  0  0  0  0
    3.1546   -1.5858   -2.3277 C   0  0  0  0  0  0  0  0  0  0  0  0
    2.2300   -2.0845   -3.1938 F   0  0  0  0  0  0  0  0  0  0  0  0
    2.7229   -0.8466   -1.2326 C   0  0  0  0  0  0  0  0  0  0  0  0
    1.2788   -0.6519   -1.0827 C   0  0  0  0  0  0  0  0  0  0  0  0
    0.4338   -0.1384   -2.0749 C   0  0  0  0  0  0  0  0  0  0  0  0
   -0.8289   -0.0993   -1.6044 N   0  0  0  0  0  0  0  0  0  0  0  0
   -0.7887   -0.5795   -0.3344 C   0  0  0  0  0  0  0  0  0  0  0  0
   -1.7871   -0.7677    0.6222 C   0  0  0  0  0  0  0  0  0  0  0  0
   -3.1311   -0.4065    0.2519 N   0  0  0  0  0  0  0  0  0  0  0  0
   -3.6475    0.8733    0.4663 C   0  0  0  0  0  0  0  0  0  0  0  0
   -2.8822    1.7317    1.0069 O   0  0  0  0  0  0  0  0  0  0  0  0
   -5.0478    1.3061    0.0986 C   0  0  1  0  0  0  0  0  0  0  0  0
   -4.9754    2.4069   -0.9437 C   0  0  0  0  0  0  0  0  0  0  0  0
   -5.8613    0.2214   -0.2863 N   0  0  0  0  0  0  0  0  0  0  0  0
   -6.0150   -0.7410    0.7418 C   0  0  0  0  0  0  0  0  0  0  0  0
   -7.3397   -0.5763    1.4351 C   0  0  0  0  0  0  0  0  0  0  0  0
   -8.4397   -0.7604    0.5451 N   0  0  0  0  0  0  0  0  0  0  0  0
   -9.6699   -0.1609    0.9441 C   0  0  0  0  0  0  0  0  0  0  0  0
   -8.0963   -0.6111   -0.8414 C   0  0  0  0  0  0  0  0  0  0  0  0
   -7.0191    0.4441   -1.0466 C   0  0  1  0  0  0  0  0  0  0  0  0
   -7.6428    1.7738   -0.6921 C   0  0  0  0  0  0  0  0  0  0  0  0
   -1.5103   -1.2800    1.8689 C   0  0  0  0  0  0  0  0  0  0  0  0
   -0.1979   -1.6285    2.2071 C   0  0  0  0  0  0  0  0  0  0  0  0
    0.7911   -1.4355    1.2416 C   0  0  0  0  0  0  0  0  0  0  0  0
    0.4888   -0.9226    0.0044 C   0  0  0  0  0  0  0  0  0  0  0  0
    3.6043   -0.3385   -0.3568 N   0  0  0  0  0  0  0  0  0  0  0  0
    9.9532    2.1677    1.3479 H   0  0  0  0  0  0  0  0  0  0  0  0
   10.9147    2.4547    2.8405 H   0  0  0  0  0  0  0  0  0  0  0  0
    9.5232    3.5597    2.4733 H   0  0  0  0  0  0  0  0  0  0  0  0
    8.4862    2.0836    3.9795 H   0  0  0  0  0  0  0  0  0  0  0  0
    9.4581    0.6711    3.4846 H   0  0  0  0  0  0  0  0  0  0  0  0
   10.0567   -2.0657   -1.9362 H   0  0  0  0  0  0  0  0  0  0  0  0
   11.0310   -0.6045   -1.7227 H   0  0  0  0  0  0  0  0  0  0  0  0
   11.0973   -1.9759   -0.5012 H   0  0  0  0  0  0  0  0  0  0  0  0
    7.6382   -1.4093   -1.5550 H   0  0  0  0  0  0  0  0  0  0  0  0
    5.4844    0.5227    1.1626 H   0  0  0  0  0  0  0  0  0  0  0  0
    4.7897   -2.3849   -3.3894 H   0  0  0  0  0  0  0  0  0  0  0  0
    0.7477    0.1755   -3.0592 H   0  0  0  0  0  0  0  0  0  0  0  0
   -1.6859    0.2206   -2.0700 H   0  0  0  0  0  0  0  0  0  0  0  0
   -3.7116   -1.1373   -0.1948 H   0  0  0  0  0  0  0  0  0  0  0  0
   -5.4531    1.7648    1.0217 H   0  0  0  0  0  0  0  0  0  0  0  0
   -3.8796    2.6761   -1.0309 H   0  0  0  0  0  0  0  0  0  0  0  0
   -5.4563    3.3010   -0.5693 H   0  0  0  0  0  0  0  0  0  0  0  0
   -5.2493    2.0676   -1.9510 H   0  0  0  0  0  0  0  0  0  0  0  0
   -5.2421   -0.5896    1.5383 H   0  0  0  0  0  0  0  0  0  0  0  0
   -5.9295   -1.7561    0.2817 H   0  0  0  0  0  0  0  0  0  0  0  0
   -7.3688   -1.3518    2.2441 H   0  0  0  0  0  0  0  0  0  0  0  0
   -7.3636    0.4213    1.9083 H   0  0  0  0  0  0  0  0  0  0  0  0
  -10.3466    0.0033    0.0824 H   0  0  0  0  0  0  0  0  0  0  0  0
  -10.2051   -0.9217    1.5860 H   0  0  0  0  0  0  0  0  0  0  0  0
   -9.5189    0.7172    1.5850 H   0  0  0  0  0  0  0  0  0  0  0  0
   -7.7699   -1.5914   -1.2327 H   0  0  0  0  0  0  0  0  0  0  0  0
   -9.0130   -0.3014   -1.3896 H   0  0  0  0  0  0  0  0  0  0  0  0
   -6.8315    0.4055   -2.1684 H   0  0  0  0  0  0  0  0  0  0  0  0
   -8.7670    1.6652   -0.5978 H   0  0  0  0  0  0  0  0  0  0  0  0
   -7.5315    2.5392   -1.4921 H   0  0  0  0  0  0  0  0  0  0  0  0
   -7.3146    2.1204    0.2868 H   0  0  0  0  0  0  0  0  0  0  0  0
   -2.3328   -1.4070    2.5819 H   0  0  0  0  0  0  0  0  0  0  0  0
    0.0139   -2.0267    3.1777 H   0  0  0  0  0  0  0  0  0  0  0  0
    1.7969   -1.7124    1.5240 H   0  0  0  0  0  0  0  0  0  0  0  0
  1  2  1  0
  2  3  1  0
  3  4  1  0
  4  5  2  0
  5  6  1  0
  6  7  1  0
  6  8  1  0
  8  9  2  0
  9 10  1  0
 10 11  1  0
 11 12  2  0
 12 13  1  0
 13 14  2  0
 14 15  1  0
 14 16  1  0
 16 17  1  0
 17 18  2  0
 18 19  1  0
 19 20  1  0
 20 21  2  0
 21 22  1  0
 22 23  1  0
 23 24  2  0
 23 25  1  0
 25 26  1  0
 25 27  1  0
 27 28  1  0
 28 29  1  0
 29 30  1  0
 30 31  1  0
 30 32  1  0
 32 33  1  0
 33 34  1  0
 21 35  1  0
 35 36  2  0
 36 37  1  0
 37 38  2  0
 16 39  2  0
  9  4  1  0
 39 11  1  0
 38 17  1  0
 38 20  1  0
 33 27  1  0
  1 40  1  0
  1 41  1  0
  1 42  1  0
  2 43  1  0
  2 44  1  0
  7 45  1  0
  7 46  1  0
  7 47  1  0
  8 48  1  0
 10 49  1  0
 13 50  1  0
 18 51  1  0
 19 52  1  0
 22 53  1  0
 25 54  1  1
 26 55  1  0
 26 56  1  0
 26 57  1  0
 28 58  1  0
 28 59  1  0
 29 60  1  0
 29 61  1  0
 31 62  1  0
 31 63  1  0
 31 64  1  0
 32 65  1  0
 32 66  1  0
 33 67  1  6
 34 68  1  0
 34 69  1  0
 34 70  1  0
 35 71  1  0
 36 72  1  0
 37 73  1  0
M  END
$$$$
