@<TRIPOS>MOLECULE
*****
 48 52 0 0 0
SMALL
GASTEIGER

@<TRIPOS>ATOM
      1 C          -7.8325   -0.0781    0.1326 C.3     1  UNL1       -0.0218
      2 C          -6.7828    0.9516    0.4808 C.ar    1  UNL1        0.0462
      3 C          -7.0799    2.0499    1.2231 C.ar    1  UNL1       -0.0012
      4 S          -5.4664    2.8752    1.2997 S.2     1  UNL1       -0.0723
      5 C          -4.6415    1.6010    0.3131 C.ar    1  UNL1        0.1456
      6 C          -3.1735    1.7095   -0.0020 C.ar    1  UNL1        0.1895
      7 N          -2.3800    2.6314    0.4844 N.ar    1  UNL1       -0.1269
      8 N          -1.1493    2.4570    0.0259 N.ar    1  UNL1       -0.1320
      9 C          -1.1609    1.4052   -0.7659 C.ar    1  UNL1        0.1542
     10 N          -2.4340    0.9307   -0.7875 N.ar    1  UNL1       -0.3062
     11 C          -2.7792   -0.2196   -1.5745 C.3     1  UNL1        0.0423
     12 C          -1.7225   -1.2933   -1.6121 C.3     1  UNL1        0.0338
     13 N          -0.4031   -0.7440   -1.2297 N.am    1  UNL1       -0.2860
     14 C           0.4749   -1.5974   -0.5444 C.2     1  UNL1        0.2472
     15 O           0.0894   -2.8026   -0.2949 O.2     1  UNL1       -0.2700
     16 C           1.8007   -1.3113   -0.0575 C.ar    1  UNL1        0.0370
     17 C           2.8906   -1.9985   -0.5523 C.ar    1  UNL1       -0.0490
     18 C           4.1783   -1.7585   -0.0780 C.ar    1  UNL1       -0.0528
     19 C           4.3385   -0.8231    0.8927 C.ar    1  UNL1       -0.0113
     20 C           5.6988   -0.5452    1.4504 C.ar    1  UNL1        0.0193
     21 C           6.8722   -1.1289    1.1835 C.ar    1  UNL1       -0.0469
     22 C           7.9700   -0.7209    1.8218 C.ar    1  UNL1       -0.0541
     23 C           7.8474    0.2903    2.7335 C.ar    1  UNL1       -0.0237
     24 S           6.0540    0.6326    2.6301 S.2     1  UNL1       -0.0967
     25 C           3.2533   -0.1314    1.3914 C.ar    1  UNL1       -0.0528
     26 C           1.9758   -0.3673    0.9231 C.ar    1  UNL1       -0.0490
     27 C          -0.2090    0.6051   -1.6109 C.3     1  UNL1        0.0834
     28 C           1.1617    1.1460   -1.6562 C.3     1  UNL1       -0.0393
     29 N          -5.5416    0.8367    0.0864 N.ar    1  UNL1       -0.2411
     30 H          -7.7808   -0.8772    0.8803 H       1  UNL1        0.0293
     31 H          -8.8225    0.4098    0.1556 H       1  UNL1        0.0293
     32 H          -7.6747   -0.4514   -0.8995 H       1  UNL1        0.0293
     33 H          -8.0377    2.4364    1.7074 H       1  UNL1        0.0712
     34 H          -3.7154   -0.6592   -1.1809 H       1  UNL1        0.0508
     35 H          -3.0170    0.1349   -2.6182 H       1  UNL1        0.0508
     36 H          -1.6242   -1.6367   -2.6605 H       1  UNL1        0.0482
     37 H          -1.9736   -2.1609   -0.9929 H       1  UNL1        0.0482
     38 H           2.7781   -2.7443   -1.3248 H       1  UNL1        0.0625
     39 H           5.0422   -2.3014   -0.4694 H       1  UNL1        0.0624
     40 H           6.9082   -1.9558    0.4230 H       1  UNL1        0.0629
     41 H           8.9837   -1.1616    1.6517 H       1  UNL1        0.0623
     42 H           8.5526    0.8335    3.4059 H       1  UNL1        0.0693
     43 H           3.4634    0.6036    2.1683 H       1  UNL1        0.0624
     44 H           1.1683    0.2042    1.3523 H       1  UNL1        0.0625
     45 H          -0.6609    0.7063   -2.6530 H       1  UNL1        0.0579
     46 H           1.4379    1.8310   -0.8215 H       1  UNL1        0.0252
     47 H           1.2356    1.8317   -2.5632 H       1  UNL1        0.0252
     48 H           1.8871    0.3551   -1.8672 H       1  UNL1        0.0252
@<TRIPOS>BOND
     1     1     2    1
     2     2     3   ar
     3     3     4   ar
     4     4     5   ar
     5     5     6    1
     6     6     7   ar
     7     7     8   ar
     8     8     9   ar
     9     9    10   ar
    10    10    11    1
    11    11    12    1
    12    12    13    1
    13    13    14   am
    14    14    15    2
    15    14    16    1
    16    16    17   ar
    17    17    18   ar
    18    18    19   ar
    19    19    20    1
    20    20    21   ar
    21    21    22   ar
    22    22    23   ar
    23    23    24   ar
    24    19    25   ar
    25    25    26   ar
    26    13    27    1
    27    27    28    1
    28     5    29   ar
    29    29     2   ar
    30    10     6   ar
    31    26    16   ar
    32    27     9    1
    33    24    20   ar
    34     1    30    1
    35     1    31    1
    36     1    32    1
    37     3    33    1
    38    11    34    1
    39    11    35    1
    40    12    36    1
    41    12    37    1
    42    17    38    1
    43    18    39    1
    44    21    40    1
    45    22    41    1
    46    23    42    1
    47    25    43    1
    48    26    44    1
    49    27    45    1
    50    28    46    1
    51    28    47    1
    52    28    48    1
