
     RDKit          3D

 48 52  0  0  0  0  0  0  0  0999 V2000
   -7.8325   -0.0781    0.1326 C   0  0  0  0  0  0  0  0  0  0  0  0
   -6.7828    0.9516    0.4808 C   0  0  0  0  0  0  0  0  0  0  0  0
   -7.0799    2.0499    1.2231 C   0  0  0  0  0  0  0  0  0  0  0  0
   -5.4664    2.8752    1.2997 S   0  0  0  0  0  0  0  0  0  0  0  0
   -4.6415    1.6010    0.3131 C   0  0  0  0  0  0  0  0  0  0  0  0
   -3.1735    1.7095   -0.0020 C   0  0  0  0  0  0  0  0  0  0  0  0
   -2.3800    2.6314    0.4844 N   0  0  0  0  0  0  0  0  0  0  0  0
   -1.1493    2.4570    0.0259 N   0  0  0  0  0  0  0  0  0  0  0  0
   -1.1609    1.4052   -0.7659 C   0  0  0  0  0  0  0  0  0  0  0  0
   -2.4340    0.9307   -0.7875 N   0  0  0  0  0  0  0  0  0  0  0  0
   -2.7792   -0.2196   -1.5745 C   0  0  0  0  0  0  0  0  0  0  0  0
   -1.7225   -1.2933   -1.6121 C   0  0  0  0  0  0  0  0  0  0  0  0
   -0.4031   -0.7440   -1.2297 N   0  0  0  0  0  0  0  0  0  0  0  0
    0.4749   -1.5974   -0.5444 C   0  0  0  0  0  0  0  0  0  0  0  0
    0.0894   -2.8026   -0.2949 O   0  0  0  0  0  0  0  0  0  0  0  0
    1.8007   -1.3113   -0.0575 C   0  0  0  0  0  0  0  0  0  0  0  0
    2.8906   -1.9985   -0.5523 C   0  0  0  0  0  0  0  0  0  0  0  0
    4.1783   -1.7585   -0.0780 C   0  0  0  0  0  0  0  0  0  0  0  0
    4.3385   -0.8231    0.8927 C   0  0  0  0  0  0  0  0  0  0  0  0
    5.6988   -0.5452    1.4504 C   0  0  0  0  0  0  0  0  0  0  0  0
    6.8722   -1.1289    1.1835 C   0  0  0  0  0  0  0  0  0  0  0  0
    7.9700   -0.7209    1.8218 C   0  0  0  0  0  0  0  0  0  0  0  0
    7.8474    0.2903    2.7335 C   0  0  0  0  0  0  0  0  0  0  0  0
    6.0540    0.6326    2.6301 S   0  0  0  0  0  0  0  0  0  0  0  0
    3.2533   -0.1314    1.3914 C   0  0  0  0  0  0  0  0  0  0  0  0
    1.9758   -0.3673    0.9231 C   0  0  0  0  0  0  0  0  0  0  0  0
   -0.2090    0.6051   -1.6109 C   0  0  2  0  0  0  0  0  0  0  0  0
    1.1617    1.1460   -1.6562 C   0  0  0  0  0  0  0  0  0  0  0  0
   -5.5416    0.8367    0.0864 N   0  0  0  0  0  0  0  0  0  0  0  0
   -7.7808   -0.8772    0.8803 H   0  0  0  0  0  0  0  0  0  0  0  0
   -8.8225    0.4098    0.1556 H   0  0  0  0  0  0  0  0  0  0  0  0
   -7.6747   -0.4514   -0.8995 H   0  0  0  0  0  0  0  0  0  0  0  0
   -8.0377    2.4364    1.7074 H   0  0  0  0  0  0  0  0  0  0  0  0
   -3.7154   -0.6592   -1.1809 H   0  0  0  0  0  0  0  0  0  0  0  0
   -3.0170    0.1349   -2.6182 H   0  0  0  0  0  0  0  0  0  0  0  0
   -1.6242   -1.6367   -2.6605 H   0  0  0  0  0  0  0  0  0  0  0  0
   -1.9736   -2.1609   -0.9929 H   0  0  0  0  0  0  0  0  0  0  0  0
    2.7781   -2.7443   -1.3248 H   0  0  0  0  0  0  0  0  0  0  0  0
    5.0422   -2.3014   -0.4694 H   0  0  0  0  0  0  0  0  0  0  0  0
    6.9082   -1.9558    0.4230 H   0  0  0  0  0  0  0  0  0  0  0  0
    8.9837   -1.1616    1.6517 H   0  0  0  0  0  0  0  0  0  0  0  0
    8.5526    0.8335    3.4059 H   0  0  0  0  0  0  0  0  0  0  0  0
    3.4634    0.6036    2.1683 H   0  0  0  0  0  0  0  0  0  0  0  0
    1.1683    0.2042    1.3523 H   0  0  0  0  0  0  0  0  0  0  0  0
   -0.6609    0.7063   -2.6530 H   0  0  0  0  0  0  0  0  0  0  0  0
    1.4379    1.8310   -0.8215 H   0  0  0  0  0  0  0  0  0  0  0  0
    1.2356    1.8317   -2.5632 H   0  0  0  0  0  0  0  0  0  0  0  0
    1.8871    0.3551   -1.8672 H   0  0  0  0  0  0  0  0  0  0  0  0
  1  2  1  0
  2  3  2  0
  3  4  1  0
  4  5  1  0
  5  6  1  0
  6  7  2  0
  7  8  1  0
  8  9  2  0
  9 10  1  0
 10 11  1  0
 11 12  1  0
 12 13  1  0
 13 14  1  0
 14 15  2  0
 14 16  1  0
 16 17  2  0
 17 18  1  0
 18 19  2  0
 19 20  1  0
 20 21  2  0
 21 22  1  0
 22 23  2  0
 23 24  1  0
 19 25  1  0
 25 26  2  0
 13 27  1  0
 27 28  1  0
  5 29  2  0
 29  2  1  0
 10  6  1  0
 26 16  1  0
 27  9  1  0
 24 20  1  0
  1 30  1  0
  1 31  1  0
  1 32  1  0
  3 33  1  0
 11 34  1  0
 11 35  1  0
 12 36  1  0
 12 37  1  0
 17 38  1  0
 18 39  1  0
 21 40  1  0
 22 41  1  0
 23 42  1  0
 25 43  1  0
 26 44  1  0
 27 45  1  6
 28 46  1  0
 28 47  1  0
 28 48  1  0
M  END
$$$$
