
     RDKit          3D

 50 53  0  0  0  0  0  0  0  0999 V2000
    4.4363    2.9712   -1.0103 C   0  0  0  0  0  0  0  0  0  0  0  0
    4.6728    1.5137   -0.8281 C   0  0  0  0  0  0  0  0  0  0  0  0
    3.7122    0.7503   -0.1994 C   0  0  0  0  0  0  0  0  0  0  0  0
    3.8845   -0.6089   -0.0062 C   0  0  0  0  0  0  0  0  0  0  0  0
    2.9163   -1.3588    0.6238 C   0  0  0  0  0  0  0  0  0  0  0  0
    1.7253   -0.7413    1.0831 N   0  0  0  0  0  0  0  0  0  0  0  0
    0.5570   -0.6330    0.2503 C   0  0  0  0  0  0  0  0  0  0  0  0
    0.5862   -1.0966   -0.9171 O   0  0  0  0  0  0  0  0  0  0  0  0
   -0.6306   -0.0207    0.6983 N   0  0  0  0  0  0  0  0  0  0  0  0
   -1.7605    0.0509   -0.1914 C   0  0  2  0  0  0  0  0  0  0  0  0
   -2.0800    1.5184   -0.3687 C   0  0  0  0  0  0  0  0  0  0  0  0
   -3.5337    1.8192   -0.4636 C   0  0  0  0  0  0  0  0  0  0  0  0
   -4.1549    1.2875   -1.7592 C   0  0  0  0  0  0  0  0  0  0  0  0
   -3.5383    1.8586   -2.8493 F   0  0  0  0  0  0  0  0  0  0  0  0
   -3.6843    3.3386   -0.4381 C   0  0  0  0  0  0  0  0  0  0  0  0
   -2.9663    3.7934   -1.5515 F   0  0  0  0  0  0  0  0  0  0  0  0
   -4.2182    1.2459    0.6342 O   0  0  0  0  0  0  0  0  0  0  0  0
   -4.0778   -0.1257    0.8190 C   0  0  0  0  0  0  0  0  0  0  0  0
   -5.0812   -0.8968    1.3802 C   0  0  0  0  0  0  0  0  0  0  0  0
   -4.9265   -2.2539    1.5565 C   0  0  0  0  0  0  0  0  0  0  0  0
   -3.7397   -2.8396    1.1595 C   0  0  0  0  0  0  0  0  0  0  0  0
   -3.5098   -4.1825    1.3016 F   0  0  0  0  0  0  0  0  0  0  0  0
   -2.7340   -2.0524    0.5946 C   0  0  0  0  0  0  0  0  0  0  0  0
   -2.8908   -0.6955    0.4191 C   0  0  0  0  0  0  0  0  0  0  0  0
    3.1540   -2.6980    0.7810 C   0  0  0  0  0  0  0  0  0  0  0  0
    4.3097   -3.3134    0.3384 C   0  0  0  0  0  0  0  0  0  0  0  0
    5.2745   -2.5602   -0.2906 C   0  0  0  0  0  0  0  0  0  0  0  0
    5.0682   -1.1914   -0.4693 C   0  0  0  0  0  0  0  0  0  0  0  0
    6.0180   -0.4111   -1.0962 C   0  0  0  0  0  0  0  0  0  0  0  0
    5.7835    0.9020   -1.2494 N   0  0  0  0  0  0  0  0  0  0  0  0
    3.3894    3.1878   -1.2644 H   0  0  0  0  0  0  0  0  0  0  0  0
    5.1048    3.3062   -1.8354 H   0  0  0  0  0  0  0  0  0  0  0  0
    4.7635    3.5454   -0.1110 H   0  0  0  0  0  0  0  0  0  0  0  0
    2.7899    1.1785    0.1666 H   0  0  0  0  0  0  0  0  0  0  0  0
    1.6115   -0.3314    2.0330 H   0  0  0  0  0  0  0  0  0  0  0  0
   -0.7074    0.3771    1.6497 H   0  0  0  0  0  0  0  0  0  0  0  0
   -1.5150   -0.4155   -1.1488 H   0  0  0  0  0  0  0  0  0  0  0  0
   -1.6564    2.1404    0.4512 H   0  0  0  0  0  0  0  0  0  0  0  0
   -1.5447    1.8399   -1.2987 H   0  0  0  0  0  0  0  0  0  0  0  0
   -5.2180    1.6200   -1.7874 H   0  0  0  0  0  0  0  0  0  0  0  0
   -4.1580    0.1971   -1.7758 H   0  0  0  0  0  0  0  0  0  0  0  0
   -3.1512    3.7392    0.4482 H   0  0  0  0  0  0  0  0  0  0  0  0
   -4.7457    3.6488   -0.4903 H   0  0  0  0  0  0  0  0  0  0  0  0
   -6.0134   -0.4541    1.6950 H   0  0  0  0  0  0  0  0  0  0  0  0
   -5.6761   -2.8972    1.9878 H   0  0  0  0  0  0  0  0  0  0  0  0
   -1.8257   -2.5520    0.3001 H   0  0  0  0  0  0  0  0  0  0  0  0
    2.3735   -3.2748    1.2831 H   0  0  0  0  0  0  0  0  0  0  0  0
    4.4801   -4.3679    0.4703 H   0  0  0  0  0  0  0  0  0  0  0  0
    6.1976   -2.9847   -0.6579 H   0  0  0  0  0  0  0  0  0  0  0  0
    6.9294   -0.8724   -1.4504 H   0  0  0  0  0  0  0  0  0  0  0  0
  1  2  1  0
  2  3  2  0
  3  4  1  0
  4  5  2  0
  5  6  1  0
  6  7  1  0
  7  8  2  0
  7  9  1  0
  9 10  1  0
 10 11  1  0
 11 12  1  0
 12 13  1  0
 13 14  1  0
 12 15  1  0
 15 16  1  0
 12 17  1  0
 17 18  1  0
 18 19  2  0
 19 20  1  0
 20 21  2  0
 21 22  1  0
 21 23  1  0
 23 24  2  0
  5 25  1  0
 25 26  2  0
 26 27  1  0
 27 28  2  0
 28 29  1  0
 29 30  2  0
 30  2  1  0
 28  4  1  0
 24 10  1  0
 24 18  1  0
  1 31  1  0
  1 32  1  0
  1 33  1  0
  3 34  1  0
  6 35  1  0
  9 36  1  0
 10 37  1  6
 11 38  1  0
 11 39  1  0
 13 40  1  0
 13 41  1  0
 15 42  1  0
 15 43  1  0
 19 44  1  0
 20 45  1  0
 23 46  1  0
 25 47  1  0
 26 48  1  0
 27 49  1  0
 29 50  1  0
M  END
$$$$
