@<TRIPOS>MOLECULE
*****
 50 53 0 0 0
SMALL
GASTEIGER

@<TRIPOS>ATOM
      1 C           4.4363    2.9712   -1.0103 C.3     1  UNL1       -0.0223
      2 C           4.6728    1.5137   -0.8281 C.ar    1  UNL1        0.0389
      3 C           3.7122    0.7503   -0.1994 C.ar    1  UNL1       -0.0312
      4 C           3.8845   -0.6089   -0.0062 C.ar    1  UNL1        0.0065
      5 C           2.9163   -1.3588    0.6238 C.ar    1  UNL1        0.0426
      6 N           1.7253   -0.7413    1.0831 N.am    1  UNL1       -0.2689
      7 C           0.5570   -0.6330    0.2503 C.2     1  UNL1        0.3044
      8 O           0.5862   -1.0966   -0.9171 O.2     1  UNL1       -0.2525
      9 N          -0.6306   -0.0207    0.6983 N.am    1  UNL1       -0.2921
     10 C          -1.7605    0.0509   -0.1914 C.3     1  UNL1        0.0571
     11 C          -2.0800    1.5184   -0.3687 C.3     1  UNL1        0.0149
     12 C          -3.5337    1.8192   -0.4636 C.3     1  UNL1        0.1683
     13 C          -4.1549    1.2875   -1.7592 C.3     1  UNL1        0.1322
     14 F          -3.5383    1.8586   -2.8493 F       1  UNL1       -0.2448
     15 C          -3.6843    3.3386   -0.4381 C.3     1  UNL1        0.1322
     16 F          -2.9663    3.7934   -1.5515 F       1  UNL1       -0.2448
     17 O          -4.2182    1.2459    0.6342 O.3     1  UNL1       -0.4801
     18 C          -4.0778   -0.1257    0.8190 C.ar    1  UNL1        0.1267
     19 C          -5.0812   -0.8968    1.3802 C.ar    1  UNL1       -0.0169
     20 C          -4.9265   -2.2539    1.5565 C.ar    1  UNL1       -0.0230
     21 C          -3.7397   -2.8396    1.1595 C.ar    1  UNL1        0.1239
     22 F          -3.5098   -4.1825    1.3016 F       1  UNL1       -0.2055
     23 C          -2.7340   -2.0524    0.5946 C.ar    1  UNL1       -0.0180
     24 C          -2.8908   -0.6955    0.4191 C.ar    1  UNL1        0.0173
     25 C           3.1540   -2.6980    0.7810 C.ar    1  UNL1       -0.0398
     26 C           4.3097   -3.3134    0.3384 C.ar    1  UNL1       -0.0594
     27 C           5.2745   -2.5602   -0.2906 C.ar    1  UNL1       -0.0525
     28 C           5.0682   -1.1914   -0.4693 C.ar    1  UNL1        0.0020
     29 C           6.0180   -0.4111   -1.0962 C.ar    1  UNL1        0.0356
     30 N           5.7835    0.9020   -1.2494 N.ar    1  UNL1       -0.2595
     31 H           3.3894    3.1878   -1.2644 H       1  UNL1        0.0292
     32 H           5.1048    3.3062   -1.8354 H       1  UNL1        0.0292
     33 H           4.7635    3.5454   -0.1110 H       1  UNL1        0.0292
     34 H           2.7899    1.1785    0.1666 H       1  UNL1        0.0642
     35 H           1.6115   -0.3314    2.0330 H       1  UNL1        0.1564
     36 H          -0.7074    0.3771    1.6497 H       1  UNL1        0.1508
     37 H          -1.5150   -0.4155   -1.1488 H       1  UNL1        0.0551
     38 H          -1.6564    2.1404    0.4512 H       1  UNL1        0.0327
     39 H          -1.5447    1.8399   -1.2987 H       1  UNL1        0.0327
     40 H          -5.2180    1.6200   -1.7874 H       1  UNL1        0.0656
     41 H          -4.1580    0.1971   -1.7758 H       1  UNL1        0.0656
     42 H          -3.1512    3.7392    0.4482 H       1  UNL1        0.0656
     43 H          -4.7457    3.6488   -0.4903 H       1  UNL1        0.0656
     44 H          -6.0134   -0.4541    1.6950 H       1  UNL1        0.0655
     45 H          -5.6761   -2.8972    1.9878 H       1  UNL1        0.0647
     46 H          -1.8257   -2.5520    0.3001 H       1  UNL1        0.0651
     47 H           2.3735   -3.2748    1.2831 H       1  UNL1        0.0636
     48 H           4.4801   -4.3679    0.4703 H       1  UNL1        0.0618
     49 H           6.1976   -2.9847   -0.6579 H       1  UNL1        0.0624
     50 H           6.9294   -0.8724   -1.4504 H       1  UNL1        0.0836
@<TRIPOS>BOND
     1     1     2    1
     2     2     3   ar
     3     3     4   ar
     4     4     5   ar
     5     5     6    1
     6     6     7   am
     7     7     8    2
     8     7     9   am
     9     9    10    1
    10    10    11    1
    11    11    12    1
    12    12    13    1
    13    13    14    1
    14    12    15    1
    15    15    16    1
    16    12    17    1
    17    17    18    1
    18    18    19   ar
    19    19    20   ar
    20    20    21   ar
    21    21    22    1
    22    21    23   ar
    23    23    24   ar
    24     5    25   ar
    25    25    26   ar
    26    26    27   ar
    27    27    28   ar
    28    28    29   ar
    29    29    30   ar
    30    30     2   ar
    31    28     4   ar
    32    24    10    1
    33    24    18   ar
    34     1    31    1
    35     1    32    1
    36     1    33    1
    37     3    34    1
    38     6    35    1
    39     9    36    1
    40    10    37    1
    41    11    38    1
    42    11    39    1
    43    13    40    1
    44    13    41    1
    45    15    42    1
    46    15    43    1
    47    19    44    1
    48    20    45    1
    49    23    46    1
    50    25    47    1
    51    26    48    1
    52    27    49    1
    53    29    50    1
