
     RDKit          3D

 47 50  0  0  0  0  0  0  0  0999 V2000
    3.3889   -1.6993   -1.4285 C   0  0  0  0  0  0  0  0  0  0  0  0
    2.7936   -0.4992   -0.6481 C   0  0  1  0  0  0  0  0  0  0  0  0
    1.3383   -0.7599   -0.6149 C   0  0  0  0  0  0  0  0  0  0  0  0
    0.5511   -0.7424    0.5130 C   0  0  0  0  0  0  0  0  0  0  0  0
   -0.8250   -0.9787    0.4752 C   0  0  0  0  0  0  0  0  0  0  0  0
   -1.6309   -0.9341    1.6377 N   0  0  0  0  0  0  0  0  0  0  0  0
   -3.0460   -1.0769    1.5057 C   0  0  0  0  0  0  0  0  0  0  0  0
   -3.7491   -2.1350    1.9117 N   0  0  0  0  0  0  0  0  0  0  0  0
   -5.0949   -2.2570    1.7607 C   0  0  0  0  0  0  0  0  0  0  0  0
   -5.8133   -1.2246    1.1436 C   0  0  0  0  0  0  0  0  0  0  0  0
   -5.1099   -0.1146    0.7107 C   0  0  0  0  0  0  0  0  0  0  0  0
   -5.7639    0.9299    0.0859 C   0  0  0  0  0  0  0  0  0  0  0  0
   -5.0645    2.0285   -0.3538 C   0  0  0  0  0  0  0  0  0  0  0  0
   -5.8605    3.3875   -1.1614 Cl  0  0  0  0  0  0  0  0  0  0  0  0
   -3.7071    2.0522   -0.1518 C   0  0  0  0  0  0  0  0  0  0  0  0
   -3.0754    1.0347    0.4569 N   0  0  0  0  0  0  0  0  0  0  0  0
   -3.7567   -0.0407    0.8874 C   0  0  0  0  0  0  0  0  0  0  0  0
   -1.4024   -1.2391   -0.7471 C   0  0  0  0  0  0  0  0  0  0  0  0
   -0.6283   -1.2601   -1.8911 C   0  0  0  0  0  0  0  0  0  0  0  0
   -1.2082   -1.5225   -3.1101 F   0  0  0  0  0  0  0  0  0  0  0  0
    0.7130   -1.0276   -1.8400 C   0  0  0  0  0  0  0  0  0  0  0  0
    1.4180   -1.0615   -2.9989 F   0  0  0  0  0  0  0  0  0  0  0  0
    3.4967   -0.4675    0.6474 C   0  0  0  0  0  0  0  0  0  0  0  0
    3.8446    0.8620    1.2143 C   0  0  1  0  0  0  0  0  0  0  0  0
    5.3425    1.1347    1.2014 C   0  0  0  0  0  0  0  0  0  0  0  0
    5.5254    2.3877    1.7460 F   0  0  0  0  0  0  0  0  0  0  0  0
    5.8705    1.1585   -0.0753 F   0  0  0  0  0  0  0  0  0  0  0  0
    6.0234    0.2500    2.0059 F   0  0  0  0  0  0  0  0  0  0  0  0
    3.1741    1.8742    0.5229 O   0  0  0  0  0  0  0  0  0  0  0  0
    3.1235    1.8165   -0.8686 C   0  0  0  0  0  0  0  0  0  0  0  0
    3.2810    3.0617   -1.5874 N   0  0  0  0  0  0  0  0  0  0  0  0
    2.9453    0.7033   -1.4795 N   0  0  0  0  0  0  0  0  0  0  0  0
    3.6132   -1.3203   -2.4435 H   0  0  0  0  0  0  0  0  0  0  0  0
    4.2919   -2.0978   -0.9230 H   0  0  0  0  0  0  0  0  0  0  0  0
    2.6744   -2.5525   -1.4322 H   0  0  0  0  0  0  0  0  0  0  0  0
    0.9792   -0.5318    1.4840 H   0  0  0  0  0  0  0  0  0  0  0  0
   -1.2201   -0.7983    2.5870 H   0  0  0  0  0  0  0  0  0  0  0  0
   -5.6390   -3.1317    2.1029 H   0  0  0  0  0  0  0  0  0  0  0  0
   -6.8686   -1.3087    1.0208 H   0  0  0  0  0  0  0  0  0  0  0  0
   -6.8415    0.8729   -0.0553 H   0  0  0  0  0  0  0  0  0  0  0  0
   -3.1386    2.9095   -0.4887 H   0  0  0  0  0  0  0  0  0  0  0  0
   -2.4632   -1.4349   -0.8645 H   0  0  0  0  0  0  0  0  0  0  0  0
    4.4458   -1.1267    0.6211 H   0  0  0  0  0  0  0  0  0  0  0  0
    2.8821   -1.0223    1.4070 H   0  0  0  0  0  0  0  0  0  0  0  0
    3.5532    0.8772    2.2975 H   0  0  0  0  0  0  0  0  0  0  0  0
    3.8253    3.1232   -2.4518 H   0  0  0  0  0  0  0  0  0  0  0  0
    2.8121    3.9016   -1.1830 H   0  0  0  0  0  0  0  0  0  0  0  0
  2  1  1  6
  2  3  1  0
  3  4  2  0
  4  5  1  0
  5  6  1  0
  6  7  1  0
  7  8  2  0
  8  9  1  0
  9 10  2  0
 10 11  1  0
 11 12  2  0
 12 13  1  0
 13 14  1  0
 13 15  2  0
 15 16  1  0
 16 17  2  0
  5 18  2  0
 18 19  1  0
 19 20  1  0
 19 21  2  0
 21 22  1  0
  2 23  1  0
 23 24  1  0
 24 25  1  0
 25 26  1  0
 25 27  1  0
 25 28  1  0
 24 29  1  0
 29 30  1  0
 30 31  1  0
 30 32  2  0
 32  2  1  0
 21  3  1  0
 17  7  1  0
 17 11  1  0
  1 33  1  0
  1 34  1  0
  1 35  1  0
  4 36  1  0
  6 37  1  0
  9 38  1  0
 10 39  1  0
 12 40  1  0
 15 41  1  0
 18 42  1  0
 23 43  1  0
 23 44  1  0
 24 45  1  1
 31 46  1  0
 31 47  1  0
M  END
$$$$
