@<TRIPOS>MOLECULE
*****
 47 50 0 0 0
SMALL
GASTEIGER

@<TRIPOS>ATOM
      1 C           3.3889   -1.6993   -1.4285 C.3     1  UNL1       -0.0352
      2 C           2.7936   -0.4992   -0.6481 C.3     1  UNL1        0.0952
      3 C           1.3383   -0.7599   -0.6149 C.ar    1  UNL1        0.0197
      4 C           0.5511   -0.7424    0.5130 C.ar    1  UNL1       -0.0321
      5 C          -0.8250   -0.9787    0.4752 C.ar    1  UNL1        0.0357
      6 N          -1.6309   -0.9341    1.6377 N.pl3   1  UNL1       -0.2976
      7 C          -3.0460   -1.0769    1.5057 C.ar    1  UNL1        0.1490
      8 N          -3.7491   -2.1350    1.9117 N.ar    1  UNL1       -0.2380
      9 C          -5.0949   -2.2570    1.7607 C.ar    1  UNL1        0.0304
     10 C          -5.8133   -1.2246    1.1436 C.ar    1  UNL1       -0.0342
     11 C          -5.1099   -0.1146    0.7107 C.ar    1  UNL1        0.0066
     12 C          -5.7639    0.9299    0.0859 C.ar    1  UNL1       -0.0326
     13 C          -5.0645    2.0285   -0.3538 C.ar    1  UNL1        0.0596
     14 CL         -5.8605    3.3875   -1.1614 Cl      1  UNL1       -0.0820
     15 C          -3.7071    2.0522   -0.1518 C.ar    1  UNL1        0.0467
     16 N          -3.0754    1.0347    0.4569 N.ar    1  UNL1       -0.2501
     17 C          -3.7567   -0.0407    0.8874 C.ar    1  UNL1        0.1109
     18 C          -1.4024   -1.2391   -0.7471 C.ar    1  UNL1       -0.0024
     19 C          -0.6283   -1.2601   -1.8911 C.ar    1  UNL1        0.1605
     20 F          -1.2082   -1.5225   -3.1101 F       1  UNL1       -0.2024
     21 C           0.7130   -1.0276   -1.8400 C.ar    1  UNL1        0.1640
     22 F           1.4180   -1.0615   -2.9989 F       1  UNL1       -0.2021
     23 C           3.4967   -0.4675    0.6474 C.3     1  UNL1        0.0223
     24 C           3.8446    0.8620    1.2143 C.3     1  UNL1        0.1997
     25 C           5.3425    1.1347    1.2014 C.3     1  UNL1        0.4266
     26 F           5.5254    2.3877    1.7460 F       1  UNL1       -0.1669
     27 F           5.8705    1.1585   -0.0753 F       1  UNL1       -0.1669
     28 F           6.0234    0.2500    2.0059 F       1  UNL1       -0.1669
     29 O           3.1741    1.8742    0.5229 O.2     1  UNL1       -0.4534
     30 C           3.1235    1.8165   -0.8686 C.2     1  UNL1        0.2765
     31 N           3.2810    3.0617   -1.5874 N.pl3   1  UNL1       -0.3134
     32 N           2.9453    0.7033   -1.4795 N.2     1  UNL1       -0.2257
     33 H           3.6132   -1.3203   -2.4435 H       1  UNL1        0.0256
     34 H           4.2919   -2.0978   -0.9230 H       1  UNL1        0.0256
     35 H           2.6744   -2.5525   -1.4322 H       1  UNL1        0.0256
     36 H           0.9792   -0.5318    1.4840 H       1  UNL1        0.0640
     37 H          -1.2201   -0.7983    2.5870 H       1  UNL1        0.1536
     38 H          -5.6390   -3.1317    2.1029 H       1  UNL1        0.0830
     39 H          -6.8686   -1.3087    1.0208 H       1  UNL1        0.0639
     40 H          -6.8415    0.8729   -0.0553 H       1  UNL1        0.0639
     41 H          -3.1386    2.9095   -0.4887 H       1  UNL1        0.0844
     42 H          -2.4632   -1.4349   -0.8645 H       1  UNL1        0.0666
     43 H           4.4458   -1.1267    0.6211 H       1  UNL1        0.0330
     44 H           2.8821   -1.0223    1.4070 H       1  UNL1        0.0330
     45 H           3.5532    0.8772    2.2975 H       1  UNL1        0.0826
     46 H           3.8253    3.1232   -2.4518 H       1  UNL1        0.1466
     47 H           2.8121    3.9016   -1.1830 H       1  UNL1        0.1466
@<TRIPOS>BOND
     1     2     1    1
     2     2     3    1
     3     3     4   ar
     4     4     5   ar
     5     5     6    1
     6     6     7    1
     7     7     8   ar
     8     8     9   ar
     9     9    10   ar
    10    10    11   ar
    11    11    12   ar
    12    12    13   ar
    13    13    14    1
    14    13    15   ar
    15    15    16   ar
    16    16    17   ar
    17     5    18   ar
    18    18    19   ar
    19    19    20    1
    20    19    21   ar
    21    21    22    1
    22     2    23    1
    23    23    24    1
    24    24    25    1
    25    25    26    1
    26    25    27    1
    27    25    28    1
    28    24    29    1
    29    29    30    1
    30    30    31    1
    31    30    32    2
    32    32     2    1
    33    21     3   ar
    34    17     7   ar
    35    17    11   ar
    36     1    33    1
    37     1    34    1
    38     1    35    1
    39     4    36    1
    40     6    37    1
    41     9    38    1
    42    10    39    1
    43    12    40    1
    44    15    41    1
    45    18    42    1
    46    23    43    1
    47    23    44    1
    48    24    45    1
    49    31    46    1
    50    31    47    1
