@<TRIPOS>MOLECULE
*****
 41 44 0 0 0
SMALL
GASTEIGER

@<TRIPOS>ATOM
      1 C           5.7113    1.2578    0.0771 C.3     1  UNL1       -0.0206
      2 C           4.6354    0.5990    0.8489 C.ar    1  UNL1        0.0616
      3 C           3.3382    0.3467    0.4883 C.ar    1  UNL1        0.0006
      4 C           2.7358   -0.2898    1.5570 C.ar    1  UNL1        0.1196
      5 N           1.3814   -0.7156    1.5672 N.pl3   1  UNL1       -0.2829
      6 C           0.4964   -0.5376    0.4932 C.ar    1  UNL1        0.1525
      7 N          -0.2658    0.5796    0.4065 N.ar    1  UNL1       -0.1520
      8 N          -1.1077    0.7735   -0.5947 N.ar    1  UNL1       -0.2228
      9 C          -1.9170    1.9584   -0.6815 C.3     1  UNL1        0.0717
     10 C          -3.2321    1.8450    0.0002 C.ar    1  UNL1       -0.0079
     11 C          -4.3681    1.4384   -0.6467 C.ar    1  UNL1       -0.0539
     12 C          -5.5482    1.3557    0.0526 C.ar    1  UNL1       -0.0433
     13 C          -5.6239    1.6723    1.3970 C.ar    1  UNL1        0.0276
     14 N          -4.4839    2.0635    1.9780 N.ar    1  UNL1       -0.2629
     15 C          -3.3080    2.1596    1.3366 C.ar    1  UNL1        0.0325
     16 C          -1.2016   -0.1656   -1.5426 C.ar    1  UNL1        0.2754
     17 O          -1.9977    0.0205   -2.4879 O.2     1  UNL1       -0.2655
     18 C          -0.4583   -1.3308   -1.5236 C.ar    1  UNL1        0.0514
     19 C          -0.6044   -2.2564   -2.5322 C.ar    1  UNL1       -0.0487
     20 C           0.1706   -3.4015   -2.4520 C.ar    1  UNL1       -0.0610
     21 C           1.0437   -3.6040   -1.4149 C.ar    1  UNL1       -0.0611
     22 C           1.1806   -2.6767   -0.4176 C.ar    1  UNL1       -0.0505
     23 C           0.4197   -1.5218   -0.4697 C.ar    1  UNL1        0.0291
     24 N           3.6551   -0.4102    2.5248 N.ar    1  UNL1       -0.2637
     25 N           4.7808    0.1193    2.0983 N.ar    1  UNL1       -0.1775
     26 H           6.7023    1.0643    0.5093 H       1  UNL1        0.0293
     27 H           5.7464    0.8707   -0.9753 H       1  UNL1        0.0293
     28 H           5.5644    2.3529   -0.0224 H       1  UNL1        0.0293
     29 H           2.9208    0.6180   -0.4668 H       1  UNL1        0.0670
     30 H           1.0289   -1.1879    2.4259 H       1  UNL1        0.1550
     31 H          -2.0645    2.3065   -1.7282 H       1  UNL1        0.0560
     32 H          -1.3281    2.7835   -0.1831 H       1  UNL1        0.0560
     33 H          -4.3478    1.1804   -1.7139 H       1  UNL1        0.0622
     34 H          -6.4807    1.0350   -0.4255 H       1  UNL1        0.0633
     35 H          -6.5764    1.6004    1.9411 H       1  UNL1        0.0829
     36 H          -2.4151    2.4922    1.8974 H       1  UNL1        0.0833
     37 H          -1.2937   -2.0968   -3.3512 H       1  UNL1        0.0625
     38 H           0.0640   -4.1285   -3.2329 H       1  UNL1        0.0618
     39 H           1.6570   -4.5161   -1.3566 H       1  UNL1        0.0618
     40 H           1.8631   -2.8102    0.4146 H       1  UNL1        0.0625
     41 H           3.5270   -0.8436    3.4615 H       1  UNL1        0.1903
@<TRIPOS>BOND
     1     1     2    1
     2     2     3   ar
     3     3     4   ar
     4     4     5    1
     5     5     6    1
     6     6     7   ar
     7     7     8   ar
     8     8     9    1
     9     9    10    1
    10    10    11   ar
    11    11    12   ar
    12    12    13   ar
    13    13    14   ar
    14    14    15   ar
    15     8    16   ar
    16    16    17    2
    17    16    18   ar
    18    18    19   ar
    19    19    20   ar
    20    20    21   ar
    21    21    22   ar
    22    22    23   ar
    23     4    24   ar
    24    24    25   ar
    25    25     2   ar
    26    23     6   ar
    27    15    10   ar
    28    23    18   ar
    29     1    26    1
    30     1    27    1
    31     1    28    1
    32     3    29    1
    33     5    30    1
    34     9    31    1
    35     9    32    1
    36    11    33    1
    37    12    34    1
    38    13    35    1
    39    15    36    1
    40    19    37    1
    41    20    38    1
    42    21    39    1
    43    22    40    1
    44    24    41    1
