@<TRIPOS>MOLECULE
*****
 42 44 0 0 0
SMALL
GASTEIGER

@<TRIPOS>ATOM
      1 C          -0.6302    0.2502    0.8068 C.3     1  UNL1        0.0720
      2 C           0.8552    0.2738    1.0725 C.2     1  UNL1       -0.0540
      3 C           1.4912   -0.4634    0.1740 C.2     1  UNL1       -0.0219
      4 C           0.5540   -1.0759   -0.8029 C.3     1  UNL1        0.0425
      5 N          -0.7162   -0.8185   -0.1454 N.am    1  UNL1       -0.2706
      6 C          -1.7941   -1.6251   -0.5280 C.2     1  UNL1        0.3053
      7 O          -1.0987   -2.2879   -1.3670 O.2     1  UNL1       -0.2524
      8 N          -3.1693   -1.7958   -0.2283 N.am    1  UNL1       -0.2916
      9 C          -4.0251   -1.0701    0.7212 C.3     1  UNL1        0.0043
     10 C          -3.8138   -2.8392   -0.9709 C.3     1  UNL1        0.0043
     11 C           2.9421   -0.6213    0.1884 C.ar    1  UNL1        0.0173
     12 C           3.6926    0.0080    1.1597 C.ar    1  UNL1       -0.0163
     13 C           5.0736   -0.1585    1.1514 C.ar    1  UNL1        0.1241
     14 F           5.8268    0.4639    2.1137 F       1  UNL1       -0.2055
     15 C           5.7324   -0.9295    0.2099 C.ar    1  UNL1       -0.0237
     16 C           4.9400   -1.5482   -0.7535 C.ar    1  UNL1       -0.0231
     17 C           3.5774   -1.3928   -0.7574 C.ar    1  UNL1        0.1310
     18 F           2.9194   -2.0313   -1.7267 F       1  UNL1       -0.2049
     19 C          -0.9569    1.5765    0.2744 C.ar    1  UNL1       -0.0231
     20 C          -0.2133    2.7170    0.5269 C.ar    1  UNL1       -0.0565
     21 C          -0.4887    3.9799    0.0445 C.ar    1  UNL1       -0.0614
     22 C          -1.6101    4.1393   -0.7698 C.ar    1  UNL1       -0.0617
     23 C          -2.3729    3.0231   -1.0412 C.ar    1  UNL1       -0.0614
     24 C          -2.0493    1.7916   -0.5327 C.ar    1  UNL1       -0.0565
     25 H          -1.1046    0.0351    1.7835 H       1  UNL1        0.0596
     26 H           1.2562    0.8406    1.9032 H       1  UNL1        0.0597
     27 H           0.7821   -2.1432   -0.9005 H       1  UNL1        0.0515
     28 H           0.5879   -0.5483   -1.7870 H       1  UNL1        0.0515
     29 H          -3.4080   -0.3217    1.2169 H       1  UNL1        0.0429
     30 H          -4.7504   -0.5039    0.0678 H       1  UNL1        0.0429
     31 H          -4.5877   -1.7458    1.3862 H       1  UNL1        0.0429
     32 H          -4.8606   -2.5594   -1.1747 H       1  UNL1        0.0429
     33 H          -3.8240   -3.7793   -0.3576 H       1  UNL1        0.0429
     34 H          -3.3436   -3.0538   -1.9376 H       1  UNL1        0.0429
     35 H           3.2836    0.6198    1.9247 H       1  UNL1        0.0653
     36 H           6.7985   -1.0709    0.1861 H       1  UNL1        0.0647
     37 H           5.4544   -2.1506   -1.4893 H       1  UNL1        0.0647
     38 H           0.6663    2.6452    1.1534 H       1  UNL1        0.0621
     39 H           0.1378    4.8236    0.2843 H       1  UNL1        0.0618
     40 H          -1.8173    5.1134   -1.1381 H       1  UNL1        0.0618
     41 H          -3.2242    3.2218   -1.6774 H       1  UNL1        0.0618
     42 H          -2.7129    1.0114   -0.8129 H       1  UNL1        0.0621
@<TRIPOS>BOND
     1     1     2    1
     2     2     3    2
     3     3     4    1
     4     4     5    1
     5     5     6   am
     6     6     7    2
     7     6     8   am
     8     8     9    1
     9     8    10    1
    10     3    11    1
    11    11    12   ar
    12    12    13   ar
    13    13    14    1
    14    13    15   ar
    15    15    16   ar
    16    16    17   ar
    17    17    18    1
    18     1    19    1
    19    19    20   ar
    20    20    21   ar
    21    21    22   ar
    22    22    23   ar
    23    23    24   ar
    24     5     1    1
    25    17    11   ar
    26    24    19   ar
    27     1    25    1
    28     2    26    1
    29     4    27    1
    30     4    28    1
    31     9    29    1
    32     9    30    1
    33     9    31    1
    34    10    32    1
    35    10    33    1
    36    10    34    1
    37    12    35    1
    38    15    36    1
    39    16    37    1
    40    20    38    1
    41    21    39    1
    42    22    40    1
    43    23    41    1
    44    24    42    1
