@<TRIPOS>MOLECULE
*****
 51 54 0 0 0
SMALL
GASTEIGER

@<TRIPOS>ATOM
      1 C           8.2937    0.3673   -1.0017 C.3     1  UNL1       -0.0063
      2 C           6.8190    0.4456   -0.8123 C.ar    1  UNL1        0.1074
      3 N           5.9236    1.2969   -1.3437 N.ar    1  UNL1       -0.2326
      4 C           4.6805    1.0077   -0.9000 C.ar    1  UNL1        0.0894
      5 C           3.4115    1.5415   -1.1157 C.ar    1  UNL1       -0.0325
      6 C           2.3154    0.9660   -0.4704 C.ar    1  UNL1       -0.0382
      7 C           2.4279   -0.1100    0.3740 C.ar    1  UNL1        0.0369
      8 N           1.3336   -0.7196    1.0389 N.pl3   1  UNL1       -0.2880
      9 C           1.5444   -1.8727    1.8989 C.3     1  UNL1        0.0071
     10 C           0.0110   -0.2405    0.9184 C.ar    1  UNL1        0.1303
     11 C          -0.5337    0.4093    2.0030 C.ar    1  UNL1       -0.0031
     12 C          -1.8220    0.9093    1.9792 C.ar    1  UNL1        0.0345
     13 N          -2.5050    0.7241    0.8417 N.ar    1  UNL1       -0.2225
     14 C          -2.0220    0.1017   -0.2380 C.ar    1  UNL1        0.2212
     15 N          -2.8275   -0.0487   -1.3887 N.pl3   1  UNL1       -0.2835
     16 C          -4.1916    0.2498   -1.4637 C.ar    1  UNL1        0.0354
     17 C          -4.7582    0.4638   -2.7162 C.ar    1  UNL1       -0.0404
     18 C          -6.0998    0.7256   -2.8289 C.ar    1  UNL1       -0.0582
     19 C          -6.9408    0.7895   -1.7404 C.ar    1  UNL1       -0.0352
     20 C          -6.3845    0.5786   -0.5066 C.ar    1  UNL1        0.1068
     21 S          -7.4120    0.6407    0.9022 S.O2    1  UNL1        0.0560
     22 N          -7.9969   -0.9786    1.1891 N.3     1  UNL1       -0.2035
     23 O          -8.5521    1.5837    0.6681 O.2     1  UNL1       -0.1533
     24 O          -6.6210    1.0577    2.1136 O.2     1  UNL1       -0.1533
     25 C          -5.0156    0.3101   -0.3675 C.ar    1  UNL1       -0.0141
     26 N          -0.7530   -0.3769   -0.1793 N.ar    1  UNL1       -0.1990
     27 C           3.7156   -0.6094    0.5595 C.ar    1  UNL1       -0.0147
     28 C           4.8226   -0.0707   -0.0583 C.ar    1  UNL1        0.0703
     29 N           6.1372   -0.3894   -0.0256 N.ar    1  UNL1       -0.3308
     30 C           6.6937   -1.4942    0.7688 C.3     1  UNL1        0.0135
     31 H           8.6512   -0.6563   -1.1568 H       1  UNL1        0.0307
     32 H           8.8409    0.7950   -0.1346 H       1  UNL1        0.0307
     33 H           8.5457    0.9920   -1.8813 H       1  UNL1        0.0307
     34 H           3.3377    2.3780   -1.7742 H       1  UNL1        0.0640
     35 H           1.3485    1.4010   -0.6594 H       1  UNL1        0.0637
     36 H           0.6231   -2.2424    2.3452 H       1  UNL1        0.0432
     37 H           2.0249   -2.6710    1.2793 H       1  UNL1        0.0432
     38 H           2.3019   -1.6059    2.6836 H       1  UNL1        0.0432
     39 H           0.0552    0.5323    2.8968 H       1  UNL1        0.0667
     40 H          -2.3017    1.4209    2.7840 H       1  UNL1        0.0832
     41 H          -2.3280   -0.4261   -2.2666 H       1  UNL1        0.1550
     42 H          -4.0991    0.4160   -3.5846 H       1  UNL1        0.0636
     43 H          -6.4757    0.8850   -3.8402 H       1  UNL1        0.0619
     44 H          -7.9901    1.0007   -1.9095 H       1  UNL1        0.0637
     45 H          -7.1613   -1.6052    1.0461 H       1  UNL1        0.1442
     46 H          -8.6847   -1.2195    0.4486 H       1  UNL1        0.1442
     47 H          -4.6800    0.1475    0.6431 H       1  UNL1        0.0656
     48 H           3.8769   -1.4544    1.2113 H       1  UNL1        0.0657
     49 H           5.9404   -1.7973    1.5384 H       1  UNL1        0.0456
     50 H           7.6194   -1.1674    1.2886 H       1  UNL1        0.0456
     51 H           6.8606   -2.3809    0.1231 H       1  UNL1        0.0456
@<TRIPOS>BOND
     1     1     2    1
     2     2     3   ar
     3     3     4   ar
     4     4     5   ar
     5     5     6   ar
     6     6     7   ar
     7     7     8    1
     8     8     9    1
     9     8    10    1
    10    10    11   ar
    11    11    12   ar
    12    12    13   ar
    13    13    14   ar
    14    14    15    1
    15    15    16    1
    16    16    17   ar
    17    17    18   ar
    18    18    19   ar
    19    19    20   ar
    20    20    21    1
    21    21    22    1
    22    21    23    2
    23    21    24    2
    24    20    25   ar
    25    14    26   ar
    26     7    27   ar
    27    27    28   ar
    28    28    29   ar
    29    29    30    1
    30    29     2   ar
    31    28     4   ar
    32    26    10   ar
    33    25    16   ar
    34     1    31    1
    35     1    32    1
    36     1    33    1
    37     5    34    1
    38     6    35    1
    39     9    36    1
    40     9    37    1
    41     9    38    1
    42    11    39    1
    43    12    40    1
    44    15    41    1
    45    17    42    1
    46    18    43    1
    47    19    44    1
    48    22    45    1
    49    22    46    1
    50    25    47    1
    51    27    48    1
    52    30    49    1
    53    30    50    1
    54    30    51    1
