@<TRIPOS>MOLECULE
*****
 28 29 0 0 0
SMALL
GASTEIGER

@<TRIPOS>ATOM
      1 N          -1.8844    2.4802    0.7556 N.pl3   1  UNL1       -0.3417
      2 C          -2.6197    1.2809    0.5468 C.ar    1  UNL1        0.1372
      3 N          -3.9617    1.1915    0.6210 N.ar    1  UNL1       -0.2388
      4 C          -4.6315    0.0402    0.4181 C.ar    1  UNL1        0.0298
      5 C          -3.9466   -1.1252    0.1176 C.ar    1  UNL1       -0.0417
      6 C          -2.5599   -1.0606    0.0348 C.ar    1  UNL1       -0.0361
      7 C          -1.9027    0.1338    0.2479 C.ar    1  UNL1        0.0675
      8 N          -0.4656    0.1307    0.1469 N.pl3   1  UNL1       -0.3371
      9 C           0.3838   -0.9924   -0.1559 C.3     1  UNL1        0.0345
     10 C           1.8280   -0.6122   -0.1742 C.ar    1  UNL1       -0.0304
     11 C           2.7037   -0.6317    0.8786 C.ar    1  UNL1       -0.0571
     12 C           4.0161   -0.2431    0.6790 C.ar    1  UNL1       -0.0615
     13 C           4.4933    0.1687   -0.5446 C.ar    1  UNL1       -0.0617
     14 C           3.5823    0.1771   -1.5892 C.ar    1  UNL1       -0.0615
     15 C           2.2641   -0.2012   -1.4393 C.ar    1  UNL1       -0.0571
     16 H          -1.6508    2.8574    1.6928 H       1  UNL1        0.1438
     17 H          -1.6786    2.8203   -0.2090 H       1  UNL1        0.1438
     18 H          -5.7135    0.1907    0.5263 H       1  UNL1        0.0830
     19 H          -4.5745   -1.9886   -0.0258 H       1  UNL1        0.0633
     20 H          -2.0804   -2.0077   -0.2041 H       1  UNL1        0.0637
     21 H           0.0125    1.0650    0.3162 H       1  UNL1        0.1465
     22 H           0.3028   -1.7590    0.6641 H       1  UNL1        0.0511
     23 H           0.0806   -1.4749   -1.0988 H       1  UNL1        0.0511
     24 H           2.2792   -0.9616    1.8118 H       1  UNL1        0.0621
     25 H           4.6560   -0.2811    1.5491 H       1  UNL1        0.0618
     26 H           5.5316    0.4678   -0.6669 H       1  UNL1        0.0618
     27 H           3.9238    0.4972   -2.5725 H       1  UNL1        0.0618
     28 H           1.6122   -0.1624   -2.3264 H       1  UNL1        0.0621
@<TRIPOS>BOND
     1     1     2    1
     2     2     3   ar
     3     3     4   ar
     4     4     5   ar
     5     5     6   ar
     6     6     7   ar
     7     7     8    1
     8     8     9    1
     9     9    10    1
    10    10    11   ar
    11    11    12   ar
    12    12    13   ar
    13    13    14   ar
    14    14    15   ar
    15     7     2   ar
    16    15    10   ar
    17     1    16    1
    18     1    17    1
    19     4    18    1
    20     5    19    1
    21     6    20    1
    22     8    21    1
    23     9    22    1
    24     9    23    1
    25    11    24    1
    26    12    25    1
    27    13    26    1
    28    14    27    1
    29    15    28    1
