
     RDKit          3D

 28 29  0  0  0  0  0  0  0  0999 V2000
   -1.8844    2.4802    0.7556 N   0  0  0  0  0  0  0  0  0  0  0  0
   -2.6197    1.2809    0.5468 C   0  0  0  0  0  0  0  0  0  0  0  0
   -3.9617    1.1915    0.6210 N   0  0  0  0  0  0  0  0  0  0  0  0
   -4.6315    0.0402    0.4181 C   0  0  0  0  0  0  0  0  0  0  0  0
   -3.9466   -1.1252    0.1176 C   0  0  0  0  0  0  0  0  0  0  0  0
   -2.5599   -1.0606    0.0348 C   0  0  0  0  0  0  0  0  0  0  0  0
   -1.9027    0.1338    0.2479 C   0  0  0  0  0  0  0  0  0  0  0  0
   -0.4656    0.1307    0.1469 N   0  0  0  0  0  0  0  0  0  0  0  0
    0.3838   -0.9924   -0.1559 C   0  0  0  0  0  0  0  0  0  0  0  0
    1.8280   -0.6122   -0.1742 C   0  0  0  0  0  0  0  0  0  0  0  0
    2.7037   -0.6317    0.8786 C   0  0  0  0  0  0  0  0  0  0  0  0
    4.0161   -0.2431    0.6790 C   0  0  0  0  0  0  0  0  0  0  0  0
    4.4933    0.1687   -0.5446 C   0  0  0  0  0  0  0  0  0  0  0  0
    3.5823    0.1771   -1.5892 C   0  0  0  0  0  0  0  0  0  0  0  0
    2.2641   -0.2012   -1.4393 C   0  0  0  0  0  0  0  0  0  0  0  0
   -1.6508    2.8574    1.6928 H   0  0  0  0  0  0  0  0  0  0  0  0
   -1.6786    2.8203   -0.2090 H   0  0  0  0  0  0  0  0  0  0  0  0
   -5.7135    0.1907    0.5263 H   0  0  0  0  0  0  0  0  0  0  0  0
   -4.5745   -1.9886   -0.0258 H   0  0  0  0  0  0  0  0  0  0  0  0
   -2.0804   -2.0077   -0.2041 H   0  0  0  0  0  0  0  0  0  0  0  0
    0.0125    1.0650    0.3162 H   0  0  0  0  0  0  0  0  0  0  0  0
    0.3028   -1.7590    0.6641 H   0  0  0  0  0  0  0  0  0  0  0  0
    0.0806   -1.4749   -1.0988 H   0  0  0  0  0  0  0  0  0  0  0  0
    2.2792   -0.9616    1.8118 H   0  0  0  0  0  0  0  0  0  0  0  0
    4.6560   -0.2811    1.5491 H   0  0  0  0  0  0  0  0  0  0  0  0
    5.5316    0.4678   -0.6669 H   0  0  0  0  0  0  0  0  0  0  0  0
    3.9238    0.4972   -2.5725 H   0  0  0  0  0  0  0  0  0  0  0  0
    1.6122   -0.1624   -2.3264 H   0  0  0  0  0  0  0  0  0  0  0  0
  1  2  1  0
  2  3  2  0
  3  4  1  0
  4  5  2  0
  5  6  1  0
  6  7  2  0
  7  8  1  0
  8  9  1  0
  9 10  1  0
 10 11  2  0
 11 12  1  0
 12 13  2  0
 13 14  1  0
 14 15  2  0
  7  2  1  0
 15 10  1  0
  1 16  1  0
  1 17  1  0
  4 18  1  0
  5 19  1  0
  6 20  1  0
  8 21  1  0
  9 22  1  0
  9 23  1  0
 11 24  1  0
 12 25  1  0
 13 26  1  0
 14 27  1  0
 15 28  1  0
M  END
$$$$
