
     RDKit          3D

 28 30  0  0  0  0  0  0  0  0999 V2000
   -1.7719   -3.1063   -0.3553 O   0  0  0  0  0  0  0  0  0  0  0  0
   -1.2908   -1.9660   -0.1813 C   0  0  0  0  0  0  0  0  0  0  0  0
    0.0888   -1.7391   -0.1351 C   0  0  0  0  0  0  0  0  0  0  0  0
    0.5954   -0.4763    0.0574 C   0  0  0  0  0  0  0  0  0  0  0  0
    2.0121   -0.1576    0.1176 C   0  0  0  0  0  0  0  0  0  0  0  0
    2.4723    1.1276    0.3130 C   0  0  0  0  0  0  0  0  0  0  0  0
    3.8134    1.4379    0.3712 C   0  0  0  0  0  0  0  0  0  0  0  0
    4.7314    0.4319    0.2297 C   0  0  0  0  0  0  0  0  0  0  0  0
    4.3078   -0.8623    0.0333 C   0  0  0  0  0  0  0  0  0  0  0  0
    2.9354   -1.1524   -0.0223 C   0  0  0  0  0  0  0  0  0  0  0  0
   -0.2928    0.4893    0.1931 O   0  0  0  0  0  0  0  0  0  0  0  0
   -1.5764    0.3465    0.1603 C   0  0  0  0  0  0  0  0  0  0  0  0
   -2.3959    1.4625    0.3190 C   0  0  0  0  0  0  0  0  0  0  0  0
   -3.7595    1.3008    0.2826 C   0  0  0  0  0  0  0  0  0  0  0  0
   -4.5918    2.4282    0.4429 O   0  0  0  0  0  0  0  0  0  0  0  0
   -4.3234    0.0584    0.0927 C   0  0  0  0  0  0  0  0  0  0  0  0
   -3.5221   -1.0491   -0.0649 C   0  0  0  0  0  0  0  0  0  0  0  0
   -2.1551   -0.8844   -0.0281 C   0  0  0  0  0  0  0  0  0  0  0  0
    0.7613   -2.5780   -0.2539 H   0  0  0  0  0  0  0  0  0  0  0  0
    1.7650    1.9381    0.4273 H   0  0  0  0  0  0  0  0  0  0  0  0
    4.1691    2.4490    0.5250 H   0  0  0  0  0  0  0  0  0  0  0  0
    5.8135    0.6449    0.2711 H   0  0  0  0  0  0  0  0  0  0  0  0
    5.0541   -1.6382   -0.0756 H   0  0  0  0  0  0  0  0  0  0  0  0
    2.7116   -2.1793   -0.1771 H   0  0  0  0  0  0  0  0  0  0  0  0
   -1.9857    2.4605    0.4712 H   0  0  0  0  0  0  0  0  0  0  0  0
   -4.2226    3.2844    0.8350 H   0  0  0  0  0  0  0  0  0  0  0  0
   -5.4156   -0.0284    0.0699 H   0  0  0  0  0  0  0  0  0  0  0  0
   -3.9276   -2.0424   -0.2163 H   0  0  0  0  0  0  0  0  0  0  0  0
  1  2  2  0
  2  3  1  0
  3  4  2  0
  4  5  1  0
  5  6  2  0
  6  7  1  0
  7  8  2  0
  8  9  1  0
  9 10  2  0
  4 11  1  0
 11 12  1  0
 12 13  2  0
 13 14  1  0
 14 15  1  0
 14 16  2  0
 16 17  1  0
 17 18  2  0
 18  2  1  0
 10  5  1  0
 18 12  1  0
  3 19  1  0
  6 20  1  0
  7 21  1  0
  8 22  1  0
  9 23  1  0
 10 24  1  0
 13 25  1  0
 15 26  1  0
 16 27  1  0
 17 28  1  0
M  END
$$$$
