@<TRIPOS>MOLECULE
*****
 28 30 0 0 0
SMALL
GASTEIGER

@<TRIPOS>ATOM
      1 O          -1.7719   -3.1063   -0.3553 O.2     1  UNL1       -0.2870
      2 C          -1.2908   -1.9660   -0.1813 C.ar    1  UNL1        0.1931
      3 C           0.0888   -1.7391   -0.1351 C.ar    1  UNL1        0.0287
      4 C           0.5954   -0.4763    0.0574 C.ar    1  UNL1        0.1392
      5 C           2.0121   -0.1576    0.1176 C.ar    1  UNL1        0.0174
      6 C           2.4723    1.1276    0.3130 C.ar    1  UNL1       -0.0511
      7 C           3.8134    1.4379    0.3712 C.ar    1  UNL1       -0.0611
      8 C           4.7314    0.4319    0.2297 C.ar    1  UNL1       -0.0617
      9 C           4.3078   -0.8623    0.0333 C.ar    1  UNL1       -0.0611
     10 C           2.9354   -1.1524   -0.0223 C.ar    1  UNL1       -0.0511
     11 O          -0.2928    0.4893    0.1931 O.2     1  UNL1       -0.4545
     12 C          -1.5764    0.3465    0.1603 C.ar    1  UNL1        0.1427
     13 C          -2.3959    1.4625    0.3190 C.ar    1  UNL1        0.0229
     14 C          -3.7595    1.3008    0.2826 C.ar    1  UNL1        0.1204
     15 O          -4.5918    2.4282    0.4429 O.3     1  UNL1       -0.5066
     16 C          -4.3234    0.0584    0.0927 C.ar    1  UNL1       -0.0193
     17 C          -3.5221   -1.0491   -0.0649 C.ar    1  UNL1       -0.0439
     18 C          -2.1551   -0.8844   -0.0281 C.ar    1  UNL1        0.0642
     19 H           0.7613   -2.5780   -0.2539 H       1  UNL1        0.0693
     20 H           1.7650    1.9381    0.4273 H       1  UNL1        0.0625
     21 H           4.1691    2.4490    0.5250 H       1  UNL1        0.0618
     22 H           5.8135    0.6449    0.2711 H       1  UNL1        0.0618
     23 H           5.0541   -1.6382   -0.0756 H       1  UNL1        0.0618
     24 H           2.7116   -2.1793   -0.1771 H       1  UNL1        0.0625
     25 H          -1.9857    2.4605    0.4712 H       1  UNL1        0.0691
     26 H          -4.2226    3.2844    0.8350 H       1  UNL1        0.2921
     27 H          -5.4156   -0.0284    0.0699 H       1  UNL1        0.0654
     28 H          -3.9276   -2.0424   -0.2163 H       1  UNL1        0.0627
@<TRIPOS>BOND
     1     1     2    2
     2     2     3   ar
     3     3     4   ar
     4     4     5    1
     5     5     6   ar
     6     6     7   ar
     7     7     8   ar
     8     8     9   ar
     9     9    10   ar
    10     4    11   ar
    11    11    12   ar
    12    12    13   ar
    13    13    14   ar
    14    14    15    1
    15    14    16   ar
    16    16    17   ar
    17    17    18   ar
    18    18     2   ar
    19    10     5   ar
    20    18    12   ar
    21     3    19    1
    22     6    20    1
    23     7    21    1
    24     8    22    1
    25     9    23    1
    26    10    24    1
    27    13    25    1
    28    15    26    1
    29    16    27    1
    30    17    28    1
