@<TRIPOS>MOLECULE
*****
 52 55 0 0 0
SMALL
GASTEIGER

@<TRIPOS>ATOM
      1 C          -1.3483   -3.8014    1.1740 C.3     1  UNL1        0.0167
      2 N          -1.3913   -2.5995    0.3591 N.ar    1  UNL1       -0.2962
      3 C          -2.4991   -2.2597   -0.3474 C.ar    1  UNL1        0.3324
      4 O          -3.4890   -3.0374   -0.2629 O.2     1  UNL1       -0.2462
      5 N          -2.5458   -1.1487   -1.1035 N.ar    1  UNL1       -0.2560
      6 C          -3.7309   -0.8099   -1.8431 C.3     1  UNL1        0.0560
      7 C          -4.6957    0.0321   -1.1070 C.ar    1  UNL1       -0.0275
      8 C          -5.7033   -0.5051   -0.3336 C.ar    1  UNL1       -0.0561
      9 C          -6.6179    0.2750    0.3634 C.ar    1  UNL1       -0.0475
     10 C          -6.5214    1.6473    0.2838 C.ar    1  UNL1        0.0589
     11 C          -7.4561    2.5083    0.9957 C.2     1  UNL1        0.3368
     12 O          -7.3651    3.7588    0.9209 O.2     1  UNL1       -0.2451
     13 O          -8.4826    2.0045    1.7837 O.3     1  UNL1       -0.4771
     14 C          -5.5339    2.2115   -0.4746 C.ar    1  UNL1       -0.0475
     15 C          -4.6409    1.4172   -1.1550 C.ar    1  UNL1       -0.0561
     16 C          -1.4515   -0.3570   -1.1526 C.ar    1  UNL1        0.2646
     17 O          -1.4203    0.6987   -1.8391 O.2     1  UNL1       -0.2668
     18 C          -0.3029   -0.6910   -0.4323 C.ar    1  UNL1        0.0643
     19 C           0.8005    0.1440   -0.5060 C.ar    1  UNL1       -0.0320
     20 C           1.9416   -0.1822    0.2060 C.ar    1  UNL1        0.0258
     21 C           3.0842    0.6871    0.1268 C.1     1  UNL1       -0.0660
     22 C           4.0361    1.4285    0.0441 C.1     1  UNL1       -0.0923
     23 C           5.2057    2.3096   -0.0665 C.3     1  UNL1        0.0346
     24 C           6.4738    1.5394   -0.1536 C.ar    1  UNL1       -0.0356
     25 C           7.1132    1.2342    1.0342 C.ar    1  UNL1       -0.0577
     26 C           8.3027    0.5190    1.0586 C.ar    1  UNL1       -0.0615
     27 C           8.8663    0.0995   -0.1245 C.ar    1  UNL1       -0.0617
     28 C           8.2104    0.4147   -1.3111 C.ar    1  UNL1       -0.0615
     29 C           7.0302    1.1236   -1.3456 C.ar    1  UNL1       -0.0577
     30 C           1.9363   -1.3312    0.9649 C.ar    1  UNL1       -0.0443
     31 C           0.8543   -2.1661    1.0478 C.ar    1  UNL1       -0.0361
     32 C          -0.2823   -1.8395    0.3375 C.ar    1  UNL1        0.0584
     33 H          -2.3459   -4.3066    1.2066 H       1  UNL1        0.0457
     34 H          -0.5372   -4.4733    0.8475 H       1  UNL1        0.0457
     35 H          -1.1262   -3.5396    2.2407 H       1  UNL1        0.0457
     36 H          -4.2540   -1.7561   -2.1679 H       1  UNL1        0.0544
     37 H          -3.4387   -0.3235   -2.8182 H       1  UNL1        0.0544
     38 H          -5.8018   -1.5823   -0.2561 H       1  UNL1        0.0621
     39 H          -7.3994   -0.1381    0.9633 H       1  UNL1        0.0626
     40 H          -9.2626    2.5627    2.1091 H       1  UNL1        0.2954
     41 H          -5.4685    3.2860   -0.5293 H       1  UNL1        0.0626
     42 H          -3.8838    1.8757   -1.7389 H       1  UNL1        0.0621
     43 H           0.7379    1.0315   -1.1212 H       1  UNL1        0.0638
     44 H           5.2116    3.0130    0.7941 H       1  UNL1        0.0446
     45 H           5.0680    2.8852   -1.0051 H       1  UNL1        0.0446
     46 H           6.7125    1.5409    1.9995 H       1  UNL1        0.0621
     47 H           8.7961    0.2846    1.9912 H       1  UNL1        0.0618
     48 H           9.8037   -0.4677   -0.1582 H       1  UNL1        0.0618
     49 H           8.6390    0.0927   -2.2547 H       1  UNL1        0.0618
     50 H           6.5255    1.3645   -2.2844 H       1  UNL1        0.0621
     51 H           2.8202   -1.6051    1.5305 H       1  UNL1        0.0630
     52 H           0.8262   -3.0690    1.6338 H       1  UNL1        0.0639
@<TRIPOS>BOND
     1     1     2    1
     2     2     3   ar
     3     3     4    2
     4     3     5   ar
     5     5     6    1
     6     6     7    1
     7     7     8   ar
     8     8     9   ar
     9     9    10   ar
    10    10    11    1
    11    11    12    2
    12    11    13    1
    13    10    14   ar
    14    14    15   ar
    15     5    16   ar
    16    16    17    2
    17    16    18   ar
    18    18    19   ar
    19    19    20   ar
    20    20    21    1
    21    21    22    3
    22    22    23    1
    23    23    24    1
    24    24    25   ar
    25    25    26   ar
    26    26    27   ar
    27    27    28   ar
    28    28    29   ar
    29    20    30   ar
    30    30    31   ar
    31    31    32   ar
    32    32     2   ar
    33    15     7   ar
    34    32    18   ar
    35    29    24   ar
    36     1    33    1
    37     1    34    1
    38     1    35    1
    39     6    36    1
    40     6    37    1
    41     8    38    1
    42     9    39    1
    43    13    40    1
    44    14    41    1
    45    15    42    1
    46    19    43    1
    47    23    44    1
    48    23    45    1
    49    25    46    1
    50    26    47    1
    51    27    48    1
    52    28    49    1
    53    29    50    1
    54    30    51    1
    55    31    52    1
