
     RDKit          3D

 52 55  0  0  0  0  0  0  0  0999 V2000
   -1.3483   -3.8014    1.1740 C   0  0  0  0  0  0  0  0  0  0  0  0
   -1.3913   -2.5995    0.3591 N   0  0  0  0  0  0  0  0  0  0  0  0
   -2.4991   -2.2597   -0.3474 C   0  0  0  0  0  0  0  0  0  0  0  0
   -3.4890   -3.0374   -0.2629 O   0  0  0  0  0  0  0  0  0  0  0  0
   -2.5458   -1.1487   -1.1035 N   0  0  0  0  0  0  0  0  0  0  0  0
   -3.7309   -0.8099   -1.8431 C   0  0  0  0  0  0  0  0  0  0  0  0
   -4.6957    0.0321   -1.1070 C   0  0  0  0  0  0  0  0  0  0  0  0
   -5.7033   -0.5051   -0.3336 C   0  0  0  0  0  0  0  0  0  0  0  0
   -6.6179    0.2750    0.3634 C   0  0  0  0  0  0  0  0  0  0  0  0
   -6.5214    1.6473    0.2838 C   0  0  0  0  0  0  0  0  0  0  0  0
   -7.4561    2.5083    0.9957 C   0  0  0  0  0  0  0  0  0  0  0  0
   -7.3651    3.7588    0.9209 O   0  0  0  0  0  0  0  0  0  0  0  0
   -8.4826    2.0045    1.7837 O   0  0  0  0  0  0  0  0  0  0  0  0
   -5.5339    2.2115   -0.4746 C   0  0  0  0  0  0  0  0  0  0  0  0
   -4.6409    1.4172   -1.1550 C   0  0  0  0  0  0  0  0  0  0  0  0
   -1.4515   -0.3570   -1.1526 C   0  0  0  0  0  0  0  0  0  0  0  0
   -1.4203    0.6987   -1.8391 O   0  0  0  0  0  0  0  0  0  0  0  0
   -0.3029   -0.6910   -0.4323 C   0  0  0  0  0  0  0  0  0  0  0  0
    0.8005    0.1440   -0.5060 C   0  0  0  0  0  0  0  0  0  0  0  0
    1.9416   -0.1822    0.2060 C   0  0  0  0  0  0  0  0  0  0  0  0
    3.0842    0.6871    0.1268 C   0  0  0  0  0  0  0  0  0  0  0  0
    4.0361    1.4285    0.0441 C   0  0  0  0  0  0  0  0  0  0  0  0
    5.2057    2.3096   -0.0665 C   0  0  0  0  0  0  0  0  0  0  0  0
    6.4738    1.5394   -0.1536 C   0  0  0  0  0  0  0  0  0  0  0  0
    7.1132    1.2342    1.0342 C   0  0  0  0  0  0  0  0  0  0  0  0
    8.3027    0.5190    1.0586 C   0  0  0  0  0  0  0  0  0  0  0  0
    8.8663    0.0995   -0.1245 C   0  0  0  0  0  0  0  0  0  0  0  0
    8.2104    0.4147   -1.3111 C   0  0  0  0  0  0  0  0  0  0  0  0
    7.0302    1.1236   -1.3456 C   0  0  0  0  0  0  0  0  0  0  0  0
    1.9363   -1.3312    0.9649 C   0  0  0  0  0  0  0  0  0  0  0  0
    0.8543   -2.1661    1.0478 C   0  0  0  0  0  0  0  0  0  0  0  0
   -0.2823   -1.8395    0.3375 C   0  0  0  0  0  0  0  0  0  0  0  0
   -2.3459   -4.3066    1.2066 H   0  0  0  0  0  0  0  0  0  0  0  0
   -0.5372   -4.4733    0.8475 H   0  0  0  0  0  0  0  0  0  0  0  0
   -1.1262   -3.5396    2.2407 H   0  0  0  0  0  0  0  0  0  0  0  0
   -4.2540   -1.7561   -2.1679 H   0  0  0  0  0  0  0  0  0  0  0  0
   -3.4387   -0.3235   -2.8182 H   0  0  0  0  0  0  0  0  0  0  0  0
   -5.8018   -1.5823   -0.2561 H   0  0  0  0  0  0  0  0  0  0  0  0
   -7.3994   -0.1381    0.9633 H   0  0  0  0  0  0  0  0  0  0  0  0
   -9.2626    2.5627    2.1091 H   0  0  0  0  0  0  0  0  0  0  0  0
   -5.4685    3.2860   -0.5293 H   0  0  0  0  0  0  0  0  0  0  0  0
   -3.8838    1.8757   -1.7389 H   0  0  0  0  0  0  0  0  0  0  0  0
    0.7379    1.0315   -1.1212 H   0  0  0  0  0  0  0  0  0  0  0  0
    5.2116    3.0130    0.7941 H   0  0  0  0  0  0  0  0  0  0  0  0
    5.0680    2.8852   -1.0051 H   0  0  0  0  0  0  0  0  0  0  0  0
    6.7125    1.5409    1.9995 H   0  0  0  0  0  0  0  0  0  0  0  0
    8.7961    0.2846    1.9912 H   0  0  0  0  0  0  0  0  0  0  0  0
    9.8037   -0.4677   -0.1582 H   0  0  0  0  0  0  0  0  0  0  0  0
    8.6390    0.0927   -2.2547 H   0  0  0  0  0  0  0  0  0  0  0  0
    6.5255    1.3645   -2.2844 H   0  0  0  0  0  0  0  0  0  0  0  0
    2.8202   -1.6051    1.5305 H   0  0  0  0  0  0  0  0  0  0  0  0
    0.8262   -3.0690    1.6338 H   0  0  0  0  0  0  0  0  0  0  0  0
  1  2  1  0
  2  3  1  0
  3  4  2  0
  3  5  1  0
  5  6  1  0
  6  7  1  0
  7  8  2  0
  8  9  1  0
  9 10  2  0
 10 11  1  0
 11 12  2  0
 11 13  1  0
 10 14  1  0
 14 15  2  0
  5 16  1  0
 16 17  2  0
 16 18  1  0
 18 19  2  0
 19 20  1  0
 20 21  1  0
 21 22  3  0
 22 23  1  0
 23 24  1  0
 24 25  2  0
 25 26  1  0
 26 27  2  0
 27 28  1  0
 28 29  2  0
 20 30  2  0
 30 31  1  0
 31 32  2  0
 32  2  1  0
 15  7  1  0
 32 18  1  0
 29 24  1  0
  1 33  1  0
  1 34  1  0
  1 35  1  0
  6 36  1  0
  6 37  1  0
  8 38  1  0
  9 39  1  0
 13 40  1  0
 14 41  1  0
 15 42  1  0
 19 43  1  0
 23 44  1  0
 23 45  1  0
 25 46  1  0
 26 47  1  0
 27 48  1  0
 28 49  1  0
 29 50  1  0
 30 51  1  0
 31 52  1  0
M  END
$$$$
