@<TRIPOS>MOLECULE
*****
 49 51 0 0 0
SMALL
GASTEIGER

@<TRIPOS>ATOM
      1 C           8.4562    2.7894   -0.6787 C.2     1  UNL1       -0.0938
      2 C           7.8330    1.6489   -0.8838 C.2     1  UNL1       -0.0066
      3 C           6.4905    1.4827   -0.3630 C.2     1  UNL1        0.2405
      4 O           5.9192    2.4064    0.2772 O.2     1  UNL1       -0.2705
      5 N           5.7328    0.2869   -0.5327 N.am    1  UNL1       -0.2820
      6 C           4.4144    0.1343   -0.0157 C.ar    1  UNL1        0.0338
      7 C           4.1809   -0.3671    1.2476 C.ar    1  UNL1       -0.0386
      8 C           2.9110   -0.5217    1.7655 C.ar    1  UNL1       -0.0336
      9 C           1.7981   -0.1622    0.9968 C.ar    1  UNL1        0.1056
     10 S           0.1963   -0.3611    1.6661 S.O2    1  UNL1        0.0609
     11 O           0.2908   -0.1186    3.1603 O.2     1  UNL1       -0.1528
     12 O          -0.7324    0.7257    1.1454 O.2     1  UNL1       -0.1528
     13 N          -0.4525   -1.9252    1.3437 N.3     1  UNL1       -0.1736
     14 C          -0.5807   -2.1422   -0.0570 C.3     1  UNL1        0.0363
     15 C          -2.0204   -2.2577   -0.5139 C.3     1  UNL1        0.0280
     16 N          -2.9048   -1.3846    0.2145 N.pl3   1  UNL1       -0.3126
     17 C          -3.8854   -0.5365   -0.3745 C.ar    1  UNL1        0.1213
     18 C          -4.1929   -0.5184   -1.7158 C.ar    1  UNL1       -0.0212
     19 C          -5.1625    0.3435   -2.2481 C.ar    1  UNL1       -0.0454
     20 C          -5.8432    1.2095   -1.4227 C.ar    1  UNL1        0.0730
     21 C          -6.8862    2.1498   -1.9504 C.3     1  UNL1        0.4188
     22 F          -7.6422    2.5772   -0.8887 F       1  UNL1       -0.1658
     23 F          -7.6195    1.5549   -2.9415 F       1  UNL1       -0.1658
     24 F          -6.1963    3.2655   -2.4382 F       1  UNL1       -0.1658
     25 C          -5.5204    1.1752   -0.0844 C.ar    1  UNL1        0.0413
     26 N          -4.5903    0.3423    0.3972 N.ar    1  UNL1       -0.2398
     27 C          -2.7916   -1.3724    1.6611 C.3     1  UNL1        0.0280
     28 C          -1.6262   -2.1819    2.1050 C.3     1  UNL1        0.0363
     29 C           2.0197    0.3375   -0.2607 C.ar    1  UNL1       -0.0336
     30 C           3.3162    0.4861   -0.7669 C.ar    1  UNL1       -0.0386
     31 H           9.4768    2.9708   -1.0516 H       1  UNL1        0.0536
     32 H           7.9993    3.6026   -0.1362 H       1  UNL1        0.0536
     33 H           8.3242    0.8679   -1.4276 H       1  UNL1        0.0663
     34 H           6.1734   -0.4936   -1.0568 H       1  UNL1        0.1551
     35 H           5.0478   -0.6416    1.8334 H       1  UNL1        0.0637
     36 H           2.7271   -0.9136    2.7543 H       1  UNL1        0.0638
     37 H          -0.0449   -1.4156   -0.6860 H       1  UNL1        0.0459
     38 H          -0.1116   -3.1414   -0.2827 H       1  UNL1        0.0459
     39 H          -2.0190   -1.9531   -1.5780 H       1  UNL1        0.0477
     40 H          -2.3683   -3.3136   -0.5102 H       1  UNL1        0.0477
     41 H          -3.6651   -1.2015   -2.3851 H       1  UNL1        0.0652
     42 H          -5.3780    0.3308   -3.3068 H       1  UNL1        0.0625
     43 H          -6.0395    1.8447    0.5887 H       1  UNL1        0.0836
     44 H          -2.6655   -0.2891    1.9554 H       1  UNL1        0.0477
     45 H          -3.7451   -1.6666    2.1496 H       1  UNL1        0.0477
     46 H          -1.8891   -3.2595    2.0526 H       1  UNL1        0.0459
     47 H          -1.4015   -1.9011    3.1715 H       1  UNL1        0.0459
     48 H           1.1864    0.6248   -0.8742 H       1  UNL1        0.0638
     49 H           3.4813    0.8825   -1.7632 H       1  UNL1        0.0637
@<TRIPOS>BOND
     1     1     2    2
     2     2     3    1
     3     3     4    2
     4     3     5   am
     5     5     6    1
     6     6     7   ar
     7     7     8   ar
     8     8     9   ar
     9     9    10    1
    10    10    11    2
    11    10    12    2
    12    10    13    1
    13    13    14    1
    14    14    15    1
    15    15    16    1
    16    16    17    1
    17    17    18   ar
    18    18    19   ar
    19    19    20   ar
    20    20    21    1
    21    21    22    1
    22    21    23    1
    23    21    24    1
    24    20    25   ar
    25    25    26   ar
    26    16    27    1
    27    27    28    1
    28     9    29   ar
    29    29    30   ar
    30    30     6   ar
    31    28    13    1
    32    26    17   ar
    33     1    31    1
    34     1    32    1
    35     2    33    1
    36     5    34    1
    37     7    35    1
    38     8    36    1
    39    14    37    1
    40    14    38    1
    41    15    39    1
    42    15    40    1
    43    18    41    1
    44    19    42    1
    45    25    43    1
    46    27    44    1
    47    27    45    1
    48    28    46    1
    49    28    47    1
    50    29    48    1
    51    30    49    1
