
     RDKit          3D

 49 51  0  0  0  0  0  0  0  0999 V2000
    8.4562    2.7894   -0.6787 C   0  0  0  0  0  0  0  0  0  0  0  0
    7.8330    1.6489   -0.8838 C   0  0  0  0  0  0  0  0  0  0  0  0
    6.4905    1.4827   -0.3630 C   0  0  0  0  0  0  0  0  0  0  0  0
    5.9192    2.4064    0.2772 O   0  0  0  0  0  0  0  0  0  0  0  0
    5.7328    0.2869   -0.5327 N   0  0  0  0  0  0  0  0  0  0  0  0
    4.4144    0.1343   -0.0157 C   0  0  0  0  0  0  0  0  0  0  0  0
    4.1809   -0.3671    1.2476 C   0  0  0  0  0  0  0  0  0  0  0  0
    2.9110   -0.5217    1.7655 C   0  0  0  0  0  0  0  0  0  0  0  0
    1.7981   -0.1622    0.9968 C   0  0  0  0  0  0  0  0  0  0  0  0
    0.1963   -0.3611    1.6661 S   0  0  0  0  0  6  0  0  0  0  0  0
    0.2908   -0.1186    3.1603 O   0  0  0  0  0  0  0  0  0  0  0  0
   -0.7324    0.7257    1.1454 O   0  0  0  0  0  0  0  0  0  0  0  0
   -0.4525   -1.9252    1.3437 N   0  0  0  0  0  0  0  0  0  0  0  0
   -0.5807   -2.1422   -0.0570 C   0  0  0  0  0  0  0  0  0  0  0  0
   -2.0204   -2.2577   -0.5139 C   0  0  0  0  0  0  0  0  0  0  0  0
   -2.9048   -1.3846    0.2145 N   0  0  0  0  0  0  0  0  0  0  0  0
   -3.8854   -0.5365   -0.3745 C   0  0  0  0  0  0  0  0  0  0  0  0
   -4.1929   -0.5184   -1.7158 C   0  0  0  0  0  0  0  0  0  0  0  0
   -5.1625    0.3435   -2.2481 C   0  0  0  0  0  0  0  0  0  0  0  0
   -5.8432    1.2095   -1.4227 C   0  0  0  0  0  0  0  0  0  0  0  0
   -6.8862    2.1498   -1.9504 C   0  0  0  0  0  0  0  0  0  0  0  0
   -7.6422    2.5772   -0.8887 F   0  0  0  0  0  0  0  0  0  0  0  0
   -7.6195    1.5549   -2.9415 F   0  0  0  0  0  0  0  0  0  0  0  0
   -6.1963    3.2655   -2.4382 F   0  0  0  0  0  0  0  0  0  0  0  0
   -5.5204    1.1752   -0.0844 C   0  0  0  0  0  0  0  0  0  0  0  0
   -4.5903    0.3423    0.3972 N   0  0  0  0  0  0  0  0  0  0  0  0
   -2.7916   -1.3724    1.6611 C   0  0  0  0  0  0  0  0  0  0  0  0
   -1.6262   -2.1819    2.1050 C   0  0  0  0  0  0  0  0  0  0  0  0
    2.0197    0.3375   -0.2607 C   0  0  0  0  0  0  0  0  0  0  0  0
    3.3162    0.4861   -0.7669 C   0  0  0  0  0  0  0  0  0  0  0  0
    9.4768    2.9708   -1.0516 H   0  0  0  0  0  0  0  0  0  0  0  0
    7.9993    3.6026   -0.1362 H   0  0  0  0  0  0  0  0  0  0  0  0
    8.3242    0.8679   -1.4276 H   0  0  0  0  0  0  0  0  0  0  0  0
    6.1734   -0.4936   -1.0568 H   0  0  0  0  0  0  0  0  0  0  0  0
    5.0478   -0.6416    1.8334 H   0  0  0  0  0  0  0  0  0  0  0  0
    2.7271   -0.9136    2.7543 H   0  0  0  0  0  0  0  0  0  0  0  0
   -0.0449   -1.4156   -0.6860 H   0  0  0  0  0  0  0  0  0  0  0  0
   -0.1116   -3.1414   -0.2827 H   0  0  0  0  0  0  0  0  0  0  0  0
   -2.0190   -1.9531   -1.5780 H   0  0  0  0  0  0  0  0  0  0  0  0
   -2.3683   -3.3136   -0.5102 H   0  0  0  0  0  0  0  0  0  0  0  0
   -3.6651   -1.2015   -2.3851 H   0  0  0  0  0  0  0  0  0  0  0  0
   -5.3780    0.3308   -3.3068 H   0  0  0  0  0  0  0  0  0  0  0  0
   -6.0395    1.8447    0.5887 H   0  0  0  0  0  0  0  0  0  0  0  0
   -2.6655   -0.2891    1.9554 H   0  0  0  0  0  0  0  0  0  0  0  0
   -3.7451   -1.6666    2.1496 H   0  0  0  0  0  0  0  0  0  0  0  0
   -1.8891   -3.2595    2.0526 H   0  0  0  0  0  0  0  0  0  0  0  0
   -1.4015   -1.9011    3.1715 H   0  0  0  0  0  0  0  0  0  0  0  0
    1.1864    0.6248   -0.8742 H   0  0  0  0  0  0  0  0  0  0  0  0
    3.4813    0.8825   -1.7632 H   0  0  0  0  0  0  0  0  0  0  0  0
  1  2  2  3
  2  3  1  0
  3  4  2  0
  3  5  1  0
  5  6  1  0
  6  7  2  0
  7  8  1  0
  8  9  2  0
  9 10  1  0
 10 11  2  0
 10 12  2  0
 10 13  1  0
 13 14  1  0
 14 15  1  0
 15 16  1  0
 16 17  1  0
 17 18  2  0
 18 19  1  0
 19 20  2  0
 20 21  1  0
 21 22  1  0
 21 23  1  0
 21 24  1  0
 20 25  1  0
 25 26  2  0
 16 27  1  0
 27 28  1  0
  9 29  1  0
 29 30  2  0
 30  6  1  0
 28 13  1  0
 26 17  1  0
  1 31  1  0
  1 32  1  0
  2 33  1  0
  5 34  1  0
  7 35  1  0
  8 36  1  0
 14 37  1  0
 14 38  1  0
 15 39  1  0
 15 40  1  0
 18 41  1  0
 19 42  1  0
 25 43  1  0
 27 44  1  0
 27 45  1  0
 28 46  1  0
 28 47  1  0
 29 48  1  0
 30 49  1  0
M  END
$$$$
