@<TRIPOS>MOLECULE
*****
 139 144 0 0 0
SMALL
GASTEIGER

@<TRIPOS>ATOM
      1 C           9.2595    3.3853   -4.5592 C.3     1  UNL1        0.0790
      2 O           9.4131    3.3138   -3.1666 O.3     1  UNL1       -0.4914
      3 C           9.0780    2.2386   -2.3654 C.ar    1  UNL1        0.1618
      4 C           8.5476    1.0828   -2.8836 C.ar    1  UNL1       -0.0125
      5 C           8.2659    0.1132   -1.9715 C.ar    1  UNL1       -0.0302
      6 C           8.4351    0.1127   -0.5986 C.ar    1  UNL1        0.0076
      7 C           8.9784    1.3346   -0.1753 C.ar    1  UNL1       -0.0075
      8 C           9.2951    2.3730   -1.0144 C.ar    1  UNL1        0.1620
      9 O           9.8230    3.5470   -0.5360 O.3     1  UNL1       -0.4914
     10 C          10.1166    3.8883    0.7798 C.3     1  UNL1        0.0790
     11 C           8.0535   -1.0876    0.1113 C.3     1  UNL1        0.0110
     12 C           8.3957   -1.2518    1.5327 C.3     1  UNL1        0.0201
     13 C           9.8152   -1.3027    1.9053 C.ar    1  UNL1       -0.0380
     14 C          10.7659   -0.4144    2.3425 C.ar    1  UNL1       -0.0129
     15 C          12.0501   -0.7707    2.6395 C.ar    1  UNL1        0.1617
     16 O          13.0002    0.1303    3.0759 O.3     1  UNL1       -0.4914
     17 C          12.6637    1.4773    3.2362 C.3     1  UNL1        0.0790
     18 C          12.5168   -2.0612    2.5299 C.ar    1  UNL1        0.1615
     19 O          13.8139   -2.4627    2.8263 O.3     1  UNL1       -0.4915
     20 C          14.1900   -3.8378    2.6785 C.3     1  UNL1        0.0790
     21 C          11.6348   -3.0207    2.0963 C.ar    1  UNL1       -0.0160
     22 C          10.3291   -2.6161    1.8027 C.ar    1  UNL1       -0.0547
     23 N           6.7630   -1.5930   -0.3170 N.4     1  UNL1        0.2474
     24 C           7.0074   -3.0811   -0.5501 C.3     1  UNL1       -0.0407
     25 C           5.7437   -1.5911    0.6385 C.3     1  UNL1       -0.0195
     26 C           4.7592   -0.5273    0.8872 C.3     1  UNL1        0.0850
     27 C           3.7155   -0.2176   -0.0470 C.2     1  UNL1        0.3122
     28 O           3.6150   -0.9844   -1.0039 O.2     1  UNL1       -0.2506
     29 O           2.6857    0.2132   -0.8290 O.3     1  UNL1       -0.4645
     30 C           2.1610   -0.2792   -1.9935 C.3     1  UNL1        0.0925
     31 C           0.9837    0.5474   -2.4232 C.3     1  UNL1       -0.0184
     32 C          -0.0890    0.5233   -1.3248 C.3     1  UNL1       -0.0469
     33 C          -0.4551   -0.8753   -1.0541 C.3     1  UNL1       -0.0184
     34 C          -1.5199   -1.1858   -0.0471 C.3     1  UNL1        0.0925
     35 O          -2.7701   -0.8420   -0.1746 O.3     1  UNL1       -0.4645
     36 C          -3.9917   -0.4870   -0.2988 C.2     1  UNL1        0.3122
     37 O          -2.9626    0.2447   -0.1511 O.2     1  UNL1       -0.2506
     38 C          -5.3196   -1.0889   -0.4719 C.3     1  UNL1        0.0850
     39 C          -6.4167   -0.6812    0.4480 C.3     1  UNL1       -0.0195
     40 N          -6.7854    0.6905    0.4637 N.4     1  UNL1        0.2474
     41 C          -5.5537    1.3808    0.9511 C.3     1  UNL1       -0.0407
     42 C          -6.8851    1.1901   -0.9353 C.3     1  UNL1       -0.0256
     43 C          -8.2120    0.7630   -1.5262 C.3     1  UNL1        0.0133
     44 C          -9.1330    1.8421   -1.0061 C.ar    1  UNL1       -0.0302
     45 C          -8.8627    1.9923    0.3509 C.ar    1  UNL1        0.0076
     46 C          -9.5992    3.0002    0.9937 C.ar    1  UNL1       -0.0075
     47 C         -10.5165    3.7921    0.3798 C.ar    1  UNL1        0.1620
     48 O         -11.2902    4.7941    0.8766 O.3     1  UNL1       -0.4914
     49 C         -11.2528    5.1999    2.2117 C.3     1  UNL1        0.0790
     50 C         -10.7452    3.5895   -0.9844 C.ar    1  UNL1        0.1618
     51 O         -11.6524    4.3263   -1.7088 O.3     1  UNL1       -0.4914
     52 C         -11.7878    4.0220   -3.0777 C.3     1  UNL1        0.0790
     53 C         -10.0492    2.6143   -1.6653 C.ar    1  UNL1       -0.0125
     54 C          -7.8787    1.1423    1.1863 C.3     1  UNL1        0.0110
     55 C          -8.7092    0.3384    2.0929 C.3     1  UNL1        0.0201
     56 C          -9.5050   -0.7936    1.6483 C.ar    1  UNL1       -0.0380
     57 C          -9.4211   -2.1687    1.5147 C.ar    1  UNL1       -0.0129
     58 C         -10.3687   -3.0177    1.0706 C.ar    1  UNL1        0.1617
     59 O         -10.1226   -4.3572    1.0046 O.3     1  UNL1       -0.4914
     60 C          -8.9101   -4.9656    1.3697 C.3     1  UNL1        0.0790
     61 C         -11.5954   -2.5465    0.6801 C.ar    1  UNL1        0.1615
     62 O         -12.5298   -3.4590    0.2340 O.3     1  UNL1       -0.4915
     63 C         -13.8055   -2.9637   -0.1683 C.3     1  UNL1        0.0790
     64 C         -11.8269   -1.1919    0.7569 C.ar    1  UNL1       -0.0160
     65 C         -10.7953   -0.3791    1.2280 C.ar    1  UNL1       -0.0547
     66 C           6.3385   -1.1832   -1.6116 C.3     1  UNL1       -0.0256
     67 C           7.6317   -1.1507   -2.4977 C.3     1  UNL1        0.0133
     68 H           9.2537    2.3627   -4.9834 H       1  UNL1        0.0660
     69 H           8.2738    3.8402   -4.8391 H       1  UNL1        0.0660
     70 H          10.1037    3.9030   -5.0697 H       1  UNL1        0.0660
     71 H           8.3517    0.9156   -3.9355 H       1  UNL1        0.0658
     72 H           9.1222    1.4388    0.8627 H       1  UNL1        0.0660
     73 H           9.2744    4.3750    1.3128 H       1  UNL1        0.0660
     74 H          11.0112    4.5754    0.8455 H       1  UNL1        0.0660
     75 H          10.4182    3.0082    1.3888 H       1  UNL1        0.0660
     76 H           8.7874   -1.8735   -0.3844 H       1  UNL1        0.0908
     77 H           7.9303   -2.1560    2.0028 H       1  UNL1        0.0372
     78 H           7.8786   -0.4432    2.1836 H       1  UNL1        0.0372
     79 H          10.4205    0.5669    2.4536 H       1  UNL1        0.0658
     80 H          13.5188    2.1106    3.5596 H       1  UNL1        0.0660
     81 H          11.7900    1.6296    3.9143 H       1  UNL1        0.0660
     82 H          12.3486    1.8615    2.2355 H       1  UNL1        0.0660
     83 H          15.2397   -4.0060    2.8773 H       1  UNL1        0.0660
     84 H          13.5278   -4.5072    3.2862 H       1  UNL1        0.0660
     85 H          13.9956   -4.1246    1.6311 H       1  UNL1        0.0660
     86 H          11.9418   -4.0453    1.9809 H       1  UNL1        0.0655
     87 H           9.7233   -3.4746    1.4693 H       1  UNL1        0.0621
     88 H           6.2265   -3.4879   -1.2064 H       1  UNL1        0.0778
     89 H           6.8924   -3.5216    0.4525 H       1  UNL1        0.0778
     90 H           8.0287   -3.2623   -0.8610 H       1  UNL1        0.0778
     91 H           6.0379   -2.1306    1.6093 H       1  UNL1        0.0820
     92 H           5.0264   -2.4590    0.2419 H       1  UNL1        0.0820
     93 H           5.2392    0.4618    1.1724 H       1  UNL1        0.0431
     94 H           4.2380   -0.8264    1.8779 H       1  UNL1        0.0431
     95 H           1.8958   -1.3671   -1.9342 H       1  UNL1        0.0697
     96 H           2.9234   -0.1830   -2.8493 H       1  UNL1        0.0697
     97 H           1.3314    1.6091   -2.5629 H       1  UNL1        0.0298
     98 H           0.6077    0.1438   -3.3591 H       1  UNL1        0.0298
     99 H          -0.9346    1.1969   -1.6563 H       1  UNL1        0.0267
    100 H           0.3403    1.0563   -0.4515 H       1  UNL1        0.0267
    101 H           0.4750   -1.3742   -0.6129 H       1  UNL1        0.0298
    102 H          -0.6239   -1.4757   -2.0003 H       1  UNL1        0.0298
    103 H          -1.1129   -0.7071    0.9329 H       1  UNL1        0.0697
    104 H          -1.4354   -2.2967    0.2370 H       1  UNL1        0.0697
    105 H          -5.5971   -1.0567   -1.5493 H       1  UNL1        0.0431
    106 H          -5.1824   -2.2069   -0.2973 H       1  UNL1        0.0431
    107 H          -7.2990   -1.2849    0.0977 H       1  UNL1        0.0820
    108 H          -6.0817   -0.9488    1.4654 H       1  UNL1        0.0820
    109 H          -5.8964    2.1895    1.6657 H       1  UNL1        0.0778
    110 H          -5.0340    1.9148    0.1702 H       1  UNL1        0.0778
    111 H          -4.9574    0.7109    1.5996 H       1  UNL1        0.0778
    112 H          -6.0043    0.9312   -1.5327 H       1  UNL1        0.0818
    113 H          -6.8824    2.2903   -0.8502 H       1  UNL1        0.0818
    114 H          -8.6120   -0.1526   -1.0877 H       1  UNL1        0.0365
    115 H          -8.0878    0.7785   -2.6064 H       1  UNL1        0.0365
    116 H          -9.4442    3.1695    2.0520 H       1  UNL1        0.0660
    117 H         -10.4971    4.6577    2.7959 H       1  UNL1        0.0660
    118 H         -12.2595    5.0733    2.6882 H       1  UNL1        0.0660
    119 H         -10.9784    6.2848    2.3195 H       1  UNL1        0.0660
    120 H         -12.0009    2.9294   -3.2022 H       1  UNL1        0.0660
    121 H         -12.6255    4.6261   -3.4970 H       1  UNL1        0.0660
    122 H         -10.8627    4.2021   -3.6631 H       1  UNL1        0.0660
    123 H         -10.1201    2.3486   -2.7076 H       1  UNL1        0.0658
    124 H          -7.4852    1.9893    1.8641 H       1  UNL1        0.0908
    125 H          -8.0920   -0.0786    2.9651 H       1  UNL1        0.0372
    126 H          -9.4051    1.0244    2.7042 H       1  UNL1        0.0372
    127 H          -8.4057   -2.4272    1.8613 H       1  UNL1        0.0658
    128 H          -8.0697   -4.4086    0.8825 H       1  UNL1        0.0660
    129 H          -8.8382   -6.0115    1.0475 H       1  UNL1        0.0660
    130 H          -8.8009   -4.8709    2.4587 H       1  UNL1        0.0660
    131 H         -14.3346   -2.4350    0.6479 H       1  UNL1        0.0660
    132 H         -14.4062   -3.7426   -0.6403 H       1  UNL1        0.0660
    133 H         -13.5890   -2.1740   -0.9489 H       1  UNL1        0.0660
    134 H         -12.7942   -0.8627    0.4464 H       1  UNL1        0.0655
    135 H         -11.1605    0.6508    1.2199 H       1  UNL1        0.0621
    136 H           5.7547   -1.9782   -2.1278 H       1  UNL1        0.0818
    137 H           5.9584   -0.1660   -1.7156 H       1  UNL1        0.0818
    138 H           8.2297   -2.0314   -2.3980 H       1  UNL1        0.0365
    139 H           7.2669   -1.0347   -3.5155 H       1  UNL1        0.0365
@<TRIPOS>UNITY_ATOM_ATTR
23 1
charge 1
40 1
charge 1
@<TRIPOS>BOND
     1     1     2    1
     2     2     3    1
     3     3     4   ar
     4     4     5   ar
     5     5     6   ar
     6     6     7   ar
     7     7     8   ar
     8     8     9    1
     9     9    10    1
    10     6    11    1
    11    11    12    1
    12    12    13    1
    13    13    14   ar
    14    14    15   ar
    15    15    16    1
    16    16    17    1
    17    15    18   ar
    18    18    19    1
    19    19    20    1
    20    18    21   ar
    21    21    22   ar
    22    11    23    1
    23    23    24    1
    24    23    25    1
    25    25    26    1
    26    26    27    1
    27    27    28    2
    28    27    29    1
    29    29    30    1
    30    30    31    1
    31    31    32    1
    32    32    33    1
    33    33    34    1
    34    34    35    1
    35    35    36    1
    36    36    37    2
    37    36    38    1
    38    38    39    1
    39    40    39    1
    40    40    41    1
    41    40    42    1
    42    42    43    1
    43    43    44    1
    44    44    45   ar
    45    45    46   ar
    46    46    47   ar
    47    47    48    1
    48    48    49    1
    49    47    50   ar
    50    50    51    1
    51    51    52    1
    52    50    53   ar
    53    45    54    1
    54    54    55    1
    55    55    56    1
    56    56    57   ar
    57    57    58   ar
    58    58    59    1
    59    59    60    1
    60    58    61   ar
    61    61    62    1
    62    62    63    1
    63    61    64   ar
    64    64    65   ar
    65    23    66    1
    66    66    67    1
    67     8     3   ar
    68    22    13   ar
    69    54    40    1
    70    65    56   ar
    71    67     5    1
    72    53    44   ar
    73     1    68    1
    74     1    69    1
    75     1    70    1
    76     4    71    1
    77     7    72    1
    78    10    73    1
    79    10    74    1
    80    10    75    1
    81    11    76    1
    82    12    77    1
    83    12    78    1
    84    14    79    1
    85    17    80    1
    86    17    81    1
    87    17    82    1
    88    20    83    1
    89    20    84    1
    90    20    85    1
    91    21    86    1
    92    22    87    1
    93    24    88    1
    94    24    89    1
    95    24    90    1
    96    25    91    1
    97    25    92    1
    98    26    93    1
    99    26    94    1
   100    30    95    1
   101    30    96    1
   102    31    97    1
   103    31    98    1
   104    32    99    1
   105    32   100    1
   106    33   101    1
   107    33   102    1
   108    34   103    1
   109    34   104    1
   110    38   105    1
   111    38   106    1
   112    39   107    1
   113    39   108    1
   114    41   109    1
   115    41   110    1
   116    41   111    1
   117    42   112    1
   118    42   113    1
   119    43   114    1
   120    43   115    1
   121    46   116    1
   122    49   117    1
   123    49   118    1
   124    49   119    1
   125    52   120    1
   126    52   121    1
   127    52   122    1
   128    53   123    1
   129    54   124    1
   130    55   125    1
   131    55   126    1
   132    57   127    1
   133    60   128    1
   134    60   129    1
   135    60   130    1
   136    63   131    1
   137    63   132    1
   138    63   133    1
   139    64   134    1
   140    65   135    1
   141    66   136    1
   142    66   137    1
   143    67   138    1
   144    67   139    1
