@<TRIPOS>MOLECULE
*****
 55 60 0 0 0
SMALL
GASTEIGER

@<TRIPOS>ATOM
      1 C          -3.1626   -0.6049   -3.4925 C.3     1  UNL1       -0.0598
      2 C          -3.6705    0.2782   -2.3452 C.3     1  UNL1       -0.0111
      3 C          -3.0354   -0.2943   -1.1032 C.ar    1  UNL1        0.0688
      4 N          -3.6855   -1.0862   -0.2152 N.ar    1  UNL1       -0.1749
      5 N          -2.8928   -1.4758    0.7657 N.ar    1  UNL1       -0.2556
      6 C          -3.1910   -2.3167    1.9039 C.3     1  UNL1        0.0537
      7 C          -4.0502   -1.8955    3.0108 C.3     1  UNL1       -0.0285
      8 C          -4.6193   -2.8299    1.9915 C.3     1  UNL1       -0.0285
      9 C          -1.6904   -0.9185    0.4979 C.ar    1  UNL1        0.1297
     10 C          -1.7571   -0.1770   -0.6479 C.ar    1  UNL1        0.0307
     11 C          -0.4503    0.5461   -0.8453 C.3     1  UNL1        0.0854
     12 C          -0.5944    1.8758   -0.1191 C.ar    1  UNL1       -0.0221
     13 C          -1.8355    2.4477    0.0520 C.ar    1  UNL1       -0.0551
     14 C          -1.9770    3.6425    0.7112 C.ar    1  UNL1       -0.0431
     15 C          -0.8835    4.2949    1.2156 C.ar    1  UNL1        0.0410
     16 CL         -1.0609    5.8334    2.0639 Cl      1  UNL1       -0.0835
     17 C           0.3718    3.7677    1.0721 C.ar    1  UNL1       -0.0431
     18 C           0.4834    2.5539    0.3987 C.ar    1  UNL1       -0.0551
     19 N           0.5100   -0.2160   -0.0843 N.am    1  UNL1       -0.2531
     20 C           1.9407   -0.2757   -0.2733 C.ar    1  UNL1        0.0545
     21 C           2.4466    0.3317   -1.4220 C.ar    1  UNL1       -0.0324
     22 C           3.7986    0.3148   -1.6660 C.ar    1  UNL1       -0.0041
     23 C           4.4169    0.9388   -2.8667 C.3     1  UNL1       -0.0361
     24 C           4.5976   -0.3235   -0.7278 C.ar    1  UNL1        0.1641
     25 N           5.9366   -0.5216   -0.6567 N.ar    1  UNL1       -0.1292
     26 N           6.2178   -1.1933    0.4435 N.ar    1  UNL1       -0.1340
     27 C           5.0784   -1.4497    1.1154 C.ar    1  UNL1        0.1347
     28 C           4.9327   -2.1837    2.4095 C.3     1  UNL1       -0.0041
     29 N           4.0963   -0.8999    0.3664 N.ar    1  UNL1       -0.2846
     30 C           2.7570   -0.8968    0.6319 C.ar    1  UNL1        0.0344
     31 C          -0.2613   -0.9412    0.8839 C.2     1  UNL1        0.2700
     32 O           0.1502   -1.5135    1.8978 O.2     1  UNL1       -0.2679
     33 H          -3.7417   -1.5569   -3.4617 H       1  UNL1        0.0233
     34 H          -2.0759   -0.7719   -3.3115 H       1  UNL1        0.0233
     35 H          -3.2908   -0.0614   -4.4555 H       1  UNL1        0.0233
     36 H          -4.7687    0.1400   -2.3119 H       1  UNL1        0.0326
     37 H          -3.3393    1.3022   -2.5086 H       1  UNL1        0.0326
     38 H          -2.4375   -3.1172    2.1579 H       1  UNL1        0.0545
     39 H          -4.5554   -0.9080    3.0590 H       1  UNL1        0.0286
     40 H          -3.8278   -2.2860    4.0417 H       1  UNL1        0.0286
     41 H          -4.7977   -3.8959    2.2203 H       1  UNL1        0.0286
     42 H          -5.3470   -2.4280    1.2455 H       1  UNL1        0.0286
     43 H          -0.1925    0.7088   -1.8824 H       1  UNL1        0.0606
     44 H          -2.7226    1.9810   -0.3141 H       1  UNL1        0.0621
     45 H          -2.9630    4.0963    0.8461 H       1  UNL1        0.0632
     46 H           1.2573    4.2408    1.4502 H       1  UNL1        0.0632
     47 H           1.4851    2.1658    0.3160 H       1  UNL1        0.0621
     48 H           1.7955    0.8334   -2.1522 H       1  UNL1        0.0640
     49 H           5.1456    0.2625   -3.3499 H       1  UNL1        0.0279
     50 H           4.8309    1.9404   -2.6593 H       1  UNL1        0.0279
     51 H           3.5786    1.0990   -3.5917 H       1  UNL1        0.0279
     52 H           3.8828   -2.0961    2.7302 H       1  UNL1        0.0308
     53 H           5.1436   -3.2688    2.2612 H       1  UNL1        0.0308
     54 H           5.6453   -1.8193    3.1738 H       1  UNL1        0.0308
     55 H           2.3782   -1.3723    1.5302 H       1  UNL1        0.0833
@<TRIPOS>BOND
     1     1     2    1
     2     2     3    1
     3     3     4   ar
     4     4     5   ar
     5     5     6    1
     6     6     7    1
     7     7     8    1
     8     5     9   ar
     9     9    10   ar
    10    10    11    1
    11    11    12    1
    12    12    13   ar
    13    13    14   ar
    14    14    15   ar
    15    15    16    1
    16    15    17   ar
    17    17    18   ar
    18    11    19    1
    19    19    20    1
    20    20    21   ar
    21    21    22   ar
    22    22    23    1
    23    22    24   ar
    24    24    25   ar
    25    25    26   ar
    26    26    27   ar
    27    27    28    1
    28    27    29   ar
    29    29    30   ar
    30    19    31   am
    31    31    32    2
    32    10     3   ar
    33    18    12   ar
    34    30    20   ar
    35     8     6    1
    36    31     9    1
    37    29    24   ar
    38     1    33    1
    39     1    34    1
    40     1    35    1
    41     2    36    1
    42     2    37    1
    43     6    38    1
    44     7    39    1
    45     7    40    1
    46     8    41    1
    47     8    42    1
    48    11    43    1
    49    13    44    1
    50    14    45    1
    51    17    46    1
    52    18    47    1
    53    21    48    1
    54    23    49    1
    55    23    50    1
    56    23    51    1
    57    28    52    1
    58    28    53    1
    59    28    54    1
    60    30    55    1
