
     RDKit          3D

229234  0  0  0  0  0  0  0  0999 V2000
   -6.4647    0.9954   -4.7381 C   0  0  0  0  0  0  0  0  0  0  0  0
   -5.3794    1.6573   -3.9428 C   0  0  0  0  0  0  0  0  0  0  0  0
   -5.9187    2.4387   -2.7459 C   0  0  0  0  0  0  0  0  0  0  0  0
   -4.7506    3.0441   -2.0618 C   0  0  0  0  0  0  0  0  0  0  0  0
   -5.1985    3.8877   -0.8493 C   0  0  2  0  0  0  0  0  0  0  0  0
   -3.9177    4.4137   -0.3158 N   0  0  0  0  0  0  0  0  0  0  0  0
   -3.6434    5.8003   -0.6602 C   0  0  0  0  0  0  0  0  0  0  0  0
   -4.5122    6.4078   -1.3862 O   0  0  0  0  0  0  0  0  0  0  0  0
   -2.5631    6.7380   -0.3729 C   0  0  2  0  0  0  0  0  0  0  0  0
   -1.8919    7.0185   -1.7344 C   0  0  0  0  0  0  0  0  0  0  0  0
   -0.9218    7.9840   -1.6104 O   0  0  0  0  0  0  0  0  0  0  0  0
   -1.5846    6.2923    0.5739 N   0  0  0  0  0  0  0  0  0  0  0  0
   -1.0117    7.4024    1.3099 C   0  0  0  0  0  0  0  0  0  0  0  0
   -1.3372    8.6253    1.1187 O   0  0  0  0  0  0  0  0  0  0  0  0
    0.0203    7.3612    2.3830 C   0  0  2  0  0  0  0  0  0  0  0  0
    1.3356    7.8958    1.8346 C   0  0  0  0  0  0  0  0  0  0  0  0
    2.3775    7.8627    2.8617 C   0  0  0  0  0  0  0  0  0  0  0  0
    2.7169    8.8740    3.7547 C   0  0  0  0  0  0  0  0  0  0  0  0
    3.7237    8.6272    4.6467 C   0  0  0  0  0  0  0  0  0  0  0  0
    4.4360    7.4568    4.7370 C   0  0  0  0  0  0  0  0  0  0  0  0
    5.4570    7.2426    5.6626 O   0  0  0  0  0  0  0  0  0  0  0  0
    4.0899    6.4426    3.8363 C   0  0  0  0  0  0  0  0  0  0  0  0
    3.0750    6.6753    2.9294 C   0  0  0  0  0  0  0  0  0  0  0  0
    0.1746    5.9735    2.7593 N   0  0  0  0  0  0  0  0  0  0  0  0
   -0.0008    5.7266    4.1656 C   0  0  0  0  0  0  0  0  0  0  0  0
   -0.2541    6.6546    5.0074 O   0  0  0  0  0  0  0  0  0  0  0  0
    0.0368    4.4988    5.0331 C   0  0  2  0  0  0  0  0  0  0  0  0
    1.2822    4.5347    5.9282 C   0  0  0  0  0  0  0  0  0  0  0  0
    1.3284    3.3584    6.6380 O   0  0  0  0  0  0  0  0  0  0  0  0
    0.2106    3.3612    4.1780 N   0  0  0  0  0  0  0  0  0  0  0  0
   -0.8010    2.3622    4.2717 C   0  0  0  0  0  0  0  0  0  0  0  0
   -0.7697    1.1222    3.4511 C   0  0  0  0  0  0  0  0  0  0  0  0
   -1.7898    2.4511    5.0495 O   0  0  0  0  0  0  0  0  0  0  0  0
   -5.7948    2.9602    0.1263 C   0  0  0  0  0  0  0  0  0  0  0  0
   -7.0066    2.8401   -0.1794 O   0  0  0  0  0  0  0  0  0  0  0  0
   -5.1974    2.2912    1.2228 N   0  0  0  0  0  0  0  0  0  0  0  0
   -5.7256    1.4195    2.2031 C   0  0  1  0  0  0  0  0  0  0  0  0
   -7.1574    1.9855    2.5095 C   0  0  0  0  0  0  0  0  0  0  0  0
   -6.9398    3.3904    3.0118 C   0  0  0  0  0  0  0  0  0  0  0  0
   -8.2198    4.0724    3.3643 C   0  0  0  0  0  0  0  0  0  0  0  0
   -9.5533    3.6194    3.2647 O   0  0  0  0  0  0  0  0  0  0  0  0
   -8.5161    5.1960    3.8353 O   0  0  0  0  0  0  0  0  0  0  0  0
   -5.9068    0.0252    1.9062 C   0  0  0  0  0  0  0  0  0  0  0  0
   -6.4671   -0.4457    2.9661 O   0  0  0  0  0  0  0  0  0  0  0  0
   -5.6716   -0.9108    0.8557 N   0  0  0  0  0  0  0  0  0  0  0  0
   -6.0886   -2.3264    0.9919 C   0  0  1  0  0  0  0  0  0  0  0  0
   -7.4073   -2.5007    0.2916 C   0  0  0  0  0  0  0  0  0  0  0  0
   -7.9043   -3.8711    0.3731 C   0  0  0  0  0  0  0  0  0  0  0  0
   -7.8840   -5.0317   -0.4198 C   0  0  0  0  0  0  0  0  0  0  0  0
   -8.5913   -6.0152    0.1754 N   0  0  0  0  0  0  0  0  0  0  0  0
   -9.0792   -5.5661    1.3229 C   0  0  0  0  0  0  0  0  0  0  0  0
   -8.6718   -4.2925    1.4415 N   0  0  0  0  0  0  0  0  0  0  0  0
   -5.1033   -3.3068    0.6458 C   0  0  0  0  0  0  0  0  0  0  0  0
   -5.7542   -4.3975    0.8426 O   0  0  0  0  0  0  0  0  0  0  0  0
   -3.7629   -3.5875    0.1926 N   0  0  0  0  0  0  0  0  0  0  0  0
   -3.5185   -5.0032    0.0386 C   0  0  2  0  0  0  0  0  0  0  0  0
   -2.9939   -5.4094    1.4619 C   0  0  0  0  0  0  0  0  0  0  0  0
   -1.7496   -4.6449    1.7756 C   0  0  0  0  0  0  0  0  0  0  0  0
   -0.5374   -5.2359    1.4969 C   0  0  0  0  0  0  0  0  0  0  0  0
    0.6888   -4.6412    1.7263 C   0  0  0  0  0  0  0  0  0  0  0  0
    0.7306   -3.3545    2.2771 C   0  0  0  0  0  0  0  0  0  0  0  0
   -0.4890   -2.7749    2.5507 C   0  0  0  0  0  0  0  0  0  0  0  0
   -1.7106   -3.3758    2.3189 C   0  0  0  0  0  0  0  0  0  0  0  0
   -2.4198   -5.2699   -0.9205 C   0  0  0  0  0  0  0  0  0  0  0  0
   -1.9835   -4.1107   -0.6011 O   0  0  0  0  0  0  0  0  0  0  0  0
   -1.9443   -6.2691   -1.8223 N   0  0  0  0  0  0  0  0  0  0  0  0
   -0.6874   -5.7280   -2.3673 C   0  0  1  0  0  0  0  0  0  0  0  0
    0.2487   -6.8501   -2.6955 C   0  0  0  0  0  0  0  0  0  0  0  0
    0.6140   -7.7490   -1.5605 C   0  0  0  0  0  0  0  0  0  0  0  0
   -0.4967   -8.4813   -0.9061 C   0  0  0  0  0  0  0  0  0  0  0  0
   -1.2517   -9.3629   -1.7805 N   0  0  0  0  0  0  0  0  0  0  0  0
   -2.3529  -10.0593   -1.1366 C   0  0  0  0  0  0  0  0  0  0  0  0
   -3.5428  -10.4009   -1.8868 N   0  0  0  0  0  0  0  0  0  0  0  0
   -2.1712  -10.3299    0.1328 N   0  0  0  0  0  0  0  0  0  0  0  0
   -1.0085   -4.9745   -3.6371 C   0  0  0  0  0  0  0  0  0  0  0  0
   -1.9398   -4.9317   -4.5027 O   0  0  0  0  0  0  0  0  0  0  0  0
   -0.0548   -4.0095   -4.0441 N   0  0  0  0  0  0  0  0  0  0  0  0
    0.0842   -3.0466   -5.1400 C   0  0  1  0  0  0  0  0  0  0  0  0
   -0.4602   -1.7121   -4.7470 C   0  0  0  0  0  0  0  0  0  0  0  0
   -0.4082   -0.6516   -5.7496 C   0  0  0  0  0  0  0  0  0  0  0  0
   -1.5131   -0.4412   -6.6048 C   0  0  0  0  0  0  0  0  0  0  0  0
   -1.3497    0.5313   -7.5185 N   0  0  0  0  0  0  0  0  0  0  0  0
   -0.1191    1.0167   -7.3122 C   0  0  0  0  0  0  0  0  0  0  0  0
    0.7433    1.9924   -7.8169 C   0  0  0  0  0  0  0  0  0  0  0  0
    1.9907    2.2637   -7.3685 C   0  0  0  0  0  0  0  0  0  0  0  0
    2.4996    1.5315   -6.3120 C   0  0  0  0  0  0  0  0  0  0  0  0
    1.6891    0.5587   -5.7795 C   0  0  0  0  0  0  0  0  0  0  0  0
    0.4414    0.3057   -6.2506 C   0  0  0  0  0  0  0  0  0  0  0  0
    1.4621   -2.9988   -5.5906 C   0  0  0  0  0  0  0  0  0  0  0  0
    2.4160   -2.4161   -6.2226 O   0  0  0  0  0  0  0  0  0  0  0  0
    2.3152   -4.1127   -5.2222 N   0  0  0  0  0  0  0  0  0  0  0  0
    3.7267   -4.1754   -5.5650 C   0  0  0  0  0  0  0  0  0  0  0  0
    4.5466   -3.1617   -4.8495 C   0  0  0  0  0  0  0  0  0  0  0  0
    5.7652   -3.2303   -5.2222 O   0  0  0  0  0  0  0  0  0  0  0  0
    4.1605   -2.1902   -3.8528 N   0  0  0  0  0  0  0  0  0  0  0  0
    5.1848   -1.2959   -3.2505 C   0  0  1  0  0  0  0  0  0  0  0  0
    4.5691    0.0827   -3.3926 C   0  0  0  0  0  0  0  0  0  0  0  0
    5.3496    1.2148   -2.8424 C   0  0  0  0  0  0  0  0  0  0  0  0
    4.6131    2.5464   -3.0910 C   0  0  0  0  0  0  0  0  0  0  0  0
    5.4396    3.6771   -2.4983 C   0  0  0  0  0  0  0  0  0  0  0  0
    5.6434    3.5408   -1.0851 N   0  0  0  0  0  0  0  0  0  0  0  0
    5.3508   -1.6449   -1.8197 C   0  0  0  0  0  0  0  0  0  0  0  0
    4.4629   -2.3624   -1.2472 O   0  0  0  0  0  0  0  0  0  0  0  0
    6.4546   -1.2451   -0.9996 N   0  0  0  0  0  0  0  0  0  0  0  0
    7.6292   -0.4738   -1.4025 C   0  0  0  0  0  0  0  0  0  0  0  0
    8.7599   -1.2681   -0.7952 C   0  0  0  0  0  0  0  0  0  0  0  0
    8.1290   -1.9572    0.3728 C   0  0  0  0  0  0  0  0  0  0  0  0
    6.6897   -1.4985    0.4192 C   0  0  1  0  0  0  0  0  0  0  0  0
    6.5602   -0.2006    1.1838 C   0  0  0  0  0  0  0  0  0  0  0  0
    6.2773    0.9989    0.9462 O   0  0  0  0  0  0  0  0  0  0  0  0
    6.8395   -0.3655    2.5892 N   0  0  0  0  0  0  0  0  0  0  0  0
    6.7873    0.7207    3.5413 C   0  0  1  0  0  0  0  0  0  0  0  0
    5.8874    0.4843    4.7054 C   0  0  0  0  0  0  0  0  0  0  0  0
    4.4434    0.2521    4.3297 C   0  0  0  0  0  0  0  0  0  0  0  0
    6.3938   -0.6162    5.6305 C   0  0  0  0  0  0  0  0  0  0  0  0
    8.1797    0.9089    4.0489 C   0  0  0  0  0  0  0  0  0  0  0  0
    8.7504    1.8176    4.9758 N   0  0  0  0  0  0  0  0  0  0  0  0
    9.1586    0.1927    3.6738 O   0  0  0  0  0  0  0  0  0  0  0  0
   -7.2921    0.5762   -4.1400 H   0  0  0  0  0  0  0  0  0  0  0  0
   -6.8716    1.6902   -5.5281 H   0  0  0  0  0  0  0  0  0  0  0  0
   -5.9872    0.1609   -5.3119 H   0  0  0  0  0  0  0  0  0  0  0  0
   -4.6800    0.8706   -3.5750 H   0  0  0  0  0  0  0  0  0  0  0  0
   -4.8575    2.3814   -4.5977 H   0  0  0  0  0  0  0  0  0  0  0  0
   -6.4257    1.7228   -2.0500 H   0  0  0  0  0  0  0  0  0  0  0  0
   -6.6314    3.1717   -3.1325 H   0  0  0  0  0  0  0  0  0  0  0  0
   -4.1072    3.6577   -2.7257 H   0  0  0  0  0  0  0  0  0  0  0  0
   -4.0920    2.2241   -1.6662 H   0  0  0  0  0  0  0  0  0  0  0  0
   -5.8084    4.7082   -1.1899 H   0  0  0  0  0  0  0  0  0  0  0  0
   -3.1265    4.0713    0.2518 H   0  0  0  0  0  0  0  0  0  0  0  0
   -2.9621    7.7141   -0.0629 H   0  0  0  0  0  0  0  0  0  0  0  0
   -1.5649    6.0546   -2.1455 H   0  0  0  0  0  0  0  0  0  0  0  0
   -2.7026    7.4158   -2.3729 H   0  0  0  0  0  0  0  0  0  0  0  0
   -0.7474    8.4412   -2.4732 H   0  0  0  0  0  0  0  0  0  0  0  0
   -1.1823    5.3759    0.8578 H   0  0  0  0  0  0  0  0  0  0  0  0
   -0.2909    7.9388    3.2358 H   0  0  0  0  0  0  0  0  0  0  0  0
    1.1064    8.9310    1.4796 H   0  0  0  0  0  0  0  0  0  0  0  0
    1.6223    7.3268    0.9294 H   0  0  0  0  0  0  0  0  0  0  0  0
    2.1671    9.7765    3.6844 H   0  0  0  0  0  0  0  0  0  0  0  0
    4.0149    9.3940    5.3566 H   0  0  0  0  0  0  0  0  0  0  0  0
    6.1559    6.5237    5.4129 H   0  0  0  0  0  0  0  0  0  0  0  0
    4.6618    5.5199    3.9236 H   0  0  0  0  0  0  0  0  0  0  0  0
    2.8978    5.8166    2.2888 H   0  0  0  0  0  0  0  0  0  0  0  0
    0.3749    5.0617    2.3318 H   0  0  0  0  0  0  0  0  0  0  0  0
   -0.8757    4.3657    5.6299 H   0  0  0  0  0  0  0  0  0  0  0  0
    2.1988    4.6028    5.2923 H   0  0  0  0  0  0  0  0  0  0  0  0
    1.2297    5.4313    6.5399 H   0  0  0  0  0  0  0  0  0  0  0  0
    1.0992    2.5502    6.1221 H   0  0  0  0  0  0  0  0  0  0  0  0
    1.0120    3.2421    3.5232 H   0  0  0  0  0  0  0  0  0  0  0  0
   -0.3117    1.4094    2.4632 H   0  0  0  0  0  0  0  0  0  0  0  0
   -1.7787    0.7814    3.2260 H   0  0  0  0  0  0  0  0  0  0  0  0
   -0.1202    0.3806    3.9077 H   0  0  0  0  0  0  0  0  0  0  0  0
   -4.1745    2.5338    1.2502 H   0  0  0  0  0  0  0  0  0  0  0  0
   -5.2254    1.6849    3.1749 H   0  0  0  0  0  0  0  0  0  0  0  0
   -7.8201    1.8697    1.6793 H   0  0  0  0  0  0  0  0  0  0  0  0
   -7.4637    1.3813    3.4156 H   0  0  0  0  0  0  0  0  0  0  0  0
   -6.3746    4.0150    2.2617 H   0  0  0  0  0  0  0  0  0  0  0  0
   -6.3126    3.4080    3.9250 H   0  0  0  0  0  0  0  0  0  0  0  0
  -10.0761    3.3481    4.1201 H   0  0  0  0  0  0  0  0  0  0  0  0
   -5.1955   -0.3747    0.0931 H   0  0  0  0  0  0  0  0  0  0  0  0
   -6.3784   -2.3934    2.0915 H   0  0  0  0  0  0  0  0  0  0  0  0
   -8.1478   -1.8422    0.8384 H   0  0  0  0  0  0  0  0  0  0  0  0
   -7.3528   -2.1642   -0.7811 H   0  0  0  0  0  0  0  0  0  0  0  0
   -7.3251   -4.9519   -1.3519 H   0  0  0  0  0  0  0  0  0  0  0  0
   -9.6918   -6.0917    2.0466 H   0  0  0  0  0  0  0  0  0  0  0  0
   -8.9392   -3.7110    2.2940 H   0  0  0  0  0  0  0  0  0  0  0  0
   -3.3907   -2.6123    0.1167 H   0  0  0  0  0  0  0  0  0  0  0  0
   -4.3866   -5.5963   -0.1518 H   0  0  0  0  0  0  0  0  0  0  0  0
   -3.7477   -5.1888    2.2237 H   0  0  0  0  0  0  0  0  0  0  0  0
   -2.7602   -6.4703    1.4160 H   0  0  0  0  0  0  0  0  0  0  0  0
   -0.3636   -6.2101    1.0829 H   0  0  0  0  0  0  0  0  0  0  0  0
    1.6628   -5.0592    1.5311 H   0  0  0  0  0  0  0  0  0  0  0  0
    1.6599   -2.8415    2.4771 H   0  0  0  0  0  0  0  0  0  0  0  0
   -0.4771   -1.7829    2.9751 H   0  0  0  0  0  0  0  0  0  0  0  0
   -2.6719   -2.9237    2.5294 H   0  0  0  0  0  0  0  0  0  0  0  0
   -2.6754   -6.9765   -1.7434 H   0  0  0  0  0  0  0  0  0  0  0  0
   -0.1959   -5.0168   -1.7015 H   0  0  0  0  0  0  0  0  0  0  0  0
    1.2283   -6.3710   -3.0023 H   0  0  0  0  0  0  0  0  0  0  0  0
   -0.0778   -7.4043   -3.6022 H   0  0  0  0  0  0  0  0  0  0  0  0
    1.4061   -8.4716   -1.8642 H   0  0  0  0  0  0  0  0  0  0  0  0
    1.0964   -7.1141   -0.7682 H   0  0  0  0  0  0  0  0  0  0  0  0
    0.0003   -9.1985   -0.1735 H   0  0  0  0  0  0  0  0  0  0  0  0
   -1.1526   -7.8834   -0.2560 H   0  0  0  0  0  0  0  0  0  0  0  0
   -1.1316   -9.5804   -2.8076 H   0  0  0  0  0  0  0  0  0  0  0  0
   -4.0533  -11.1673   -2.3799 H   0  0  0  0  0  0  0  0  0  0  0  0
   -4.2080   -9.5882   -2.0331 H   0  0  0  0  0  0  0  0  0  0  0  0
   -2.9461  -10.8268    0.6077 H   0  0  0  0  0  0  0  0  0  0  0  0
    0.8117   -3.9072   -3.4231 H   0  0  0  0  0  0  0  0  0  0  0  0
   -0.5825   -3.4179   -5.9895 H   0  0  0  0  0  0  0  0  0  0  0  0
    0.1449   -1.3498   -3.8551 H   0  0  0  0  0  0  0  0  0  0  0  0
   -1.5369   -1.8265   -4.4053 H   0  0  0  0  0  0  0  0  0  0  0  0
   -2.4968   -0.9353   -6.6620 H   0  0  0  0  0  0  0  0  0  0  0  0
   -1.9192    0.9435   -8.2735 H   0  0  0  0  0  0  0  0  0  0  0  0
    0.3350    2.5698   -8.6544 H   0  0  0  0  0  0  0  0  0  0  0  0
    2.6036    3.0467   -7.8162 H   0  0  0  0  0  0  0  0  0  0  0  0
    3.4880    1.7821   -6.0040 H   0  0  0  0  0  0  0  0  0  0  0  0
    2.1172   -0.0088   -4.9386 H   0  0  0  0  0  0  0  0  0  0  0  0
    1.9941   -4.9785   -4.6787 H   0  0  0  0  0  0  0  0  0  0  0  0
    3.8771   -4.0007   -6.6668 H   0  0  0  0  0  0  0  0  0  0  0  0
    4.1728   -5.1713   -5.3803 H   0  0  0  0  0  0  0  0  0  0  0  0
    3.1445   -2.2124   -3.6308 H   0  0  0  0  0  0  0  0  0  0  0  0
    6.1163   -1.4298   -3.8272 H   0  0  0  0  0  0  0  0  0  0  0  0
    4.4263    0.1913   -4.5145 H   0  0  0  0  0  0  0  0  0  0  0  0
    3.5308    0.1009   -2.9597 H   0  0  0  0  0  0  0  0  0  0  0  0
    5.4563    1.1854   -1.7354 H   0  0  0  0  0  0  0  0  0  0  0  0
    6.3311    1.3109   -3.2988 H   0  0  0  0  0  0  0  0  0  0  0  0
    4.5385    2.7682   -4.1681 H   0  0  0  0  0  0  0  0  0  0  0  0
    3.6046    2.4619   -2.6799 H   0  0  0  0  0  0  0  0  0  0  0  0
    4.8644    4.6129   -2.6822 H   0  0  0  0  0  0  0  0  0  0  0  0
    6.4075    3.6522   -3.0432 H   0  0  0  0  0  0  0  0  0  0  0  0
    6.6382    3.3066   -0.8406 H   0  0  0  0  0  0  0  0  0  0  0  0
    4.9444    2.9578   -0.5898 H   0  0  0  0  0  0  0  0  0  0  0  0
    7.7117   -0.4345   -2.5126 H   0  0  0  0  0  0  0  0  0  0  0  0
    7.6284    0.5231   -0.9239 H   0  0  0  0  0  0  0  0  0  0  0  0
    9.0580   -2.0040   -1.5969 H   0  0  0  0  0  0  0  0  0  0  0  0
    9.6415   -0.6472   -0.5164 H   0  0  0  0  0  0  0  0  0  0  0  0
    8.6704   -1.6273    1.2761 H   0  0  0  0  0  0  0  0  0  0  0  0
    8.1382   -3.0538    0.2043 H   0  0  0  0  0  0  0  0  0  0  0  0
    5.9914   -2.2105    0.8608 H   0  0  0  0  0  0  0  0  0  0  0  0
    7.1082   -1.2832    3.0650 H   0  0  0  0  0  0  0  0  0  0  0  0
    6.4512    1.6469    3.0348 H   0  0  0  0  0  0  0  0  0  0  0  0
    5.9022    1.4231    5.3239 H   0  0  0  0  0  0  0  0  0  0  0  0
    4.1852   -0.8359    4.3603 H   0  0  0  0  0  0  0  0  0  0  0  0
    4.3044    0.5679    3.2714 H   0  0  0  0  0  0  0  0  0  0  0  0
    3.7187    0.7634    4.9942 H   0  0  0  0  0  0  0  0  0  0  0  0
    6.7201   -1.5030    5.0547 H   0  0  0  0  0  0  0  0  0  0  0  0
    5.5819   -0.9202    6.3386 H   0  0  0  0  0  0  0  0  0  0  0  0
    7.2471   -0.2923    6.2595 H   0  0  0  0  0  0  0  0  0  0  0  0
    8.8396    2.0966    5.9642 H   0  0  0  0  0  0  0  0  0  0  0  0
    9.3635    2.5845    4.6235 H   0  0  0  0  0  0  0  0  0  0  0  0
  1  2  1  0
  2  3  1  0
  3  4  1  0
  4  5  1  0
  5  6  1  0
  6  7  1  0
  7  8  2  0
  7  9  1  0
  9 10  1  0
 10 11  1  0
  9 12  1  0
 12 13  1  0
 13 14  2  0
 13 15  1  0
 15 16  1  0
 16 17  1  0
 17 18  2  0
 18 19  1  0
 19 20  2  0
 20 21  1  0
 20 22  1  0
 22 23  2  0
 15 24  1  0
 24 25  1  0
 25 26  2  0
 25 27  1  0
 27 28  1  0
 28 29  1  0
 27 30  1  0
 30 31  1  0
 31 32  1  0
 31 33  2  0
  5 34  1  0
 34 35  2  0
 34 36  1  0
 36 37  1  0
 37 38  1  0
 38 39  1  0
 39 40  1  0
 40 41  1  0
 40 42  2  0
 37 43  1  0
 43 44  2  0
 43 45  1  0
 45 46  1  0
 46 47  1  0
 47 48  1  0
 48 49  2  0
 49 50  1  0
 50 51  2  0
 51 52  1  0
 46 53  1  0
 53 54  2  0
 53 55  1  0
 55 56  1  0
 56 57  1  0
 57 58  1  0
 58 59  2  0
 59 60  1  0
 60 61  2  0
 61 62  1  0
 62 63  2  0
 56 64  1  0
 64 65  2  0
 64 66  1  0
 66 67  1  0
 67 68  1  0
 68 69  1  0
 69 70  1  0
 70 71  1  0
 71 72  1  0
 72 73  1  0
 72 74  2  3
 67 75  1  0
 75 76  2  0
 75 77  1  0
 77 78  1  0
 78 79  1  0
 79 80  1  0
 80 81  2  0
 81 82  1  0
 82 83  1  0
 83 84  2  0
 84 85  1  0
 85 86  2  0
 86 87  1  0
 87 88  2  0
 78 89  1  0
 89 90  2  0
 89 91  1  0
 91 92  1  0
 92 93  1  0
 93 94  2  0
 93 95  1  0
 95 96  1  0
 96 97  1  0
 97 98  1  0
 98 99  1  0
 99100  1  0
100101  1  0
 96102  1  0
102103  2  0
102104  1  0
104105  1  0
105106  1  0
106107  1  0
107108  1  0
108109  1  0
109110  2  0
109111  1  0
111112  1  0
112113  1  0
113114  1  0
113115  1  0
112116  1  0
116117  1  0
116118  2  0
 23 17  1  0
 52 48  1  0
 63 58  1  0
 88 80  1  0
108104  1  0
 88 83  1  0
  1119  1  0
  1120  1  0
  1121  1  0
  2122  1  0
  2123  1  0
  3124  1  0
  3125  1  0
  4126  1  0
  4127  1  0
  5128  1  6
  6129  1  0
  9130  1  1
 10131  1  0
 10132  1  0
 11133  1  0
 12134  1  0
 15135  1  1
 16136  1  0
 16137  1  0
 18138  1  0
 19139  1  0
 21140  1  0
 22141  1  0
 23142  1  0
 24143  1  0
 27144  1  1
 28145  1  0
 28146  1  0
 29147  1  0
 30148  1  0
 32149  1  0
 32150  1  0
 32151  1  0
 36152  1  0
 37153  1  1
 38154  1  0
 38155  1  0
 39156  1  0
 39157  1  0
 41158  1  0
 45159  1  0
 46160  1  1
 47161  1  0
 47162  1  0
 49163  1  0
 51164  1  0
 52165  1  0
 55166  1  0
 56167  1  6
 57168  1  0
 57169  1  0
 59170  1  0
 60171  1  0
 61172  1  0
 62173  1  0
 63174  1  0
 66175  1  0
 67176  1  1
 68177  1  0
 68178  1  0
 69179  1  0
 69180  1  0
 70181  1  0
 70182  1  0
 71183  1  0
 73184  1  0
 73185  1  0
 74186  1  0
 77187  1  0
 78188  1  6
 79189  1  0
 79190  1  0
 81191  1  0
 82192  1  0
 84193  1  0
 85194  1  0
 86195  1  0
 87196  1  0
 91197  1  0
 92198  1  0
 92199  1  0
 95200  1  0
 96201  1  6
 97202  1  0
 97203  1  0
 98204  1  0
 98205  1  0
 99206  1  0
 99207  1  0
100208  1  0
100209  1  0
101210  1  0
101211  1  0
105212  1  0
105213  1  0
106214  1  0
106215  1  0
107216  1  0
107217  1  0
108218  1  1
111219  1  0
112220  1  6
113221  1  0
114222  1  0
114223  1  0
114224  1  0
115225  1  0
115226  1  0
115227  1  0
117228  1  0
117229  1  0
M  END
$$$$
