@<TRIPOS>MOLECULE
*****
 229 234 0 0 0
SMALL
GASTEIGER

@<TRIPOS>ATOM
      1 C          -6.4647    0.9954   -4.7381 C.3     1  UNK1       -0.0653
      2 C          -5.3794    1.6573   -3.9428 C.3     1  UNK1       -0.0558
      3 C          -5.9187    2.4387   -2.7459 C.3     1  UNK1       -0.0512
      4 C          -4.7506    3.0441   -2.0618 C.3     1  UNK1       -0.0260
      5 C          -5.1985    3.8877   -0.8493 C.3     1  UNK1        0.0994
      6 N          -3.9177    4.4137   -0.3158 N.am    1  UNK1       -0.3024
      7 C          -3.6434    5.8003   -0.6602 C.2     1  UNK1        0.2362
      8 O          -4.5122    6.4078   -1.3862 O.2     1  UNK1       -0.2737
      9 C          -2.5631    6.7380   -0.3729 C.3     1  UNK1        0.1226
     10 C          -1.8919    7.0185   -1.7344 C.3     1  UNK1        0.0711
     11 O          -0.9218    7.9840   -1.6104 O.3     1  UNK1       -0.3927
     12 N          -1.5846    6.2923    0.5739 N.am    1  UNK1       -0.3006
     13 C          -1.0117    7.4024    1.3099 C.2     1  UNK1        0.2343
     14 O          -1.3372    8.6253    1.1187 O.2     1  UNK1       -0.2738
     15 C           0.0203    7.3612    2.3830 C.3     1  UNK1        0.1034
     16 C           1.3356    7.8958    1.8346 C.3     1  UNK1       -0.0007
     17 C           2.3775    7.8627    2.8617 C.ar    1  UNK1       -0.0449
     18 C           2.7169    8.8740    3.7547 C.ar    1  UNK1       -0.0551
     19 C           3.7237    8.6272    4.6467 C.ar    1  UNK1       -0.0199
     20 C           4.4360    7.4568    4.7370 C.ar    1  UNK1        0.1169
     21 O           5.4570    7.2426    5.6626 O.3     1  UNK1       -0.5068
     22 C           4.0899    6.4426    3.8363 C.ar    1  UNK1       -0.0199
     23 C           3.0750    6.6753    2.9294 C.ar    1  UNK1       -0.0551
     24 N           0.1746    5.9735    2.7593 N.am    1  UNK1       -0.3021
     25 C          -0.0008    5.7266    4.1656 C.2     1  UNK1        0.2362
     26 O          -0.2541    6.6546    5.0074 O.2     1  UNK1       -0.2737
     27 C           0.0368    4.4988    5.0331 C.3     1  UNK1        0.1225
     28 C           1.2822    4.5347    5.9282 C.3     1  UNK1        0.0711
     29 O           1.3284    3.3584    6.6380 O.3     1  UNK1       -0.3927
     30 N           0.2106    3.3612    4.1780 N.am    1  UNK1       -0.3023
     31 C          -0.8010    2.3622    4.2717 C.2     0  UNK0        0.2106
     32 C          -0.7697    1.1222    3.4511 C.3     0  UNK0        0.0122
     33 O          -1.7898    2.4511    5.0495 O.2     0  UNK0       -0.2761
     34 C          -5.7948    2.9602    0.1263 C.2     1  UNK1        0.2339
     35 O          -7.0066    2.8401   -0.1794 O.2     1  UNK1       -0.2738
     36 N          -5.1974    2.2912    1.2228 N.am    1  UNK1       -0.3025
     37 C          -5.7256    1.4195    2.2031 C.3     1  UNK1        0.0999
     38 C          -7.1574    1.9855    2.5095 C.3     1  UNK1       -0.0159
     39 C          -6.9398    3.3904    3.0118 C.3     1  UNK1        0.0469
     40 C          -8.2198    4.0724    3.3643 C.2     1  UNK1        0.3048
     41 O          -9.5533    3.6194    3.2647 O.3     1  UNK1       -0.4806
     42 O          -8.5161    5.1960    3.8353 O.2     1  UNK1       -0.2510
     43 C          -5.9068    0.0252    1.9062 C.2     1  UNK1        0.2340
     44 O          -6.4671   -0.4457    2.9661 O.2     1  UNK1       -0.2738
     45 N          -5.6716   -0.9108    0.8557 N.am    1  UNK1       -0.3021
     46 C          -6.0886   -2.3264    0.9919 C.3     1  UNK1        0.1048
     47 C          -7.4073   -2.5007    0.2916 C.3     1  UNK1        0.0160
     48 C          -7.9043   -3.8711    0.3731 C.ar    1  UNK1        0.0375
     49 C          -7.8840   -5.0317   -0.4198 C.ar    1  UNK1        0.0485
     50 N          -8.5913   -6.0152    0.1754 N.ar    1  UNK1       -0.2440
     51 C          -9.0792   -5.5661    1.3229 C.ar    1  UNK1        0.0935
     52 N          -8.6718   -4.2925    1.4415 N.ar    1  UNK1       -0.3481
     53 C          -5.1033   -3.3068    0.6458 C.2     1  UNK1        0.2343
     54 O          -5.7542   -4.3975    0.8426 O.2     1  UNK1       -0.2738
     55 N          -3.7629   -3.5875    0.1926 N.am    1  UNK1       -0.3022
     56 C          -3.5185   -5.0032    0.0386 C.3     1  UNK1        0.1034
     57 C          -2.9939   -5.4094    1.4619 C.3     1  UNK1       -0.0007
     58 C          -1.7496   -4.6449    1.7756 C.ar    1  UNK1       -0.0451
     59 C          -0.5374   -5.2359    1.4969 C.ar    1  UNK1       -0.0585
     60 C           0.6888   -4.6412    1.7263 C.ar    1  UNK1       -0.0615
     61 C           0.7306   -3.3545    2.2771 C.ar    1  UNK1       -0.0617
     62 C          -0.4890   -2.7749    2.5507 C.ar    1  UNK1       -0.0615
     63 C          -1.7106   -3.3758    2.3189 C.ar    1  UNK1       -0.0585
     64 C          -2.4198   -5.2699   -0.9205 C.2     1  UNK1        0.2343
     65 O          -1.9835   -4.1107   -0.6011 O.2     1  UNK1       -0.2738
     66 N          -1.9443   -6.2691   -1.8223 N.am    1  UNK1       -0.3025
     67 C          -0.6874   -5.7280   -2.3673 C.3     1  UNK1        0.0995
     68 C           0.2487   -6.8501   -2.6955 C.3     1  UNK1       -0.0231
     69 C           0.6140   -7.7490   -1.5605 C.3     1  UNK1       -0.0201
     70 C          -0.4967   -8.4813   -0.9061 C.3     1  UNK1        0.0647
     71 N          -1.2517   -9.3629   -1.7805 N.pl3   1  UNK1       -0.2761
     72 C          -2.3529  -10.0593   -1.1366 C.cat   1  UNK1        0.3762
     73 N          -3.5428  -10.4009   -1.8868 N.pl3   1  UNK1       -0.2893
     74 N          -2.1712  -10.3299    0.1328 N.pl3   1  UNK1       -0.1298
     75 C          -1.0085   -4.9745   -3.6371 C.2     1  UNK1        0.2340
     76 O          -1.9398   -4.9317   -4.5027 O.2     1  UNK1       -0.2738
     77 N          -0.0548   -4.0095   -4.0441 N.am    1  UNK1       -0.3022
     78 C           0.0842   -3.0466   -5.1400 C.3     1  UNK1        0.1034
     79 C          -0.4602   -1.7121   -4.7470 C.3     1  UNK1        0.0013
     80 C          -0.4082   -0.6516   -5.7496 C.ar    1  UNK1       -0.0201
     81 C          -1.5131   -0.4412   -6.6048 C.ar    1  UNK1        0.0060
     82 N          -1.3497    0.5313   -7.5185 N.ar    1  UNK1       -0.3604
     83 C          -0.1191    1.0167   -7.3122 C.ar    1  UNK1        0.0467
     84 C           0.7433    1.9924   -7.8169 C.ar    1  UNK1       -0.0378
     85 C           1.9907    2.2637   -7.3685 C.ar    1  UNK1       -0.0598
     86 C           2.4996    1.5315   -6.3120 C.ar    1  UNK1       -0.0611
     87 C           1.6891    0.5587   -5.7795 C.ar    1  UNK1       -0.0523
     88 C           0.4414    0.3057   -6.2506 C.ar    1  UNK1        0.0029
     89 C           1.4621   -2.9988   -5.5906 C.2     1  UNK1        0.2341
     90 O           2.4160   -2.4161   -6.2226 O.2     1  UNK1       -0.2738
     91 N           2.3152   -4.1127   -5.2222 N.am    1  UNK1       -0.3052
     92 C           3.7267   -4.1754   -5.5650 C.3     1  UNK1        0.0882
     93 C           4.5466   -3.1617   -4.8495 C.2     1  UNK1        0.2308
     94 O           5.7652   -3.2303   -5.2222 O.2     1  UNK1       -0.2741
     95 N           4.1605   -2.1902   -3.8528 N.am    1  UNK1       -0.3027
     96 C           5.1848   -1.2959   -3.2505 C.3     1  UNK1        0.0996
     97 C           4.5691    0.0827   -3.3926 C.3     1  UNK1       -0.0259
     98 C           5.3496    1.2148   -2.8424 C.3     1  UNK1       -0.0498
     99 C           4.6131    2.5464   -3.0910 C.3     1  UNK1       -0.0406
    100 C           5.4396    3.6771   -2.4983 C.3     1  UNK1       -0.0069
    101 N           5.6434    3.5408   -1.0851 N.3     1  UNK1       -0.3300
    102 C           5.3508   -1.6449   -1.8197 C.2     1  UNK1        0.2365
    103 O           4.4629   -2.3624   -1.2472 O.2     1  UNK1       -0.2735
    104 N           6.4546   -1.2451   -0.9996 N.am    1  UNK1       -0.2884
    105 C           7.6292   -0.4738   -1.4025 C.3     1  UNK1        0.0156
    106 C           8.7599   -1.2681   -0.7952 C.3     1  UNK1       -0.0350
    107 C           8.1290   -1.9572    0.3728 C.3     1  UNK1       -0.0243
    108 C           6.6897   -1.4985    0.4192 C.3     1  UNK1        0.1023
    109 C           6.5602   -0.2006    1.1838 C.2     1  UNK1        0.2342
    110 O           6.2773    0.9989    0.9462 O.2     1  UNK1       -0.2738
    111 N           6.8395   -0.3655    2.5892 N.am    1  UNK1       -0.3022
    112 C           6.7873    0.7207    3.5413 C.3     1  UNK1        0.1015
    113 C           5.8874    0.4843    4.7054 C.3     1  UNK1       -0.0197
    114 C           4.4434    0.2521    4.3297 C.3     1  UNK1       -0.0605
    115 C           6.3938   -0.6162    5.6305 C.3     1  UNK1       -0.0605
    116 C           8.1797    0.9089    4.0489 C.2     1  UNK1        0.2311
    117 N           8.7504    1.8176    4.9758 N.am    1  UNK1       -0.3278
    118 O           9.1586    0.1927    3.6738 O.2     1  UNK1       -0.2740
    119 H          -7.2921    0.5762   -4.1400 H       1  UNK1        0.0230
    120 H          -6.8716    1.6902   -5.5281 H       1  UNK1        0.0230
    121 H          -5.9872    0.1609   -5.3119 H       1  UNK1        0.0230
    122 H          -4.6800    0.8706   -3.5750 H       1  UNK1        0.0263
    123 H          -4.8575    2.3814   -4.5977 H       1  UNK1        0.0263
    124 H          -6.4257    1.7228   -2.0500 H       1  UNK1        0.0266
    125 H          -6.6314    3.1717   -3.1325 H       1  UNK1        0.0266
    126 H          -4.1072    3.6577   -2.7257 H       1  UNK1        0.0288
    127 H          -4.0920    2.2241   -1.6662 H       1  UNK1        0.0288
    128 H          -5.8084    4.7082   -1.1899 H       1  UNK1        0.0594
    129 H          -3.1265    4.0713    0.2518 H       1  UNK1        0.1495
    130 H          -2.9621    7.7141   -0.0629 H       1  UNK1        0.0618
    131 H          -1.5649    6.0546   -2.1455 H       1  UNK1        0.0580
    132 H          -2.7026    7.4158   -2.3729 H       1  UNK1        0.0580
    133 H          -0.7474    8.4412   -2.4732 H       1  UNK1        0.2095
    134 H          -1.1823    5.3759    0.8578 H       1  UNK1        0.1496
    135 H          -0.2909    7.9388    3.2358 H       1  UNK1        0.0598
    136 H           1.1064    8.9310    1.4796 H       1  UNK1        0.0336
    137 H           1.6223    7.3268    0.9294 H       1  UNK1        0.0336
    138 H           2.1671    9.7765    3.6844 H       1  UNK1        0.0621
    139 H           4.0149    9.3940    5.3566 H       1  UNK1        0.0654
    140 H           6.1559    6.5237    5.4129 H       1  UNK1        0.2921
    141 H           4.6618    5.5199    3.9236 H       1  UNK1        0.0654
    142 H           2.8978    5.8166    2.2888 H       1  UNK1        0.0621
    143 H           0.3749    5.0617    2.3318 H       1  UNK1        0.1495
    144 H          -0.8757    4.3657    5.6299 H       1  UNK1        0.0618
    145 H           2.1988    4.6028    5.2923 H       1  UNK1        0.0580
    146 H           1.2297    5.4313    6.5399 H       1  UNK1        0.0580
    147 H           1.0992    2.5502    6.1221 H       1  UNK1        0.2095
    148 H           1.0120    3.2421    3.5232 H       1  UNK1        0.1495
    149 H          -0.3117    1.4094    2.4632 H       0  UNK0        0.0322
    150 H          -1.7787    0.7814    3.2260 H       0  UNK0        0.0322
    151 H          -0.1202    0.3806    3.9077 H       0  UNK0        0.0322
    152 H          -4.1745    2.5338    1.2502 H       1  UNK1        0.1495
    153 H          -5.2254    1.6849    3.1749 H       1  UNK1        0.0595
    154 H          -7.8201    1.8697    1.6793 H       1  UNK1        0.0293
    155 H          -7.4637    1.3813    3.4156 H       1  UNK1        0.0293
    156 H          -6.3746    4.0150    2.2617 H       1  UNK1        0.0378
    157 H          -6.3126    3.4080    3.9250 H       1  UNK1        0.0378
    158 H         -10.0761    3.3481    4.1201 H       1  UNK1        0.2951
    159 H          -5.1955   -0.3747    0.0931 H       1  UNK1        0.1495
    160 H          -6.3784   -2.3934    2.0915 H       1  UNK1        0.0598
    161 H          -8.1478   -1.8422    0.8384 H       1  UNK1        0.0351
    162 H          -7.3528   -2.1642   -0.7811 H       1  UNK1        0.0351
    163 H          -7.3251   -4.9519   -1.3519 H       1  UNK1        0.0848
    164 H          -9.6918   -6.0917    2.0466 H       1  UNK1        0.1027
    165 H          -8.9392   -3.7110    2.2940 H       1  UNK1        0.1665
    166 H          -3.3907   -2.6123    0.1167 H       1  UNK1        0.1495
    167 H          -4.3866   -5.5963   -0.1518 H       1  UNK1        0.0598
    168 H          -3.7477   -5.1888    2.2237 H       1  UNK1        0.0336
    169 H          -2.7602   -6.4703    1.4160 H       1  UNK1        0.0336
    170 H          -0.3636   -6.2101    1.0829 H       1  UNK1        0.0620
    171 H           1.6628   -5.0592    1.5311 H       1  UNK1        0.0618
    172 H           1.6599   -2.8415    2.4771 H       1  UNK1        0.0618
    173 H          -0.4771   -1.7829    2.9751 H       1  UNK1        0.0618
    174 H          -2.6719   -2.9237    2.5294 H       1  UNK1        0.0620
    175 H          -2.6754   -6.9765   -1.7434 H       1  UNK1        0.1495
    176 H          -0.1959   -5.0168   -1.7015 H       1  UNK1        0.0594
    177 H           1.2283   -6.3710   -3.0023 H       1  UNK1        0.0289
    178 H          -0.0778   -7.4043   -3.6022 H       1  UNK1        0.0289
    179 H           1.4061   -8.4716   -1.8642 H       1  UNK1        0.0296
    180 H           1.0964   -7.1141   -0.7682 H       1  UNK1        0.0296
    181 H           0.0003   -9.1985   -0.1735 H       1  UNK1        0.0655
    182 H          -1.1526   -7.8834   -0.2560 H       1  UNK1        0.0655
    183 H          -1.1316   -9.5804   -2.8076 H       1  UNK1        0.2579
    184 H          -4.0533  -11.1673   -2.3799 H       1  UNK1        0.2546
    185 H          -4.2080   -9.5882   -2.0331 H       1  UNK1        0.2546
    186 H          -2.9461  -10.8268    0.6077 H       1  UNK1        0.3062
    187 H           0.8117   -3.9072   -3.4231 H       1  UNK1        0.1495
    188 H          -0.5825   -3.4179   -5.9895 H       1  UNK1        0.0598
    189 H           0.1449   -1.3498   -3.8551 H       1  UNK1        0.0337
    190 H          -1.5369   -1.8265   -4.4053 H       1  UNK1        0.0337
    191 H          -2.4968   -0.9353   -6.6620 H       1  UNK1        0.0810
    192 H          -1.9192    0.9435   -8.2735 H       1  UNK1        0.1653
    193 H           0.3350    2.5698   -8.6544 H       1  UNK1        0.0638
    194 H           2.6036    3.0467   -7.8162 H       1  UNK1        0.0618
    195 H           3.4880    1.7821   -6.0040 H       1  UNK1        0.0618
    196 H           2.1172   -0.0088   -4.9386 H       1  UNK1        0.0624
    197 H           1.9941   -4.9785   -4.6787 H       1  UNK1        0.1492
    198 H           3.8771   -4.0007   -6.6668 H       1  UNK1        0.0558
    199 H           4.1728   -5.1713   -5.3803 H       1  UNK1        0.0558
    200 H           3.1445   -2.2124   -3.6308 H       1  UNK1        0.1495
    201 H           6.1163   -1.4298   -3.8272 H       1  UNK1        0.0594
    202 H           4.4263    0.1913   -4.5145 H       1  UNK1        0.0288
    203 H           3.5308    0.1009   -2.9597 H       1  UNK1        0.0288
    204 H           5.4563    1.1854   -1.7354 H       1  UNK1        0.0266
    205 H           6.3311    1.3109   -3.2988 H       1  UNK1        0.0266
    206 H           4.5385    2.7682   -4.1681 H       1  UNK1        0.0277
    207 H           3.6046    2.4619   -2.6799 H       1  UNK1        0.0277
    208 H           4.8644    4.6129   -2.6822 H       1  UNK1        0.0422
    209 H           6.4075    3.6522   -3.0432 H       1  UNK1        0.0422
    210 H           6.6382    3.3066   -0.8406 H       1  UNK1        0.1182
    211 H           4.9444    2.9578   -0.5898 H       1  UNK1        0.1182
    212 H           7.7117   -0.4345   -2.5126 H       1  UNK1        0.0465
    213 H           7.6284    0.5231   -0.9239 H       1  UNK1        0.0465
    214 H           9.0580   -2.0040   -1.5969 H       1  UNK1        0.0281
    215 H           9.6415   -0.6472   -0.5164 H       1  UNK1        0.0281
    216 H           8.6704   -1.6273    1.2761 H       1  UNK1        0.0288
    217 H           8.1382   -3.0538    0.2043 H       1  UNK1        0.0288
    218 H           5.9914   -2.2105    0.8608 H       1  UNK1        0.0597
    219 H           7.1082   -1.2832    3.0650 H       1  UNK1        0.1495
    220 H           6.4512    1.6469    3.0348 H       1  UNK1        0.0597
    221 H           5.9022    1.4231    5.3239 H       1  UNK1        0.0318
    222 H           4.1852   -0.8359    4.3603 H       1  UNK1        0.0233
    223 H           4.3044    0.5679    3.2714 H       1  UNK1        0.0233
    224 H           3.7187    0.7634    4.9942 H       1  UNK1        0.0233
    225 H           6.7201   -1.5030    5.0547 H       1  UNK1        0.0233
    226 H           5.5819   -0.9202    6.3386 H       1  UNK1        0.0233
    227 H           7.2471   -0.2923    6.2595 H       1  UNK1        0.0233
    228 H           8.8396    2.0966    5.9642 H       1  UNK1        0.1450
    229 H           9.3635    2.5845    4.6235 H       1  UNK1        0.1450
@<TRIPOS>BOND
     1     1     2    1
     2     2     3    1
     3     3     4    1
     4     4     5    1
     5     5     6    1
     6     6     7   am
     7     7     8    2
     8     7     9    1
     9     9    10    1
    10    10    11    1
    11     9    12    1
    12    12    13   am
    13    13    14    2
    14    13    15    1
    15    15    16    1
    16    16    17    1
    17    17    18   ar
    18    18    19   ar
    19    19    20   ar
    20    20    21    1
    21    20    22   ar
    22    22    23   ar
    23    15    24    1
    24    24    25   am
    25    25    26    2
    26    25    27    1
    27    27    28    1
    28    28    29    1
    29    27    30    1
    30    30    31   am
    31    31    32    1
    32    31    33    2
    33     5    34    1
    34    34    35    2
    35    34    36   am
    36    36    37    1
    37    37    38    1
    38    38    39    1
    39    39    40    1
    40    40    41    1
    41    40    42    2
    42    37    43    1
    43    43    44    2
    44    43    45   am
    45    45    46    1
    46    46    47    1
    47    47    48    1
    48    48    49   ar
    49    49    50   ar
    50    50    51   ar
    51    51    52   ar
    52    46    53    1
    53    53    54    2
    54    53    55   am
    55    55    56    1
    56    56    57    1
    57    57    58    1
    58    58    59   ar
    59    59    60   ar
    60    60    61   ar
    61    61    62   ar
    62    62    63   ar
    63    56    64    1
    64    64    65    2
    65    64    66   am
    66    66    67    1
    67    67    68    1
    68    68    69    1
    69    69    70    1
    70    70    71    1
    71    71    72    1
    72    72    73    1
    73    72    74    2
    74    67    75    1
    75    75    76    2
    76    75    77   am
    77    77    78    1
    78    78    79    1
    79    79    80    1
    80    80    81   ar
    81    81    82   ar
    82    82    83   ar
    83    83    84   ar
    84    84    85   ar
    85    85    86   ar
    86    86    87   ar
    87    87    88   ar
    88    78    89    1
    89    89    90    2
    90    89    91   am
    91    91    92    1
    92    92    93    1
    93    93    94    2
    94    93    95   am
    95    95    96    1
    96    96    97    1
    97    97    98    1
    98    98    99    1
    99    99   100    1
   100   100   101    1
   101    96   102    1
   102   102   103    2
   103   102   104   am
   104   104   105    1
   105   105   106    1
   106   106   107    1
   107   107   108    1
   108   108   109    1
   109   109   110    2
   110   109   111   am
   111   111   112    1
   112   112   113    1
   113   113   114    1
   114   113   115    1
   115   112   116    1
   116   116   117   am
   117   116   118    2
   118    23    17   ar
   119    52    48   ar
   120    63    58   ar
   121    88    80   ar
   122   108   104    1
   123    88    83   ar
   124     1   119    1
   125     1   120    1
   126     1   121    1
   127     2   122    1
   128     2   123    1
   129     3   124    1
   130     3   125    1
   131     4   126    1
   132     4   127    1
   133     5   128    1
   134     6   129    1
   135     9   130    1
   136    10   131    1
   137    10   132    1
   138    11   133    1
   139    12   134    1
   140    15   135    1
   141    16   136    1
   142    16   137    1
   143    18   138    1
   144    19   139    1
   145    21   140    1
   146    22   141    1
   147    23   142    1
   148    24   143    1
   149    27   144    1
   150    28   145    1
   151    28   146    1
   152    29   147    1
   153    30   148    1
   154    32   149    1
   155    32   150    1
   156    32   151    1
   157    36   152    1
   158    37   153    1
   159    38   154    1
   160    38   155    1
   161    39   156    1
   162    39   157    1
   163    41   158    1
   164    45   159    1
   165    46   160    1
   166    47   161    1
   167    47   162    1
   168    49   163    1
   169    51   164    1
   170    52   165    1
   171    55   166    1
   172    56   167    1
   173    57   168    1
   174    57   169    1
   175    59   170    1
   176    60   171    1
   177    61   172    1
   178    62   173    1
   179    63   174    1
   180    66   175    1
   181    67   176    1
   182    68   177    1
   183    68   178    1
   184    69   179    1
   185    69   180    1
   186    70   181    1
   187    70   182    1
   188    71   183    1
   189    73   184    1
   190    73   185    1
   191    74   186    1
   192    77   187    1
   193    78   188    1
   194    79   189    1
   195    79   190    1
   196    81   191    1
   197    82   192    1
   198    84   193    1
   199    85   194    1
   200    86   195    1
   201    87   196    1
   202    91   197    1
   203    92   198    1
   204    92   199    1
   205    95   200    1
   206    96   201    1
   207    97   202    1
   208    97   203    1
   209    98   204    1
   210    98   205    1
   211    99   206    1
   212    99   207    1
   213   100   208    1
   214   100   209    1
   215   101   210    1
   216   101   211    1
   217   105   212    1
   218   105   213    1
   219   106   214    1
   220   106   215    1
   221   107   216    1
   222   107   217    1
   223   108   218    1
   224   111   219    1
   225   112   220    1
   226   113   221    1
   227   114   222    1
   228   114   223    1
   229   114   224    1
   230   115   225    1
   231   115   226    1
   232   115   227    1
   233   117   228    1
   234   117   229    1
