@<TRIPOS>MOLECULE
*****
 70 73 0 0 0
SMALL
GASTEIGER

@<TRIPOS>ATOM
      1 C           6.2148   -3.9047   -2.1617 C.3     1  UNL1       -0.0586
      2 C           6.5726   -2.7531   -1.2708 C.3     1  UNL1        0.0030
      3 C           5.5234   -1.6744   -1.3997 C.2     1  UNL1        0.1331
      4 O           4.6090   -1.8640   -2.1453 O.2     1  UNL1       -0.2974
      5 C           5.6301   -0.4240   -0.6246 C.3     1  UNL1        0.0058
      6 C           4.4517    0.4792   -0.8498 C.3     1  UNL1       -0.0464
      7 C           3.1345   -0.0891   -0.4371 C.3     1  UNL1       -0.0526
      8 C           2.0293    0.9360   -0.7205 C.3     1  UNL1       -0.0510
      9 C           0.6882    0.3681   -0.3068 C.3     1  UNL1       -0.0275
     10 C          -0.3782    1.3848   -0.5914 C.3     1  UNL1        0.0810
     11 N          -0.1134    2.5898    0.1536 N.am    1  UNL1       -0.3052
     12 C           0.1780    3.8488   -0.4256 C.2     1  UNL1        0.2191
     13 O           0.2136    3.9482   -1.6716 O.2     1  UNL1       -0.2754
     14 C           0.4282    4.9934    0.4473 C.3     1  UNL1        0.0609
     15 C           0.7195    6.3023   -0.2408 C.3     1  UNL1        0.0109
     16 N           1.6792    6.5644    0.8459 N.3     1  UNL1       -0.3038
     17 C           2.8056    7.3575    0.4456 C.3     1  UNL1       -0.0127
     18 C           1.9069    5.1154    0.8492 C.3     1  UNL1        0.0109
     19 C          -1.7305    0.8589   -0.3290 C.ar    1  UNL1        0.1279
     20 N          -2.8796    1.5317   -0.2833 N.ar    1  UNL1       -0.2383
     21 C          -3.8758    0.6715   -0.0154 C.ar    1  UNL1        0.0537
     22 C          -3.3294   -0.6113    0.1151 C.ar    1  UNL1        0.0712
     23 C          -4.1455   -1.7982    0.4117 C.ar    1  UNL1        0.0619
     24 C          -5.5231   -1.6702    0.5674 C.ar    1  UNL1       -0.0383
     25 C          -6.2927   -2.7756    0.8447 C.ar    1  UNL1        0.0013
     26 C          -7.6784   -2.6551    1.0020 C.ar    1  UNL1       -0.0525
     27 C          -8.4451   -3.7667    1.2793 C.ar    1  UNL1       -0.0611
     28 C          -7.8254   -4.9909    1.3979 C.ar    1  UNL1       -0.0597
     29 C          -6.4579   -5.0979    1.2406 C.ar    1  UNL1       -0.0356
     30 C          -5.6638   -3.9923    0.9608 C.ar    1  UNL1        0.0748
     31 N          -4.3431   -4.1237    0.8130 N.ar    1  UNL1       -0.2124
     32 C          -3.5653   -3.0381    0.5379 C.ar    1  UNL1        0.2244
     33 O          -2.1899   -3.2055    0.3890 O.3     1  UNL1       -0.4792
     34 C          -1.6505   -4.5018    0.5296 C.3     1  UNL1        0.0804
     35 N          -2.0328   -0.4477   -0.0824 N.ar    1  UNL1       -0.3402
     36 H           5.8169   -4.7780   -1.5844 H       1  UNL1        0.0234
     37 H           7.1112   -4.2370   -2.7305 H       1  UNL1        0.0234
     38 H           5.3943   -3.6193   -2.8622 H       1  UNL1        0.0234
     39 H           6.6705   -3.0782   -0.2061 H       1  UNL1        0.0339
     40 H           7.5329   -2.2611   -1.5450 H       1  UNL1        0.0339
     41 H           5.7683   -0.6422    0.4768 H       1  UNL1        0.0342
     42 H           6.5663    0.1139   -0.9392 H       1  UNL1        0.0342
     43 H           4.6197    1.4646   -0.3376 H       1  UNL1        0.0269
     44 H           4.4328    0.6749   -1.9609 H       1  UNL1        0.0269
     45 H           2.9053   -1.0569   -0.8913 H       1  UNL1        0.0265
     46 H           3.1363   -0.2554    0.6809 H       1  UNL1        0.0265
     47 H           2.0386    1.0910   -1.8103 H       1  UNL1        0.0266
     48 H           2.3041    1.8436   -0.1473 H       1  UNL1        0.0266
     49 H           0.7213    0.1712    0.8004 H       1  UNL1        0.0287
     50 H           0.5431   -0.5631   -0.8796 H       1  UNL1        0.0287
     51 H          -0.2925    1.6615   -1.6697 H       1  UNL1        0.0579
     52 H          -0.1480    2.4891    1.2122 H       1  UNL1        0.1494
     53 H          -0.2152    5.0679    1.3404 H       1  UNL1        0.0419
     54 H          -0.0951    7.0427   -0.2397 H       1  UNL1        0.0434
     55 H           1.2079    6.1373   -1.2217 H       1  UNL1        0.0434
     56 H           2.9610    8.2369    1.1327 H       1  UNL1        0.0391
     57 H           2.7268    7.6725   -0.6141 H       1  UNL1        0.0391
     58 H           3.7227    6.7400    0.5536 H       1  UNL1        0.0391
     59 H           2.1507    4.6765    1.8134 H       1  UNL1        0.0434
     60 H           2.5169    4.7643   -0.0185 H       1  UNL1        0.0434
     61 H          -4.9355    0.9297    0.0842 H       1  UNL1        0.0851
     62 H          -5.9805   -0.7065    0.4702 H       1  UNL1        0.0632
     63 H          -8.1312   -1.6705    0.9006 H       1  UNL1        0.0624
     64 H          -9.5330   -3.7026    1.4076 H       1  UNL1        0.0618
     65 H          -8.3697   -5.9026    1.6145 H       1  UNL1        0.0618
     66 H          -5.9280   -6.0482    1.3263 H       1  UNL1        0.0639
     67 H          -1.5605   -4.8043    1.5945 H       1  UNL1        0.0660
     68 H          -0.6406   -4.5816    0.0719 H       1  UNL1        0.0660
     69 H          -2.3642   -5.2128    0.0656 H       1  UNL1        0.0660
     70 H          -1.3179   -1.2230   -0.0546 H       1  UNL1        0.1671
@<TRIPOS>BOND
     1     1     2    1
     2     2     3    1
     3     3     4    2
     4     3     5    1
     5     5     6    1
     6     6     7    1
     7     7     8    1
     8     8     9    1
     9     9    10    1
    10    10    11    1
    11    11    12   am
    12    12    13    2
    13    12    14    1
    14    14    15    1
    15    15    16    1
    16    16    17    1
    17    16    18    1
    18    10    19    1
    19    19    20   ar
    20    20    21   ar
    21    21    22   ar
    22    22    23    1
    23    23    24   ar
    24    24    25   ar
    25    25    26   ar
    26    26    27   ar
    27    27    28   ar
    28    28    29   ar
    29    29    30   ar
    30    30    31   ar
    31    31    32   ar
    32    32    33    1
    33    33    34    1
    34    22    35   ar
    35    18    14    1
    36    35    19   ar
    37    32    23   ar
    38    30    25   ar
    39     1    36    1
    40     1    37    1
    41     1    38    1
    42     2    39    1
    43     2    40    1
    44     5    41    1
    45     5    42    1
    46     6    43    1
    47     6    44    1
    48     7    45    1
    49     7    46    1
    50     8    47    1
    51     8    48    1
    52     9    49    1
    53     9    50    1
    54    10    51    1
    55    11    52    1
    56    14    53    1
    57    15    54    1
    58    15    55    1
    59    17    56    1
    60    17    57    1
    61    17    58    1
    62    18    59    1
    63    18    60    1
    64    21    61    1
    65    24    62    1
    66    26    63    1
    67    27    64    1
    68    28    65    1
    69    29    66    1
    70    34    67    1
    71    34    68    1
    72    34    69    1
    73    35    70    1
