@<TRIPOS>MOLECULE
*****
 49 51 0 0 0
SMALL
GASTEIGER

@<TRIPOS>ATOM
      1 O          -6.9337   -0.6280   -2.2030 O.2     1  UNL1       -0.2737
      2 C          -7.1091   -1.0829   -1.0439 C.2     1  UNL1        0.2354
      3 C          -6.2596   -0.6567    0.0971 C.3     1  UNL1        0.0259
      4 C          -5.2314    0.3440   -0.3735 C.3     1  UNL1       -0.0440
      5 C          -4.3382    0.8179    0.7339 C.3     1  UNL1       -0.0431
      6 C          -3.5670   -0.3286    1.3700 C.3     1  UNL1        0.0011
      7 S          -2.5095    0.3207    2.6968 S.3     1  UNL1       -0.0878
      8 C          -1.2609    1.3632    1.9429 C.ar    1  UNL1        0.1695
      9 N          -0.0763    0.8204    1.5486 N.ar    1  UNL1       -0.2232
     10 C           0.8941    1.5562    0.9783 C.ar    1  UNL1        0.0789
     11 C           2.1330    0.9337    0.5778 C.ar    1  UNL1        0.0006
     12 C           2.3552   -0.4359    0.7702 C.ar    1  UNL1       -0.0520
     13 C           3.5281   -1.0234    0.3901 C.ar    1  UNL1       -0.0534
     14 C           4.5450   -0.3013   -0.1982 C.ar    1  UNL1       -0.0178
     15 C           5.8082   -0.9284   -0.6083 C.ar    1  UNL1       -0.0179
     16 C           6.3269   -1.9896    0.0749 C.ar    1  UNL1       -0.0540
     17 C           7.5194   -2.6045   -0.2875 C.ar    1  UNL1       -0.0612
     18 C           8.2288   -2.1447   -1.3779 C.ar    1  UNL1       -0.0617
     19 C           7.6970   -1.0651   -2.0695 C.ar    1  UNL1       -0.0612
     20 C           6.5111   -0.4626   -1.6995 C.ar    1  UNL1       -0.0540
     21 C           4.3551    1.0440   -0.3994 C.ar    1  UNL1       -0.0534
     22 C           3.1592    1.6310   -0.0093 C.ar    1  UNL1       -0.0520
     23 C           0.6513    2.8910    0.8028 C.ar    1  UNL1        0.0288
     24 C          -0.5734    3.4587    1.2090 C.ar    1  UNL1        0.2526
     25 O          -0.7970    4.6877    1.0474 O.2     1  UNL1       -0.2678
     26 N          -1.4836    2.6688    1.7648 N.ar    1  UNL1       -0.3019
     27 N          -8.1544   -2.0267   -0.8538 N.am    1  UNL1       -0.1975
     28 O          -8.9098   -2.3952   -1.9091 O.3     1  UNL1       -0.2952
     29 H          -6.9142   -0.1810    0.8380 H       1  UNL1        0.0359
     30 H          -5.7659   -1.5210    0.5672 H       1  UNL1        0.0359
     31 H          -5.7381    1.2380   -0.7924 H       1  UNL1        0.0270
     32 H          -4.5750   -0.1445   -1.1440 H       1  UNL1        0.0270
     33 H          -3.6240    1.5421    0.2977 H       1  UNL1        0.0273
     34 H          -4.9291    1.3719    1.5086 H       1  UNL1        0.0273
     35 H          -4.2273   -1.0688    1.8211 H       1  UNL1        0.0381
     36 H          -2.9075   -0.7538    0.5905 H       1  UNL1        0.0381
     37 H           1.5428   -0.9990    1.2372 H       1  UNL1        0.0624
     38 H           3.6856   -2.0842    0.5454 H       1  UNL1        0.0624
     39 H           5.7770   -2.3605    0.9353 H       1  UNL1        0.0624
     40 H           7.9219   -3.4448    0.2604 H       1  UNL1        0.0618
     41 H           9.1702   -2.5939   -1.7025 H       1  UNL1        0.0618
     42 H           8.2550   -0.7008   -2.9299 H       1  UNL1        0.0618
     43 H           6.0921    0.3840   -2.2402 H       1  UNL1        0.0624
     44 H           5.1321    1.6343   -0.8571 H       1  UNL1        0.0624
     45 H           3.0928    2.7118   -0.2081 H       1  UNL1        0.0624
     46 H           1.3811    3.5396    0.3540 H       1  UNL1        0.0693
     47 H          -2.4230    3.0259    2.0929 H       1  UNL1        0.1708
     48 H          -8.3238   -2.4255    0.1123 H       1  UNL1        0.1822
     49 H          -9.1314   -1.6334   -2.5010 H       1  UNL1        0.2414
@<TRIPOS>BOND
     1     1     2    2
     2     2     3    1
     3     3     4    1
     4     4     5    1
     5     5     6    1
     6     6     7    1
     7     7     8    1
     8     8     9   ar
     9     9    10   ar
    10    10    11    1
    11    11    12   ar
    12    12    13   ar
    13    13    14   ar
    14    14    15    1
    15    15    16   ar
    16    16    17   ar
    17    17    18   ar
    18    18    19   ar
    19    19    20   ar
    20    14    21   ar
    21    21    22   ar
    22    10    23   ar
    23    23    24   ar
    24    24    25    2
    25    24    26   ar
    26     2    27   am
    27    27    28    1
    28    26     8   ar
    29    22    11   ar
    30    20    15   ar
    31     3    29    1
    32     3    30    1
    33     4    31    1
    34     4    32    1
    35     5    33    1
    36     5    34    1
    37     6    35    1
    38     6    36    1
    39    12    37    1
    40    13    38    1
    41    16    39    1
    42    17    40    1
    43    18    41    1
    44    19    42    1
    45    20    43    1
    46    21    44    1
    47    22    45    1
    48    23    46    1
    49    26    47    1
    50    27    48    1
    51    28    49    1
