
     RDKit          3D

 61 66  0  0  0  0  0  0  0  0999 V2000
    3.0651    1.0796   -2.4147 O   0  0  0  0  0  0  0  0  0  0  0  0
    2.9396    1.2893   -1.1877 C   0  0  0  0  0  0  0  0  0  0  0  0
    1.7548    2.0417   -0.6472 C   0  0  0  0  0  0  0  0  0  0  0  0
    1.3935    1.3956    0.6689 C   0  0  0  0  0  0  0  0  0  0  0  0
    1.1200   -0.0704    0.4954 C   0  0  0  0  0  0  0  0  0  0  0  0
   -0.1318   -0.3291   -0.3113 C   0  0  0  0  0  0  0  0  0  0  0  0
   -1.2405    0.4440    0.2008 N   0  0  0  0  0  0  0  0  0  0  0  0
   -2.4777   -0.1934    0.3981 C   0  0  0  0  0  0  0  0  0  0  0  0
   -2.5839   -1.4443    0.1225 O   0  0  0  0  0  0  0  0  0  0  0  0
   -3.6631    0.3938    0.8799 N   0  0  0  0  0  0  0  0  0  0  0  0
   -4.9066   -0.3525    1.0543 C   0  0  1  0  0  0  0  0  0  0  0  0
   -5.8553    0.0547    2.1267 C   0  0  0  0  0  0  0  0  0  0  0  0
   -6.1468    0.4581    0.7249 C   0  0  2  0  0  0  0  0  0  0  0  0
   -7.2688   -0.2046    0.0103 C   0  0  0  0  0  0  0  0  0  0  0  0
   -7.4698   -1.5452    0.2594 C   0  0  0  0  0  0  0  0  0  0  0  0
   -8.4896   -2.2382   -0.3612 C   0  0  0  0  0  0  0  0  0  0  0  0
   -9.3059   -1.5678   -1.2359 C   0  0  0  0  0  0  0  0  0  0  0  0
   -9.1010   -0.2246   -1.4825 C   0  0  0  0  0  0  0  0  0  0  0  0
   -8.0894    0.4672   -0.8682 C   0  0  0  0  0  0  0  0  0  0  0  0
   -1.0149    1.8329    0.4848 C   0  0  0  0  0  0  0  0  0  0  0  0
    0.2234    2.0485    1.3378 C   0  0  0  0  0  0  0  0  0  0  0  0
    2.5648    1.4946    1.4957 O   0  0  0  0  0  0  0  0  0  0  0  0
    3.7306    0.9163    1.0811 C   0  0  0  0  0  0  0  0  0  0  0  0
    4.7077    0.4406    1.9454 C   0  0  0  0  0  0  0  0  0  0  0  0
    5.8800   -0.1414    1.5133 C   0  0  0  0  0  0  0  0  0  0  0  0
    6.0936   -0.2574    0.1556 C   0  0  0  0  0  0  0  0  0  0  0  0
    7.3224   -0.8704   -0.3250 C   0  0  0  0  0  0  0  0  0  0  0  0
    7.9251   -0.5068   -1.5109 C   0  0  0  0  0  0  0  0  0  0  0  0
    9.0861   -1.1226   -1.9157 C   0  0  0  0  0  0  0  0  0  0  0  0
    9.6816   -2.0933   -1.1882 N   0  0  0  0  0  0  0  0  0  0  0  0
    9.1181   -2.4651   -0.0336 C   0  0  0  0  0  0  0  0  0  0  0  0
    7.9593   -1.8762    0.4071 C   0  0  0  0  0  0  0  0  0  0  0  0
    5.1488    0.2023   -0.7240 C   0  0  0  0  0  0  0  0  0  0  0  0
    3.9689    0.7883   -0.2804 C   0  0  0  0  0  0  0  0  0  0  0  0
    0.9184    1.9843   -1.3726 H   0  0  0  0  0  0  0  0  0  0  0  0
    2.0497    3.1063   -0.4276 H   0  0  0  0  0  0  0  0  0  0  0  0
    0.9294   -0.4876    1.5098 H   0  0  0  0  0  0  0  0  0  0  0  0
    1.9730   -0.6100    0.0832 H   0  0  0  0  0  0  0  0  0  0  0  0
    0.1108   -0.0014   -1.3624 H   0  0  0  0  0  0  0  0  0  0  0  0
   -0.3256   -1.4062   -0.3661 H   0  0  0  0  0  0  0  0  0  0  0  0
   -3.6711    1.3962    1.1247 H   0  0  0  0  0  0  0  0  0  0  0  0
   -4.9225   -1.4253    0.7931 H   0  0  0  0  0  0  0  0  0  0  0  0
   -6.4478   -0.6991    2.6453 H   0  0  0  0  0  0  0  0  0  0  0  0
   -5.4485    0.8353    2.8187 H   0  0  0  0  0  0  0  0  0  0  0  0
   -6.0462    1.5226    0.4872 H   0  0  0  0  0  0  0  0  0  0  0  0
   -6.8452   -2.0893    0.9383 H   0  0  0  0  0  0  0  0  0  0  0  0
   -8.6426   -3.2869   -0.1630 H   0  0  0  0  0  0  0  0  0  0  0  0
  -10.1197   -2.0653   -1.7482 H   0  0  0  0  0  0  0  0  0  0  0  0
   -9.7298    0.3192   -2.1647 H   0  0  0  0  0  0  0  0  0  0  0  0
   -7.9183    1.5150   -1.0514 H   0  0  0  0  0  0  0  0  0  0  0  0
   -0.9265    2.4432   -0.4560 H   0  0  0  0  0  0  0  0  0  0  0  0
   -1.8565    2.2059    1.0991 H   0  0  0  0  0  0  0  0  0  0  0  0
    0.3516    3.1413    1.4681 H   0  0  0  0  0  0  0  0  0  0  0  0
    0.0801    1.5594    2.3167 H   0  0  0  0  0  0  0  0  0  0  0  0
    4.5621    0.5199    3.0138 H   0  0  0  0  0  0  0  0  0  0  0  0
    6.6393   -0.5111    2.1759 H   0  0  0  0  0  0  0  0  0  0  0  0
    7.4580    0.2676   -2.1005 H   0  0  0  0  0  0  0  0  0  0  0  0
    9.5135   -0.7963   -2.8545 H   0  0  0  0  0  0  0  0  0  0  0  0
    9.5920   -3.2367    0.5435 H   0  0  0  0  0  0  0  0  0  0  0  0
    7.4871   -2.1664    1.3428 H   0  0  0  0  0  0  0  0  0  0  0  0
    5.2970    0.1208   -1.7946 H   0  0  0  0  0  0  0  0  0  0  0  0
  1  2  2  0
  2  3  1  0
  3  4  1  0
  4  5  1  0
  5  6  1  0
  6  7  1  0
  7  8  1  0
  8  9  2  0
  8 10  1  0
 10 11  1  0
 11 12  1  0
 12 13  1  0
 13 14  1  0
 14 15  2  0
 15 16  1  0
 16 17  2  0
 17 18  1  0
 18 19  2  0
  7 20  1  0
 20 21  1  0
  4 22  1  0
 22 23  1  0
 23 24  2  0
 24 25  1  0
 25 26  2  0
 26 27  1  0
 27 28  2  0
 28 29  1  0
 29 30  2  0
 30 31  1  0
 31 32  2  0
 26 33  1  0
 33 34  2  0
 34  2  1  0
 21  4  1  0
 34 23  1  0
 13 11  1  0
 19 14  1  0
 32 27  1  0
  3 35  1  0
  3 36  1  0
  5 37  1  0
  5 38  1  0
  6 39  1  0
  6 40  1  0
 10 41  1  0
 11 42  1  6
 12 43  1  0
 12 44  1  0
 13 45  1  1
 15 46  1  0
 16 47  1  0
 17 48  1  0
 18 49  1  0
 19 50  1  0
 20 51  1  0
 20 52  1  0
 21 53  1  0
 21 54  1  0
 24 55  1  0
 25 56  1  0
 28 57  1  0
 29 58  1  0
 31 59  1  0
 32 60  1  0
 33 61  1  0
M  END
$$$$
