@<TRIPOS>MOLECULE
*****
 61 66 0 0 0
SMALL
GASTEIGER

@<TRIPOS>ATOM
      1 O           3.0651    1.0796   -2.4147 O.2     1  UNL1       -0.2918
      2 C           2.9396    1.2893   -1.1877 C.2     1  UNL1        0.1705
      3 C           1.7548    2.0417   -0.6472 C.3     1  UNL1        0.0506
      4 C           1.3935    1.3956    0.6689 C.3     1  UNL1        0.1205
      5 C           1.1200   -0.0704    0.4954 C.3     1  UNL1        0.0034
      6 C          -0.1318   -0.3291   -0.3113 C.3     1  UNL1        0.0198
      7 N          -1.2405    0.4440    0.2008 N.am    1  UNL1       -0.2854
      8 C          -2.4777   -0.1934    0.3981 C.2     1  UNL1        0.3024
      9 O          -2.5839   -1.4443    0.1225 O.2     1  UNL1       -0.2526
     10 N          -3.6631    0.3938    0.8799 N.am    1  UNL1       -0.2958
     11 C          -4.9066   -0.3525    1.0543 C.3     1  UNL1        0.0320
     12 C          -5.8553    0.0547    2.1267 C.3     1  UNL1       -0.0254
     13 C          -6.1468    0.4581    0.7249 C.3     1  UNL1        0.0043
     14 C          -7.2688   -0.2046    0.0103 C.ar    1  UNL1       -0.0425
     15 C          -7.4698   -1.5452    0.2594 C.ar    1  UNL1       -0.0582
     16 C          -8.4896   -2.2382   -0.3612 C.ar    1  UNL1       -0.0615
     17 C          -9.3059   -1.5678   -1.2359 C.ar    1  UNL1       -0.0617
     18 C          -9.1010   -0.2246   -1.4825 C.ar    1  UNL1       -0.0615
     19 C          -8.0894    0.4672   -0.8682 C.ar    1  UNL1       -0.0582
     20 C          -1.0149    1.8329    0.4848 C.3     1  UNL1        0.0198
     21 C           0.2234    2.0485    1.3378 C.3     1  UNL1        0.0034
     22 O           2.5648    1.4946    1.4957 O.3     1  UNL1       -0.4845
     23 C           3.7306    0.9163    1.0811 C.ar    1  UNL1        0.1318
     24 C           4.7077    0.4406    1.9454 C.ar    1  UNL1       -0.0186
     25 C           5.8800   -0.1414    1.5133 C.ar    1  UNL1       -0.0505
     26 C           6.0936   -0.2574    0.1556 C.ar    1  UNL1       -0.0169
     27 C           7.3224   -0.8704   -0.3250 C.ar    1  UNL1       -0.0150
     28 C           7.9251   -0.5068   -1.5109 C.ar    1  UNL1       -0.0359
     29 C           9.0861   -1.1226   -1.9157 C.ar    1  UNL1        0.0281
     30 N           9.6816   -2.0933   -1.1882 N.ar    1  UNL1       -0.2632
     31 C           9.1181   -2.4651   -0.0336 C.ar    1  UNL1        0.0281
     32 C           7.9593   -1.8762    0.4071 C.ar    1  UNL1       -0.0359
     33 C           5.1488    0.2023   -0.7240 C.ar    1  UNL1       -0.0400
     34 C           3.9689    0.7883   -0.2804 C.ar    1  UNL1        0.0597
     35 H           0.9184    1.9843   -1.3726 H       1  UNL1        0.0384
     36 H           2.0497    3.1063   -0.4276 H       1  UNL1        0.0384
     37 H           0.9294   -0.4876    1.5098 H       1  UNL1        0.0319
     38 H           1.9730   -0.6100    0.0832 H       1  UNL1        0.0319
     39 H           0.1108   -0.0014   -1.3624 H       1  UNL1        0.0466
     40 H          -0.3256   -1.4062   -0.3661 H       1  UNL1        0.0466
     41 H          -3.6711    1.3962    1.1247 H       1  UNL1        0.1505
     42 H          -4.9225   -1.4253    0.7931 H       1  UNL1        0.0505
     43 H          -6.4478   -0.6991    2.6453 H       1  UNL1        0.0290
     44 H          -5.4485    0.8353    2.8187 H       1  UNL1        0.0290
     45 H          -6.0462    1.5226    0.4872 H       1  UNL1        0.0367
     46 H          -6.8452   -2.0893    0.9383 H       1  UNL1        0.0620
     47 H          -8.6426   -3.2869   -0.1630 H       1  UNL1        0.0618
     48 H         -10.1197   -2.0653   -1.7482 H       1  UNL1        0.0618
     49 H          -9.7298    0.3192   -2.1647 H       1  UNL1        0.0618
     50 H          -7.9183    1.5150   -1.0514 H       1  UNL1        0.0620
     51 H          -0.9265    2.4432   -0.4560 H       1  UNL1        0.0466
     52 H          -1.8565    2.2059    1.0991 H       1  UNL1        0.0466
     53 H           0.3516    3.1413    1.4681 H       1  UNL1        0.0319
     54 H           0.0801    1.5594    2.3167 H       1  UNL1        0.0319
     55 H           4.5621    0.5199    3.0138 H       1  UNL1        0.0654
     56 H           6.6393   -0.5111    2.1759 H       1  UNL1        0.0625
     57 H           7.4580    0.2676   -2.1005 H       1  UNL1        0.0639
     58 H           9.5135   -0.7963   -2.8545 H       1  UNL1        0.0830
     59 H           9.5920   -3.2367    0.5435 H       1  UNL1        0.0830
     60 H           7.4871   -2.1664    1.3428 H       1  UNL1        0.0639
     61 H           5.2970    0.1208   -1.7946 H       1  UNL1        0.0632
@<TRIPOS>BOND
     1     1     2    2
     2     2     3    1
     3     3     4    1
     4     4     5    1
     5     5     6    1
     6     6     7    1
     7     7     8   am
     8     8     9    2
     9     8    10   am
    10    10    11    1
    11    11    12    1
    12    12    13    1
    13    13    14    1
    14    14    15   ar
    15    15    16   ar
    16    16    17   ar
    17    17    18   ar
    18    18    19   ar
    19     7    20    1
    20    20    21    1
    21     4    22    1
    22    22    23    1
    23    23    24   ar
    24    24    25   ar
    25    25    26   ar
    26    26    27    1
    27    27    28   ar
    28    28    29   ar
    29    29    30   ar
    30    30    31   ar
    31    31    32   ar
    32    26    33   ar
    33    33    34   ar
    34    34     2    1
    35    21     4    1
    36    34    23   ar
    37    13    11    1
    38    19    14   ar
    39    32    27   ar
    40     3    35    1
    41     3    36    1
    42     5    37    1
    43     5    38    1
    44     6    39    1
    45     6    40    1
    46    10    41    1
    47    11    42    1
    48    12    43    1
    49    12    44    1
    50    13    45    1
    51    15    46    1
    52    16    47    1
    53    17    48    1
    54    18    49    1
    55    19    50    1
    56    20    51    1
    57    20    52    1
    58    21    53    1
    59    21    54    1
    60    24    55    1
    61    25    56    1
    62    28    57    1
    63    29    58    1
    64    31    59    1
    65    32    60    1
    66    33    61    1
