@<TRIPOS>MOLECULE
*****
 46 50 0 0 0
SMALL
GASTEIGER

@<TRIPOS>ATOM
      1 N           5.1582    1.2453    1.9922 N.am    1  UNL1       -0.3241
      2 C           3.8279    0.9546    1.5961 C.2     1  UNL1        0.2599
      3 O           2.8614    1.3767    2.2616 O.2     1  UNL1       -0.2687
      4 C           3.5891    0.1595    0.4061 C.ar    1  UNL1        0.1280
      5 C           4.5791   -0.3755   -0.4271 C.ar    1  UNL1        0.0588
      6 N           3.9777   -1.0479   -1.4226 N.ar    1  UNL1       -0.2353
      7 C           2.6605   -0.9706   -1.2694 C.ar    1  UNL1        0.1381
      8 C           1.6164   -1.4969   -2.0336 C.ar    1  UNL1       -0.0182
      9 C           0.3422   -1.2214   -1.5845 C.ar    1  UNL1       -0.0477
     10 C           0.0733   -0.4774   -0.4568 C.ar    1  UNL1        0.0173
     11 C          -1.2913   -0.2050   -0.0155 C.ar    1  UNL1        0.0781
     12 C          -1.8050    1.0683    0.1016 C.ar    1  UNL1        0.0967
     13 C          -1.0911    2.3057   -0.1868 C.ar    1  UNL1        0.0026
     14 C          -0.6098    2.6198   -1.4434 C.ar    1  UNL1       -0.0498
     15 C           0.0684    3.7918   -1.7223 C.ar    1  UNL1       -0.0258
     16 C           0.2853    4.7040   -0.7130 C.ar    1  UNL1        0.1234
     17 F           0.9465    5.8764   -0.9248 F       1  UNL1       -0.2055
     18 C          -0.1820    4.4212    0.5523 C.ar    1  UNL1       -0.0258
     19 C          -0.8567    3.2490    0.8175 C.ar    1  UNL1       -0.0498
     20 N          -3.0772    0.9629    0.5277 N.ar    1  UNL1       -0.2351
     21 C          -3.3848   -0.3353    0.6840 C.ar    1  UNL1        0.0973
     22 N          -2.2843   -1.0330    0.3483 N.ar    1  UNL1       -0.3261
     23 C          -2.1797   -2.4624    0.3712 C.3     1  UNL1        0.0468
     24 C          -2.9842   -3.1639   -0.7313 C.3     1  UNL1        0.0319
     25 C          -3.3137   -4.2262    0.2972 C.3     1  UNL1        0.2527
     26 F          -2.3564   -5.2349    0.2989 F       1  UNL1       -0.2055
     27 F          -4.6104   -4.6929    0.2349 F       1  UNL1       -0.2055
     28 C          -3.0662   -3.1784    1.3670 C.3     1  UNL1        0.0319
     29 C           1.1732    0.0087    0.2457 C.ar    1  UNL1        0.0211
     30 N           2.4313   -0.2374   -0.1590 N.ar    1  UNL1       -0.2949
     31 H           5.9761    0.6276    1.8008 H       1  UNL1        0.1453
     32 H           5.3711    2.1313    2.5139 H       1  UNL1        0.1453
     33 H           5.6273   -0.2609   -0.2841 H       1  UNL1        0.0853
     34 H           1.8070   -2.0833   -2.9220 H       1  UNL1        0.0654
     35 H          -0.5099   -1.5983   -2.1291 H       1  UNL1        0.0626
     36 H          -0.7605    1.9289   -2.2629 H       1  UNL1        0.0625
     37 H           0.4481    4.0434   -2.7050 H       1  UNL1        0.0646
     38 H           0.0003    5.1516    1.3272 H       1  UNL1        0.0646
     39 H          -1.2115    3.0464    1.8018 H       1  UNL1        0.0625
     40 H          -4.3540   -0.7260    1.0220 H       1  UNL1        0.1029
     41 H          -1.1549   -2.8812    0.4384 H       1  UNL1        0.0532
     42 H          -3.8598   -2.5749   -1.0774 H       1  UNL1        0.0343
     43 H          -2.2946   -3.5195   -1.5134 H       1  UNL1        0.0343
     44 H          -2.5504   -3.6046    2.2481 H       1  UNL1        0.0343
     45 H          -4.0294   -2.6548    1.6035 H       1  UNL1        0.0343
     46 H           0.9976    0.5898    1.1259 H       1  UNL1        0.0820
@<TRIPOS>BOND
     1     1     2   am
     2     2     3    2
     3     2     4    1
     4     4     5   ar
     5     5     6   ar
     6     6     7   ar
     7     7     8   ar
     8     8     9   ar
     9     9    10   ar
    10    10    11    1
    11    11    12   ar
    12    12    13    1
    13    13    14   ar
    14    14    15   ar
    15    15    16   ar
    16    16    17    1
    17    16    18   ar
    18    18    19   ar
    19    12    20   ar
    20    20    21   ar
    21    21    22   ar
    22    22    23    1
    23    23    24    1
    24    24    25    1
    25    25    26    1
    26    25    27    1
    27    25    28    1
    28    10    29   ar
    29    29    30   ar
    30    30     4   ar
    31    30     7   ar
    32    22    11   ar
    33    28    23    1
    34    19    13   ar
    35     1    31    1
    36     1    32    1
    37     5    33    1
    38     8    34    1
    39     9    35    1
    40    14    36    1
    41    15    37    1
    42    18    38    1
    43    19    39    1
    44    21    40    1
    45    23    41    1
    46    24    42    1
    47    24    43    1
    48    28    44    1
    49    28    45    1
    50    29    46    1
