
     RDKit          3D

 50 51  0  0  0  0  0  0  0  0999 V2000
    6.7410    0.7692   -0.4809 C   0  0  0  0  0  0  0  0  0  0  0  0
    5.7222    1.7164   -0.2211 O   0  0  0  0  0  0  0  0  0  0  0  0
    4.3893    1.3956   -0.5288 C   0  0  0  0  0  0  0  0  0  0  0  0
    4.0555    0.1766   -1.0785 C   0  0  0  0  0  0  0  0  0  0  0  0
    2.7347   -0.1367   -1.3815 C   0  0  0  0  0  0  0  0  0  0  0  0
    1.7143    0.7595   -1.1431 C   0  0  0  0  0  0  0  0  0  0  0  0
    0.0536    0.4089   -1.5102 S   0  0  0  0  0  6  0  0  0  0  0  0
    0.0199   -0.5335   -2.7215 O   0  0  0  0  0  0  0  0  0  0  0  0
   -0.7505    1.5911   -1.9039 O   0  0  0  0  0  0  0  0  0  0  0  0
   -0.7047   -0.3770   -0.1761 N   0  0  0  0  0  0  0  0  0  0  0  0
   -0.7271    0.3656    0.9427 C   0  0  0  0  0  0  0  0  0  0  0  0
   -1.8423    1.2976    1.2458 C   0  0  0  0  0  0  0  0  0  0  0  0
   -1.7916    2.6244    0.8664 C   0  0  0  0  0  0  0  0  0  0  0  0
   -2.8237    3.5072    1.1388 C   0  0  0  0  0  0  0  0  0  0  0  0
   -3.9369    3.0858    1.8001 C   0  0  0  0  0  0  0  0  0  0  0  0
   -3.9980    1.8012    2.1739 N   0  0  0  0  0  0  0  0  0  0  0  0
   -2.9993    0.9267    1.9155 C   0  0  0  0  0  0  0  0  0  0  0  0
   -1.2702   -1.5415   -0.5454 C   0  0  1  0  0  0  0  0  0  0  0  0
   -0.4340   -2.6400    0.0269 C   0  0  0  0  0  0  0  0  0  0  0  0
   -0.7242   -3.8584   -0.0153 O   0  0  0  0  0  0  0  0  0  0  0  0
    0.7810   -2.2996    0.6671 N   0  0  0  0  0  0  0  0  0  0  0  0
    1.5739   -3.2847    1.2056 O   0  0  0  0  0  0  0  0  0  0  0  0
   -2.6816   -1.8943   -0.2884 C   0  0  0  0  0  0  0  0  0  0  0  0
   -3.0357   -3.2646   -0.8310 C   0  0  0  0  0  0  0  0  0  0  0  0
   -3.7103   -0.9345   -0.8276 C   0  0  0  0  0  0  0  0  0  0  0  0
    2.0510    1.9698   -0.5967 C   0  0  0  0  0  0  0  0  0  0  0  0
    3.3723    2.2931   -0.2895 C   0  0  0  0  0  0  0  0  0  0  0  0
    6.8360    0.5700   -1.5769 H   0  0  0  0  0  0  0  0  0  0  0  0
    6.5225   -0.1752    0.0559 H   0  0  0  0  0  0  0  0  0  0  0  0
    7.7026    1.2031   -0.0979 H   0  0  0  0  0  0  0  0  0  0  0  0
    4.8486   -0.5280   -1.2672 H   0  0  0  0  0  0  0  0  0  0  0  0
    2.5264   -1.1080   -1.8120 H   0  0  0  0  0  0  0  0  0  0  0  0
    0.1895    1.0474    0.9194 H   0  0  0  0  0  0  0  0  0  0  0  0
   -0.5306   -0.1675    1.9358 H   0  0  0  0  0  0  0  0  0  0  0  0
   -0.9535    3.0631    0.3462 H   0  0  0  0  0  0  0  0  0  0  0  0
   -2.7728    4.5543    0.8337 H   0  0  0  0  0  0  0  0  0  0  0  0
   -4.7638    3.7699    2.0245 H   0  0  0  0  0  0  0  0  0  0  0  0
   -3.0896   -0.0773    2.2324 H   0  0  0  0  0  0  0  0  0  0  0  0
   -1.1100   -1.7134   -1.6636 H   0  0  0  0  0  0  0  0  0  0  0  0
    1.1651   -1.3383    0.7783 H   0  0  0  0  0  0  0  0  0  0  0  0
    0.9391   -3.9680    1.5393 H   0  0  0  0  0  0  0  0  0  0  0  0
   -2.9020   -1.9645    0.8005 H   0  0  0  0  0  0  0  0  0  0  0  0
   -3.0223   -4.0625   -0.0740 H   0  0  0  0  0  0  0  0  0  0  0  0
   -2.3350   -3.5423   -1.6411 H   0  0  0  0  0  0  0  0  0  0  0  0
   -4.0453   -3.2752   -1.3006 H   0  0  0  0  0  0  0  0  0  0  0  0
   -3.9227   -1.2725   -1.8673 H   0  0  0  0  0  0  0  0  0  0  0  0
   -4.6628   -1.0113   -0.2888 H   0  0  0  0  0  0  0  0  0  0  0  0
   -3.3347    0.1010   -0.9307 H   0  0  0  0  0  0  0  0  0  0  0  0
    1.2939    2.7244   -0.3847 H   0  0  0  0  0  0  0  0  0  0  0  0
    3.6428    3.2471    0.1420 H   0  0  0  0  0  0  0  0  0  0  0  0
  1  2  1  0
  2  3  1  0
  3  4  2  0
  4  5  1  0
  5  6  2  0
  6  7  1  0
  7  8  2  0
  7  9  2  0
  7 10  1  0
 10 11  1  0
 11 12  1  0
 12 13  2  0
 13 14  1  0
 14 15  2  0
 15 16  1  0
 16 17  2  0
 10 18  1  0
 18 19  1  0
 19 20  2  0
 19 21  1  0
 21 22  1  0
 18 23  1  0
 23 24  1  0
 23 25  1  0
  6 26  1  0
 26 27  2  0
 27  3  1  0
 17 12  1  0
  1 28  1  0
  1 29  1  0
  1 30  1  0
  4 31  1  0
  5 32  1  0
 11 33  1  0
 11 34  1  0
 13 35  1  0
 14 36  1  0
 15 37  1  0
 17 38  1  0
 18 39  1  6
 21 40  1  0
 22 41  1  0
 23 42  1  0
 24 43  1  0
 24 44  1  0
 24 45  1  0
 25 46  1  0
 25 47  1  0
 25 48  1  0
 26 49  1  0
 27 50  1  0
M  END
$$$$
