@<TRIPOS>MOLECULE
*****
 50 51 0 0 0
SMALL
GASTEIGER

@<TRIPOS>ATOM
      1 C           6.7410    0.7692   -0.4809 C.3     1  UNL1        0.0788
      2 O           5.7222    1.7164   -0.2211 O.3     1  UNL1       -0.4951
      3 C           4.3893    1.3956   -0.5288 C.ar    1  UNL1        0.1202
      4 C           4.0555    0.1766   -1.0785 C.ar    1  UNL1       -0.0181
      5 C           2.7347   -0.1367   -1.3815 C.ar    1  UNL1       -0.0319
      6 C           1.7143    0.7595   -1.1431 C.ar    1  UNL1        0.1057
      7 S           0.0536    0.4089   -1.5102 S.O2    1  UNL1        0.0618
      8 O           0.0199   -0.5335   -2.7215 O.2     1  UNL1       -0.1528
      9 O          -0.7505    1.5911   -1.9039 O.2     1  UNL1       -0.1528
     10 N          -0.7047   -0.3770   -0.1761 N.3     1  UNL1       -0.1601
     11 C          -0.7271    0.3656    0.9427 C.3     1  UNL1        0.0478
     12 C          -1.8423    1.2976    1.2458 C.ar    1  UNL1       -0.0136
     13 C          -1.7916    2.6244    0.8664 C.ar    1  UNL1       -0.0544
     14 C          -2.8237    3.5072    1.1388 C.ar    1  UNL1       -0.0433
     15 C          -3.9369    3.0858    1.8001 C.ar    1  UNL1        0.0276
     16 N          -3.9980    1.8012    2.1739 N.ar    1  UNL1       -0.2629
     17 C          -2.9993    0.9267    1.9155 C.ar    1  UNL1        0.0320
     18 C          -1.2702   -1.5415   -0.5454 C.3     1  UNL1        0.1124
     19 C          -0.4340   -2.6400    0.0269 C.2     1  UNL1        0.2546
     20 O          -0.7242   -3.8584   -0.0153 O.2     1  UNL1       -0.2719
     21 N           0.7810   -2.2996    0.6671 N.am    1  UNL1       -0.1961
     22 O           1.5739   -3.2847    1.2056 O.3     1  UNL1       -0.2951
     23 C          -2.6816   -1.8943   -0.2884 C.3     1  UNL1       -0.0209
     24 C          -3.0357   -3.2646   -0.8310 C.3     1  UNL1       -0.0607
     25 C          -3.7103   -0.9345   -0.8276 C.3     1  UNL1       -0.0607
     26 C           2.0510    1.9698   -0.5967 C.ar    1  UNL1       -0.0319
     27 C           3.3723    2.2931   -0.2895 C.ar    1  UNL1       -0.0181
     28 H           6.8360    0.5700   -1.5769 H       1  UNL1        0.0660
     29 H           6.5225   -0.1752    0.0559 H       1  UNL1        0.0660
     30 H           7.7026    1.2031   -0.0979 H       1  UNL1        0.0660
     31 H           4.8486   -0.5280   -1.2672 H       1  UNL1        0.0655
     32 H           2.5264   -1.1080   -1.8120 H       1  UNL1        0.0638
     33 H           0.1895    1.0474    0.9194 H       1  UNL1        0.0494
     34 H          -0.5306   -0.1675    1.9358 H       1  UNL1        0.0494
     35 H          -0.9535    3.0631    0.3462 H       1  UNL1        0.0622
     36 H          -2.7728    4.5543    0.8337 H       1  UNL1        0.0633
     37 H          -4.7638    3.7699    2.0245 H       1  UNL1        0.0829
     38 H          -3.0896   -0.0773    2.2324 H       1  UNL1        0.0833
     39 H          -1.1100   -1.7134   -1.6636 H       1  UNL1        0.0579
     40 H           1.1651   -1.3383    0.7783 H       1  UNL1        0.1822
     41 H           0.9391   -3.9680    1.5393 H       1  UNL1        0.2414
     42 H          -2.9020   -1.9645    0.8005 H       1  UNL1        0.0316
     43 H          -3.0223   -4.0625   -0.0740 H       1  UNL1        0.0233
     44 H          -2.3350   -3.5423   -1.6411 H       1  UNL1        0.0233
     45 H          -4.0453   -3.2752   -1.3006 H       1  UNL1        0.0233
     46 H          -3.9227   -1.2725   -1.8673 H       1  UNL1        0.0233
     47 H          -4.6628   -1.0113   -0.2888 H       1  UNL1        0.0233
     48 H          -3.3347    0.1010   -0.9307 H       1  UNL1        0.0233
     49 H           1.2939    2.7244   -0.3847 H       1  UNL1        0.0638
     50 H           3.6428    3.2471    0.1420 H       1  UNL1        0.0655
@<TRIPOS>BOND
     1     1     2    1
     2     2     3    1
     3     3     4   ar
     4     4     5   ar
     5     5     6   ar
     6     6     7    1
     7     7     8    2
     8     7     9    2
     9     7    10    1
    10    10    11    1
    11    11    12    1
    12    12    13   ar
    13    13    14   ar
    14    14    15   ar
    15    15    16   ar
    16    16    17   ar
    17    10    18    1
    18    18    19    1
    19    19    20    2
    20    19    21   am
    21    21    22    1
    22    18    23    1
    23    23    24    1
    24    23    25    1
    25     6    26   ar
    26    26    27   ar
    27    27     3   ar
    28    17    12   ar
    29     1    28    1
    30     1    29    1
    31     1    30    1
    32     4    31    1
    33     5    32    1
    34    11    33    1
    35    11    34    1
    36    13    35    1
    37    14    36    1
    38    15    37    1
    39    17    38    1
    40    18    39    1
    41    21    40    1
    42    22    41    1
    43    23    42    1
    44    24    43    1
    45    24    44    1
    46    24    45    1
    47    25    46    1
    48    25    47    1
    49    25    48    1
    50    26    49    1
    51    27    50    1
