@<TRIPOS>MOLECULE
*****
 67 67 0 0 0
SMALL
GASTEIGER

@<TRIPOS>ATOM
      1 C           8.9585    2.2579   -1.0007 C.3     1  UNL1       -0.0653
      2 C           8.1976    1.1642   -0.2473 C.3     1  UNL1       -0.0559
      3 C           7.4587    1.7877    0.9094 C.3     1  UNL1       -0.0533
      4 C           6.6992    0.7844    1.7043 C.3     1  UNL1       -0.0531
      5 C           5.6723    0.0989    0.8026 C.3     1  UNL1       -0.0531
      6 C           4.8895   -0.9052    1.5864 C.3     1  UNL1       -0.0530
      7 C           3.8909   -1.5920    0.7119 C.3     1  UNL1       -0.0510
      8 C           2.9003   -0.6277    0.1160 C.3     1  UNL1       -0.0295
      9 C           1.8933   -1.3663   -0.7542 C.3     1  UNL1        0.0477
     10 O           1.2452   -2.2739    0.0625 O.3     1  UNL1       -0.3798
     11 C           0.2895   -3.0308   -0.5873 C.3     1  UNL1        0.0477
     12 C          -0.8109   -2.2028   -1.2005 C.3     1  UNL1       -0.0294
     13 C          -1.4902   -1.4290   -0.0865 C.3     1  UNL1       -0.0498
     14 C          -2.6198   -0.5703   -0.6660 C.3     1  UNL1       -0.0401
     15 C          -3.2850    0.1852    0.4112 C.3     1  UNL1       -0.0006
     16 N          -4.3462    1.0282    0.0829 N.3     1  UNL1       -0.2923
     17 C          -4.9221    1.7166    1.1890 C.3     1  UNL1        0.0279
     18 C          -6.0626    0.9371    1.7738 C.3     1  UNL1        0.0962
     19 O          -5.6601   -0.2911    2.2933 O.3     1  UNL1       -0.3879
     20 C          -7.0975    0.7575    0.6937 C.3     1  UNL1        0.1095
     21 O          -8.1919    1.5880    1.0309 O.3     1  UNL1       -0.3866
     22 C          -6.6048    1.2207   -0.6359 C.3     1  UNL1        0.1011
     23 O          -7.5088    0.7232   -1.6039 O.3     1  UNL1       -0.3875
     24 C          -5.2082    0.6914   -0.9688 C.3     1  UNL1        0.0621
     25 C          -4.8274    1.4213   -2.2655 C.3     1  UNL1        0.0622
     26 O          -5.7790    0.9801   -3.2146 O.3     1  UNL1       -0.3934
     27 H           8.8288    2.1498   -2.1032 H       1  UNL1        0.0230
     28 H          10.0384    2.2041   -0.7521 H       1  UNL1        0.0230
     29 H           8.5586    3.2311   -0.6994 H       1  UNL1        0.0230
     30 H           8.8808    0.3768    0.1081 H       1  UNL1        0.0263
     31 H           7.4354    0.7740   -0.9590 H       1  UNL1        0.0263
     32 H           8.1914    2.3169    1.5716 H       1  UNL1        0.0265
     33 H           6.7861    2.5614    0.4638 H       1  UNL1        0.0265
     34 H           6.1661    1.2807    2.5389 H       1  UNL1        0.0265
     35 H           7.3380   -0.0203    2.1142 H       1  UNL1        0.0265
     36 H           5.0757    0.8582    0.2766 H       1  UNL1        0.0265
     37 H           6.2375   -0.4915    0.0267 H       1  UNL1        0.0265
     38 H           5.6350   -1.6454    1.9922 H       1  UNL1        0.0265
     39 H           4.3703   -0.4108    2.4582 H       1  UNL1        0.0265
     40 H           4.4068   -2.1306   -0.1297 H       1  UNL1        0.0266
     41 H           3.3329   -2.3574    1.3133 H       1  UNL1        0.0266
     42 H           2.3261   -0.1716    0.9495 H       1  UNL1        0.0287
     43 H           3.4004    0.1478   -0.4975 H       1  UNL1        0.0287
     44 H           1.1698   -0.6030   -1.1079 H       1  UNL1        0.0560
     45 H           2.3905   -1.8376   -1.6303 H       1  UNL1        0.0560
     46 H          -0.1462   -3.7166    0.1821 H       1  UNL1        0.0560
     47 H           0.7519   -3.7111   -1.3447 H       1  UNL1        0.0560
     48 H          -0.3987   -1.5673   -1.9837 H       1  UNL1        0.0287
     49 H          -1.5109   -2.9141   -1.6897 H       1  UNL1        0.0287
     50 H          -1.8642   -2.1339    0.6598 H       1  UNL1        0.0266
     51 H          -0.7462   -0.7252    0.3317 H       1  UNL1        0.0266
     52 H          -3.2441   -1.2333   -1.2557 H       1  UNL1        0.0278
     53 H          -2.0862    0.1429   -1.3618 H       1  UNL1        0.0278
     54 H          -2.4910    0.7893    0.9416 H       1  UNL1        0.0427
     55 H          -3.6194   -0.5508    1.1935 H       1  UNL1        0.0427
     56 H          -4.2040    1.9154    1.9924 H       1  UNL1        0.0453
     57 H          -5.3615    2.7039    0.8590 H       1  UNL1        0.0453
     58 H          -6.4797    1.5033    2.6550 H       1  UNL1        0.0633
     59 H          -6.0379   -0.9926    1.7287 H       1  UNL1        0.2099
     60 H          -7.5118   -0.2681    0.6776 H       1  UNL1        0.0646
     61 H          -8.9110    1.0754    1.4759 H       1  UNL1        0.2100
     62 H          -6.5921    2.3062   -0.7595 H       1  UNL1        0.0636
     63 H          -7.7999   -0.2064   -1.3506 H       1  UNL1        0.2100
     64 H          -5.3444   -0.3863   -1.1705 H       1  UNL1        0.0511
     65 H          -4.9638    2.4946   -2.0906 H       1  UNL1        0.0573
     66 H          -3.8563    1.1194   -2.6487 H       1  UNL1        0.0573
     67 H          -5.8319   -0.0135   -3.1126 H       1  UNL1        0.2095
@<TRIPOS>BOND
     1     1     2    1
     2     2     3    1
     3     3     4    1
     4     4     5    1
     5     5     6    1
     6     6     7    1
     7     7     8    1
     8     8     9    1
     9     9    10    1
    10    10    11    1
    11    11    12    1
    12    12    13    1
    13    13    14    1
    14    14    15    1
    15    15    16    1
    16    16    17    1
    17    17    18    1
    18    18    19    1
    19    18    20    1
    20    20    21    1
    21    20    22    1
    22    22    23    1
    23    22    24    1
    24    24    25    1
    25    25    26    1
    26    24    16    1
    27     1    27    1
    28     1    28    1
    29     1    29    1
    30     2    30    1
    31     2    31    1
    32     3    32    1
    33     3    33    1
    34     4    34    1
    35     4    35    1
    36     5    36    1
    37     5    37    1
    38     6    38    1
    39     6    39    1
    40     7    40    1
    41     7    41    1
    42     8    42    1
    43     8    43    1
    44     9    44    1
    45     9    45    1
    46    11    46    1
    47    11    47    1
    48    12    48    1
    49    12    49    1
    50    13    50    1
    51    13    51    1
    52    14    52    1
    53    14    53    1
    54    15    54    1
    55    15    55    1
    56    17    56    1
    57    17    57    1
    58    18    58    1
    59    19    59    1
    60    20    60    1
    61    21    61    1
    62    22    62    1
    63    23    63    1
    64    24    64    1
    65    25    65    1
    66    25    66    1
    67    26    67    1
