@<TRIPOS>MOLECULE
*****
 48 52 0 0 0
SMALL
GASTEIGER

@<TRIPOS>ATOM
      1 O           4.1625   -1.7074   -2.3706 O.2     1  UNL1       -0.1643
      2 S           4.1966   -0.3761   -1.7111 S.O2    1  UNL1        0.0253
      3 O           4.8568    0.5934   -2.6518 O.2     1  UNL1       -0.1643
      4 C           5.1784   -0.5203   -0.2647 C.ar    1  UNL1        0.0963
      5 C           5.8855    0.5645    0.1917 C.ar    1  UNL1       -0.0363
      6 C           6.6748    0.5178    1.3204 C.ar    1  UNL1       -0.0572
      7 C           6.7453   -0.6759    2.0068 C.ar    1  UNL1       -0.0263
      8 C           6.0569   -1.7832    1.5876 C.ar    1  UNL1        0.1252
      9 F           6.1546   -2.9360    2.2919 F       1  UNL1       -0.2054
     10 C           5.2687   -1.6976    0.4414 C.ar    1  UNL1       -0.0012
     11 C           2.5633    0.1278   -1.3123 C.ar    1  UNL1        0.0971
     12 C           2.2380    1.4667   -1.2621 C.ar    1  UNL1       -0.0357
     13 C           0.9492    1.8864   -0.9478 C.ar    1  UNL1       -0.0489
     14 C          -0.0389    0.9697   -0.6777 C.ar    1  UNL1        0.0238
     15 C          -1.3838    1.1189   -0.3429 C.ar    1  UNL1        0.0044
     16 C          -1.8296   -0.1790   -0.2001 C.ar    1  UNL1        0.1317
     17 O          -0.8411   -1.0042   -0.4293 O.2     1  UNL1       -0.4574
     18 C           0.2635   -0.3745   -0.7220 C.ar    1  UNL1        0.1374
     19 C           1.5621   -0.7784   -1.0391 C.ar    1  UNL1        0.0065
     20 C          -3.2733   -0.3181    0.1665 C.3     1  UNL1        0.1015
     21 C          -4.1284   -0.3149   -1.0529 C.3     1  UNL1       -0.0233
     22 C          -5.5759   -0.3912   -0.6203 C.3     1  UNL1       -0.0273
     23 C          -5.6775   -1.4501    0.4493 C.3     1  UNL1        0.0478
     24 O          -4.5865   -2.3098    0.4524 O.3     1  UNL1       -0.3775
     25 C          -3.4050   -1.6979    0.8249 C.3     1  UNL1        0.0729
     26 N          -3.6356    0.6479    1.1608 N.3     1  UNL1       -0.3022
     27 C          -3.3773    2.0063    0.8363 C.3     1  UNL1        0.0009
     28 C          -2.2878    2.2645   -0.1438 C.3     1  UNL1       -0.0112
     29 H           5.8207    1.5042   -0.3616 H       1  UNL1        0.0637
     30 H           7.2350    1.3958    1.6729 H       1  UNL1        0.0619
     31 H           7.3672   -0.7003    2.8899 H       1  UNL1        0.0646
     32 H           4.7138   -2.5489    0.0831 H       1  UNL1        0.0665
     33 H           2.9987    2.2001   -1.4707 H       1  UNL1        0.0637
     34 H           0.6784    2.9286   -0.9043 H       1  UNL1        0.0625
     35 H           1.7964   -1.8215   -1.0734 H       1  UNL1        0.0674
     36 H          -3.8843   -1.2335   -1.6390 H       1  UNL1        0.0289
     37 H          -3.9685    0.5357   -1.7153 H       1  UNL1        0.0289
     38 H          -5.8649    0.5949   -0.1983 H       1  UNL1        0.0288
     39 H          -6.2523   -0.5991   -1.4912 H       1  UNL1        0.0288
     40 H          -5.8913   -1.0186    1.4536 H       1  UNL1        0.0560
     41 H          -6.5660   -2.0802    0.1875 H       1  UNL1        0.0560
     42 H          -2.5682   -2.3617    0.4988 H       1  UNL1        0.0583
     43 H          -3.3133   -1.6046    1.9366 H       1  UNL1        0.0583
     44 H          -3.1282    0.3889    2.0420 H       1  UNL1        0.1229
     45 H          -3.0829    2.5397    1.7891 H       1  UNL1        0.0427
     46 H          -4.3418    2.5213    0.5532 H       1  UNL1        0.0427
     47 H          -1.6860    3.1765    0.1101 H       1  UNL1        0.0327
     48 H          -2.7781    2.5332   -1.1260 H       1  UNL1        0.0327
@<TRIPOS>BOND
     1     1     2    2
     2     2     3    2
     3     2     4    1
     4     4     5   ar
     5     5     6   ar
     6     6     7   ar
     7     7     8   ar
     8     8     9    1
     9     8    10   ar
    10     2    11    1
    11    11    12   ar
    12    12    13   ar
    13    13    14   ar
    14    14    15   ar
    15    15    16   ar
    16    16    17   ar
    17    17    18   ar
    18    18    19   ar
    19    16    20    1
    20    20    21    1
    21    21    22    1
    22    22    23    1
    23    23    24    1
    24    24    25    1
    25    20    26    1
    26    26    27    1
    27    27    28    1
    28    10     4   ar
    29    19    11   ar
    30    25    20    1
    31    18    14   ar
    32    28    15    1
    33     5    29    1
    34     6    30    1
    35     7    31    1
    36    10    32    1
    37    12    33    1
    38    13    34    1
    39    19    35    1
    40    21    36    1
    41    21    37    1
    42    22    38    1
    43    22    39    1
    44    23    40    1
    45    23    41    1
    46    25    42    1
    47    25    43    1
    48    26    44    1
    49    27    45    1
    50    27    46    1
    51    28    47    1
    52    28    48    1
