@<TRIPOS>MOLECULE
*****
 42 45 0 0 0
SMALL
GASTEIGER

@<TRIPOS>ATOM
      1 N          -2.4119    3.4309    0.3480 N.pl3   1  UNL1       -0.3134
      2 C          -2.9058    2.1151    0.1676 C.2     1  UNL1        0.2764
      3 N          -2.1671    1.0946    0.4282 N.2     1  UNL1       -0.2194
      4 C          -2.6763   -0.2419    0.2425 C.3     1  UNL1        0.1603
      5 C          -1.4835   -1.1431    0.0681 C.ar    1  UNL1        0.0228
      6 C          -0.1835   -0.6285    0.1083 C.ar    1  UNL1       -0.0321
      7 C           0.8976   -1.4516   -0.0489 C.ar    1  UNL1        0.0342
      8 N           2.2446   -1.0052   -0.0205 N.am    1  UNL1       -0.2802
      9 C           2.7057    0.3146    0.1671 C.2     1  UNL1        0.2666
     10 O           1.8807    1.2368    0.3318 O.2     1  UNL1       -0.2682
     11 C           4.1619    0.6171    0.1704 C.ar    1  UNL1        0.1257
     12 C           4.5921    1.9004    0.3533 C.ar    1  UNL1       -0.0301
     13 C           5.9650    2.1127    0.3453 C.ar    1  UNL1       -0.0441
     14 C           6.8433    1.0535    0.1582 C.ar    1  UNL1        0.0360
     15 BR          8.7366    1.3407    0.1463 Br      1  UNL1       -0.0487
     16 C           6.3524   -0.2016   -0.0186 C.ar    1  UNL1        0.0424
     17 N           5.0147   -0.4011   -0.0097 N.ar    1  UNL1       -0.2493
     18 C           0.6792   -2.8242   -0.2517 C.ar    1  UNL1       -0.0377
     19 C          -0.5765   -3.3325   -0.2923 C.ar    1  UNL1       -0.0243
     20 C          -1.6564   -2.4929   -0.1327 C.ar    1  UNL1        0.1292
     21 F          -2.9319   -3.0023   -0.1748 F       1  UNL1       -0.2051
     22 C          -3.3389   -0.6408    1.5450 C.3     1  UNL1        0.2686
     23 F          -2.3629   -0.5897    2.5215 F       1  UNL1       -0.2062
     24 F          -4.3066    0.2767    1.9148 F       1  UNL1       -0.2062
     25 C          -3.5698   -0.4155   -0.9379 C.3     1  UNL1        0.0344
     26 C          -5.0462   -0.4360   -0.8042 C.3     1  UNL1       -0.0064
     27 C          -4.4095    0.8048   -1.2454 C.3     1  UNL1        0.1091
     28 O          -4.1963    1.8335   -0.2942 O.2     1  UNL1       -0.4622
     29 H          -2.2314    4.0480   -0.4626 H       1  UNL1        0.1466
     30 H          -2.2227    3.7984    1.2980 H       1  UNL1        0.1466
     31 H          -0.0875    0.4412    0.2685 H       1  UNL1        0.0640
     32 H           3.0089   -1.7318   -0.1536 H       1  UNL1        0.1552
     33 H           3.9025    2.7196    0.4983 H       1  UNL1        0.0641
     34 H           6.3851    3.0978    0.4830 H       1  UNL1        0.0630
     35 H           7.0524   -1.0251   -0.1646 H       1  UNL1        0.0841
     36 H           1.5658   -3.4692   -0.3761 H       1  UNL1        0.0637
     37 H          -0.7501   -4.3800   -0.4469 H       1  UNL1        0.0647
     38 H          -3.7211   -1.6714    1.5079 H       1  UNL1        0.1047
     39 H          -3.1209   -0.8695   -1.8418 H       1  UNL1        0.0366
     40 H          -5.5717   -0.4558    0.1483 H       1  UNL1        0.0306
     41 H          -5.5929   -1.0089   -1.6085 H       1  UNL1        0.0306
     42 H          -4.4671    1.1824   -2.2805 H       1  UNL1        0.0737
@<TRIPOS>BOND
     1     1     2    1
     2     2     3    2
     3     3     4    1
     4     4     5    1
     5     5     6   ar
     6     6     7   ar
     7     7     8    1
     8     8     9   am
     9     9    10    2
    10     9    11    1
    11    11    12   ar
    12    12    13   ar
    13    13    14   ar
    14    14    15    1
    15    14    16   ar
    16    16    17   ar
    17     7    18   ar
    18    18    19   ar
    19    19    20   ar
    20    20    21    1
    21     4    22    1
    22    22    23    1
    23    22    24    1
    24     4    25    1
    25    25    26    1
    26    26    27    1
    27    27    28    1
    28    28     2    1
    29    20     5   ar
    30    27    25    1
    31    17    11   ar
    32     1    29    1
    33     1    30    1
    34     6    31    1
    35     8    32    1
    36    12    33    1
    37    13    34    1
    38    16    35    1
    39    18    36    1
    40    19    37    1
    41    22    38    1
    42    25    39    1
    43    26    40    1
    44    26    41    1
    45    27    42    1
