@<TRIPOS>MOLECULE
*****
 57 62 0 0 0
SMALL
GASTEIGER

@<TRIPOS>ATOM
      1 F          -9.0165   -0.8941   -1.2714 F       1  UNL1       -0.2051
      2 C          -8.2194    0.1806   -1.0030 C.ar    1  UNL1        0.1300
      3 C          -8.7838    1.4026   -0.6904 C.ar    1  UNL1       -0.0259
      4 C          -8.0343    2.5061   -0.4143 C.ar    1  UNL1       -0.0556
      5 C          -6.6600    2.4040   -0.4467 C.ar    1  UNL1       -0.0195
      6 C          -6.0515    1.2036   -0.7539 C.ar    1  UNL1        0.1272
      7 C          -6.8510    0.0950   -1.0312 C.ar    1  UNL1        0.0295
      8 C          -6.1700   -1.1697   -1.3560 C.3     1  UNL1       -0.0179
      9 C          -5.0053   -1.3549   -0.4400 C.3     1  UNL1       -0.0086
     10 C          -4.0582   -0.1749   -0.4124 C.3     1  UNL1        0.1138
     11 C          -2.9150   -0.5112   -1.3473 C.3     1  UNL1        0.0029
     12 C          -1.6997   -1.0197   -0.6382 C.3     1  UNL1        0.0172
     13 N          -1.2382   -0.0294    0.3436 N.pl3   1  UNL1       -0.3135
     14 C           0.1297   -0.0395    0.7235 C.ar    1  UNL1        0.1438
     15 C           0.6435    0.8589    1.6321 C.ar    1  UNL1       -0.0177
     16 C           1.9933    0.8134    1.9777 C.ar    1  UNL1       -0.0259
     17 C           2.8218   -0.1302    1.4125 C.ar    1  UNL1        0.1495
     18 C           4.2542   -0.1942    1.7641 C.ar    1  UNL1        0.2684
     19 N           4.9148    0.6013    2.6237 N.ar    1  UNL1       -0.1056
     20 N           6.1732    0.2431    2.6765 N.ar    1  UNL1       -0.1117
     21 C           6.3267   -0.8119    1.8279 C.ar    1  UNL1        0.2221
     22 C           7.6235   -1.5296    1.5875 C.3     1  UNL1        0.0521
     23 C           8.3266   -0.8551    0.4781 C.ar    1  UNL1       -0.0204
     24 C           9.1839    0.1901    0.7046 C.ar    1  UNL1       -0.0552
     25 C           9.8463    0.8202   -0.3567 C.ar    1  UNL1       -0.0433
     26 C           9.5968    0.3453   -1.6121 C.ar    1  UNL1        0.0276
     27 N           8.7493   -0.6900   -1.8508 N.ar    1  UNL1       -0.2630
     28 C           8.1274   -1.2755   -0.8107 C.ar    1  UNL1        0.0312
     29 O           5.1456   -1.0364    1.3042 O.2     1  UNL1       -0.4185
     30 N           2.2764   -0.9840    0.5327 N.ar    1  UNL1       -0.1426
     31 N           0.9774   -0.9427    0.1982 N.ar    1  UNL1       -0.1335
     32 C          -2.2265    0.8772    0.8424 C.3     1  UNL1        0.0172
     33 C          -3.5212    0.0659    0.9862 C.3     1  UNL1        0.0029
     34 O          -4.6930    1.0365   -0.8022 O.3     1  UNL1       -0.4852
     35 H          -9.8554    1.4825   -0.6649 H       1  UNL1        0.0646
     36 H          -8.4727    3.4848   -0.1638 H       1  UNL1        0.0620
     37 H          -6.0569    3.2818   -0.2270 H       1  UNL1        0.0654
     38 H          -5.8761   -1.1754   -2.4274 H       1  UNL1        0.0316
     39 H          -6.8934   -1.9973   -1.1283 H       1  UNL1        0.0316
     40 H          -4.4389   -2.2876   -0.6629 H       1  UNL1        0.0307
     41 H          -5.3981   -1.4865    0.5951 H       1  UNL1        0.0307
     42 H          -3.2129   -1.2838   -2.0906 H       1  UNL1        0.0319
     43 H          -2.6223    0.4289   -1.8784 H       1  UNL1        0.0319
     44 H          -1.8437   -2.0090   -0.1725 H       1  UNL1        0.0465
     45 H          -0.8945   -1.1145   -1.3969 H       1  UNL1        0.0465
     46 H          -0.0003    1.6109    2.0861 H       1  UNL1        0.0653
     47 H           2.4295    1.5020    2.6866 H       1  UNL1        0.0642
     48 H           8.2322   -1.3922    2.5008 H       1  UNL1        0.0409
     49 H           7.4302   -2.6020    1.3764 H       1  UNL1        0.0409
     50 H           9.3599    0.5439    1.7212 H       1  UNL1        0.0621
     51 H          10.5051    1.6342   -0.1079 H       1  UNL1        0.0633
     52 H          10.1083    0.8292   -2.4538 H       1  UNL1        0.0829
     53 H           7.4427   -2.1126   -1.0074 H       1  UNL1        0.0832
     54 H          -2.4370    1.6291    0.0263 H       1  UNL1        0.0465
     55 H          -1.9896    1.3777    1.7833 H       1  UNL1        0.0465
     56 H          -4.2487    0.5636    1.6343 H       1  UNL1        0.0319
     57 H          -3.2343   -0.9087    1.4576 H       1  UNL1        0.0319
@<TRIPOS>BOND
     1     1     2    1
     2     2     3   ar
     3     3     4   ar
     4     4     5   ar
     5     5     6   ar
     6     6     7   ar
     7     7     8    1
     8     8     9    1
     9     9    10    1
    10    10    11    1
    11    11    12    1
    12    12    13    1
    13    13    14    1
    14    14    15   ar
    15    15    16   ar
    16    16    17   ar
    17    17    18    1
    18    18    19   ar
    19    19    20   ar
    20    20    21   ar
    21    21    22    1
    22    22    23    1
    23    23    24   ar
    24    24    25   ar
    25    25    26   ar
    26    26    27   ar
    27    27    28   ar
    28    21    29   ar
    29    17    30   ar
    30    30    31   ar
    31    13    32    1
    32    32    33    1
    33    10    34    1
    34     7     2   ar
    35    33    10    1
    36    34     6    1
    37    31    14   ar
    38    29    18   ar
    39    28    23   ar
    40     3    35    1
    41     4    36    1
    42     5    37    1
    43     8    38    1
    44     8    39    1
    45     9    40    1
    46     9    41    1
    47    11    42    1
    48    11    43    1
    49    12    44    1
    50    12    45    1
    51    15    46    1
    52    16    47    1
    53    22    48    1
    54    22    49    1
    55    24    50    1
    56    25    51    1
    57    26    52    1
    58    28    53    1
    59    32    54    1
    60    32    55    1
    61    33    56    1
    62    33    57    1
