
     RDKit          3D

 57 62  0  0  0  0  0  0  0  0999 V2000
   -9.0165   -0.8941   -1.2714 F   0  0  0  0  0  0  0  0  0  0  0  0
   -8.2194    0.1806   -1.0030 C   0  0  0  0  0  0  0  0  0  0  0  0
   -8.7838    1.4026   -0.6904 C   0  0  0  0  0  0  0  0  0  0  0  0
   -8.0343    2.5061   -0.4143 C   0  0  0  0  0  0  0  0  0  0  0  0
   -6.6600    2.4040   -0.4467 C   0  0  0  0  0  0  0  0  0  0  0  0
   -6.0515    1.2036   -0.7539 C   0  0  0  0  0  0  0  0  0  0  0  0
   -6.8510    0.0950   -1.0312 C   0  0  0  0  0  0  0  0  0  0  0  0
   -6.1700   -1.1697   -1.3560 C   0  0  0  0  0  0  0  0  0  0  0  0
   -5.0053   -1.3549   -0.4400 C   0  0  0  0  0  0  0  0  0  0  0  0
   -4.0582   -0.1749   -0.4124 C   0  0  0  0  0  0  0  0  0  0  0  0
   -2.9150   -0.5112   -1.3473 C   0  0  0  0  0  0  0  0  0  0  0  0
   -1.6997   -1.0197   -0.6382 C   0  0  0  0  0  0  0  0  0  0  0  0
   -1.2382   -0.0294    0.3436 N   0  0  0  0  0  0  0  0  0  0  0  0
    0.1297   -0.0395    0.7235 C   0  0  0  0  0  0  0  0  0  0  0  0
    0.6435    0.8589    1.6321 C   0  0  0  0  0  0  0  0  0  0  0  0
    1.9933    0.8134    1.9777 C   0  0  0  0  0  0  0  0  0  0  0  0
    2.8218   -0.1302    1.4125 C   0  0  0  0  0  0  0  0  0  0  0  0
    4.2542   -0.1942    1.7641 C   0  0  0  0  0  0  0  0  0  0  0  0
    4.9148    0.6013    2.6237 N   0  0  0  0  0  0  0  0  0  0  0  0
    6.1732    0.2431    2.6765 N   0  0  0  0  0  0  0  0  0  0  0  0
    6.3267   -0.8119    1.8279 C   0  0  0  0  0  0  0  0  0  0  0  0
    7.6235   -1.5296    1.5875 C   0  0  0  0  0  0  0  0  0  0  0  0
    8.3266   -0.8551    0.4781 C   0  0  0  0  0  0  0  0  0  0  0  0
    9.1839    0.1901    0.7046 C   0  0  0  0  0  0  0  0  0  0  0  0
    9.8463    0.8202   -0.3567 C   0  0  0  0  0  0  0  0  0  0  0  0
    9.5968    0.3453   -1.6121 C   0  0  0  0  0  0  0  0  0  0  0  0
    8.7493   -0.6900   -1.8508 N   0  0  0  0  0  0  0  0  0  0  0  0
    8.1274   -1.2755   -0.8107 C   0  0  0  0  0  0  0  0  0  0  0  0
    5.1456   -1.0364    1.3042 O   0  0  0  0  0  0  0  0  0  0  0  0
    2.2764   -0.9840    0.5327 N   0  0  0  0  0  0  0  0  0  0  0  0
    0.9774   -0.9427    0.1982 N   0  0  0  0  0  0  0  0  0  0  0  0
   -2.2265    0.8772    0.8424 C   0  0  0  0  0  0  0  0  0  0  0  0
   -3.5212    0.0659    0.9862 C   0  0  0  0  0  0  0  0  0  0  0  0
   -4.6930    1.0365   -0.8022 O   0  0  0  0  0  0  0  0  0  0  0  0
   -9.8554    1.4825   -0.6649 H   0  0  0  0  0  0  0  0  0  0  0  0
   -8.4727    3.4848   -0.1638 H   0  0  0  0  0  0  0  0  0  0  0  0
   -6.0569    3.2818   -0.2270 H   0  0  0  0  0  0  0  0  0  0  0  0
   -5.8761   -1.1754   -2.4274 H   0  0  0  0  0  0  0  0  0  0  0  0
   -6.8934   -1.9973   -1.1283 H   0  0  0  0  0  0  0  0  0  0  0  0
   -4.4389   -2.2876   -0.6629 H   0  0  0  0  0  0  0  0  0  0  0  0
   -5.3981   -1.4865    0.5951 H   0  0  0  0  0  0  0  0  0  0  0  0
   -3.2129   -1.2838   -2.0906 H   0  0  0  0  0  0  0  0  0  0  0  0
   -2.6223    0.4289   -1.8784 H   0  0  0  0  0  0  0  0  0  0  0  0
   -1.8437   -2.0090   -0.1725 H   0  0  0  0  0  0  0  0  0  0  0  0
   -0.8945   -1.1145   -1.3969 H   0  0  0  0  0  0  0  0  0  0  0  0
   -0.0003    1.6109    2.0861 H   0  0  0  0  0  0  0  0  0  0  0  0
    2.4295    1.5020    2.6866 H   0  0  0  0  0  0  0  0  0  0  0  0
    8.2322   -1.3922    2.5008 H   0  0  0  0  0  0  0  0  0  0  0  0
    7.4302   -2.6020    1.3764 H   0  0  0  0  0  0  0  0  0  0  0  0
    9.3599    0.5439    1.7212 H   0  0  0  0  0  0  0  0  0  0  0  0
   10.5051    1.6342   -0.1079 H   0  0  0  0  0  0  0  0  0  0  0  0
   10.1083    0.8292   -2.4538 H   0  0  0  0  0  0  0  0  0  0  0  0
    7.4427   -2.1126   -1.0074 H   0  0  0  0  0  0  0  0  0  0  0  0
   -2.4370    1.6291    0.0263 H   0  0  0  0  0  0  0  0  0  0  0  0
   -1.9896    1.3777    1.7833 H   0  0  0  0  0  0  0  0  0  0  0  0
   -4.2487    0.5636    1.6343 H   0  0  0  0  0  0  0  0  0  0  0  0
   -3.2343   -0.9087    1.4576 H   0  0  0  0  0  0  0  0  0  0  0  0
  1  2  1  0
  2  3  2  0
  3  4  1  0
  4  5  2  0
  5  6  1  0
  6  7  2  0
  7  8  1  0
  8  9  1  0
  9 10  1  0
 10 11  1  0
 11 12  1  0
 12 13  1  0
 13 14  1  0
 14 15  2  0
 15 16  1  0
 16 17  2  0
 17 18  1  0
 18 19  2  0
 19 20  1  0
 20 21  2  0
 21 22  1  0
 22 23  1  0
 23 24  2  0
 24 25  1  0
 25 26  2  0
 26 27  1  0
 27 28  2  0
 21 29  1  0
 17 30  1  0
 30 31  2  0
 13 32  1  0
 32 33  1  0
 10 34  1  0
  7  2  1  0
 33 10  1  0
 34  6  1  0
 31 14  1  0
 29 18  1  0
 28 23  1  0
  3 35  1  0
  4 36  1  0
  5 37  1  0
  8 38  1  0
  8 39  1  0
  9 40  1  0
  9 41  1  0
 11 42  1  0
 11 43  1  0
 12 44  1  0
 12 45  1  0
 15 46  1  0
 16 47  1  0
 22 48  1  0
 22 49  1  0
 24 50  1  0
 25 51  1  0
 26 52  1  0
 28 53  1  0
 32 54  1  0
 32 55  1  0
 33 56  1  0
 33 57  1  0
M  END
$$$$
