
     RDKit          3D

 46 48  0  0  0  0  0  0  0  0999 V2000
    7.1884    1.1026    0.2024 C   0  0  0  0  0  0  0  0  0  0  0  0
    6.9945    0.1731    1.1113 O   0  0  0  0  0  0  0  0  0  0  0  0
    6.1038   -0.7738    1.2556 C   0  0  0  0  0  0  0  0  0  0  0  0
    4.6348   -0.5403    1.3301 C   0  0  0  0  0  0  0  0  0  0  0  0
    4.0799   -0.0058    0.0497 C   0  0  0  0  0  0  0  0  0  0  0  0
    2.7792    0.2239   -0.0036 O   0  0  0  0  0  0  0  0  0  0  0  0
    1.5355    0.4501   -0.0472 C   0  0  0  0  0  0  0  0  0  0  0  0
    0.7615   -0.2210   -1.0006 C   0  0  0  0  0  0  0  0  0  0  0  0
    1.4012   -1.1785   -1.9368 C   0  0  0  0  0  0  0  0  0  0  0  0
   -0.6145   -0.0625   -1.1506 C   0  0  0  0  0  0  0  0  0  0  0  0
   -1.3605   -0.7982   -2.2032 C   0  0  0  0  0  0  0  0  0  0  0  0
   -2.8611    0.0716   -2.6790 S   0  0  0  0  0  0  0  0  0  0  0  0
   -2.5273    1.4391   -3.2811 O   0  0  0  0  0  0  0  0  0  0  0  0
   -3.9541    0.2499   -1.2710 C   0  0  0  0  0  0  0  0  0  0  0  0
   -4.7383   -0.8460   -1.2159 N   0  0  0  0  0  0  0  0  0  0  0  0
   -5.5875   -0.7624   -0.1633 C   0  0  0  0  0  0  0  0  0  0  0  0
   -6.6061   -1.4835    0.4580 C   0  0  0  0  0  0  0  0  0  0  0  0
   -7.2351   -0.9869    1.5789 C   0  0  0  0  0  0  0  0  0  0  0  0
   -6.8919    0.2229    2.1264 C   0  0  0  0  0  0  0  0  0  0  0  0
   -5.8879    0.9867    1.5555 C   0  0  0  0  0  0  0  0  0  0  0  0
   -5.2845    0.4555    0.4369 C   0  0  0  0  0  0  0  0  0  0  0  0
   -4.2846    1.0460   -0.2645 N   0  0  0  0  0  0  0  0  0  0  0  0
   -1.1809    0.8031   -0.2973 N   0  0  0  0  0  0  0  0  0  0  0  0
   -0.5040    1.4800    0.6381 C   0  0  0  0  0  0  0  0  0  0  0  0
    0.8585    1.3359    0.8012 C   0  0  0  0  0  0  0  0  0  0  0  0
    8.1938    1.6240    0.4715 H   0  0  0  0  0  0  0  0  0  0  0  0
    7.1569    0.8608   -0.8687 H   0  0  0  0  0  0  0  0  0  0  0  0
    6.4411    1.9722    0.3312 H   0  0  0  0  0  0  0  0  0  0  0  0
    6.4128   -1.5079    2.0937 H   0  0  0  0  0  0  0  0  0  0  0  0
    6.2524   -1.5037    0.3564 H   0  0  0  0  0  0  0  0  0  0  0  0
    4.1522   -1.5003    1.6340 H   0  0  0  0  0  0  0  0  0  0  0  0
    4.3749    0.1504    2.1932 H   0  0  0  0  0  0  0  0  0  0  0  0
    4.6849    0.8801   -0.2694 H   0  0  0  0  0  0  0  0  0  0  0  0
    4.3388   -0.8293   -0.7230 H   0  0  0  0  0  0  0  0  0  0  0  0
    0.6994   -1.9671   -2.2754 H   0  0  0  0  0  0  0  0  0  0  0  0
    2.2166   -1.7087   -1.4059 H   0  0  0  0  0  0  0  0  0  0  0  0
    1.8657   -0.6098   -2.7631 H   0  0  0  0  0  0  0  0  0  0  0  0
   -0.7006   -0.7557   -3.1203 H   0  0  0  0  0  0  0  0  0  0  0  0
   -1.6044   -1.8263   -1.9264 H   0  0  0  0  0  0  0  0  0  0  0  0
   -6.8299   -2.4268   -0.0213 H   0  0  0  0  0  0  0  0  0  0  0  0
   -8.0006   -1.6724    1.9329 H   0  0  0  0  0  0  0  0  0  0  0  0
   -7.4353    0.5396    3.0079 H   0  0  0  0  0  0  0  0  0  0  0  0
   -5.6061    1.9331    1.9705 H   0  0  0  0  0  0  0  0  0  0  0  0
   -3.7254    1.9078   -0.2450 H   0  0  0  0  0  0  0  0  0  0  0  0
   -1.0661    2.1642    1.2847 H   0  0  0  0  0  0  0  0  0  0  0  0
    1.3599    1.8943    1.5601 H   0  0  0  0  0  0  0  0  0  0  0  0
  1  2  1  0
  2  3  1  0
  3  4  1  0
  4  5  1  0
  5  6  1  0
  6  7  1  0
  7  8  2  0
  8  9  1  0
  8 10  1  0
 10 11  1  0
 11 12  1  0
 12 13  2  0
 12 14  1  0
 14 15  2  0
 15 16  1  0
 16 17  2  0
 17 18  1  0
 18 19  2  0
 19 20  1  0
 20 21  2  0
 21 22  1  0
 10 23  2  0
 23 24  1  0
 24 25  2  0
 25  7  1  0
 22 14  1  0
 21 16  1  0
  1 26  1  0
  1 27  1  0
  1 28  1  0
  3 29  1  0
  3 30  1  0
  4 31  1  0
  4 32  1  0
  5 33  1  0
  5 34  1  0
  9 35  1  0
  9 36  1  0
  9 37  1  0
 11 38  1  0
 11 39  1  0
 17 40  1  0
 18 41  1  0
 19 42  1  0
 20 43  1  0
 22 44  1  0
 24 45  1  0
 25 46  1  0
M  END
$$$$
