@<TRIPOS>MOLECULE
*****
 43 45 0 0 0
SMALL
GASTEIGER

@<TRIPOS>ATOM
      1 C          -0.0224    4.9061    1.7086 C.3     1  UNL1       -0.0106
      2 S          -1.2099    3.6285    1.2204 S.3     1  UNL1       -0.0892
      3 C          -0.3135    2.1770    0.6525 C.ar    1  UNL1        0.1960
      4 N           1.0323    2.0292    0.5872 N.ar    1  UNL1       -0.2003
      5 C           1.3272    0.8115    0.1135 C.ar    1  UNL1        0.1829
      6 C           2.6858    0.3060   -0.0905 C.ar    1  UNL1        0.0211
      7 C           3.7610    0.9213    0.5133 C.ar    1  UNL1       -0.0475
      8 C           5.0484    0.4739    0.3438 C.ar    1  UNL1       -0.0190
      9 C           5.2549   -0.6271   -0.4591 C.ar    1  UNL1        0.1300
     10 O           6.5621   -1.0579   -0.6135 O.3     1  UNL1       -0.4057
     11 C           7.0715   -2.0152    0.3021 C.3     1  UNL1        0.5752
     12 F           6.3166   -3.1685    0.2424 F       1  UNL1       -0.1328
     13 F           6.9940   -1.4342    1.5624 F       1  UNL1       -0.1328
     14 F           8.3751   -2.2706   -0.0216 F       1  UNL1       -0.1328
     15 C           4.1872   -1.2643   -1.0785 C.ar    1  UNL1       -0.0190
     16 C           2.9152   -0.7938   -0.8895 C.ar    1  UNL1       -0.0475
     17 N           0.1651    0.1985   -0.1173 N.ar    1  UNL1       -0.1403
     18 N          -0.8297    1.0226    0.2081 N.ar    1  UNL1       -0.1571
     19 C          -2.2298    0.7324    0.1039 C.2     1  UNL1        0.3437
     20 O          -3.0359    1.6168    0.4515 O.2     1  UNL1       -0.2471
     21 N          -2.6652   -0.5384   -0.3862 N.am    1  UNL1       -0.2549
     22 C          -1.6740   -1.5207   -0.7734 C.3     1  UNL1        0.0100
     23 C          -4.0324   -0.8492   -0.4983 C.ar    1  UNL1        0.0377
     24 C          -4.7785   -0.5930   -1.6532 C.ar    1  UNL1       -0.0402
     25 C          -6.1084   -0.8997   -1.7508 C.ar    1  UNL1       -0.0600
     26 C          -6.7670   -1.4816   -0.6948 C.ar    1  UNL1       -0.0616
     27 C          -6.0696   -1.7532    0.4669 C.ar    1  UNL1       -0.0600
     28 C          -4.7298   -1.4345    0.5405 C.ar    1  UNL1       -0.0402
     29 H          -0.4320    5.9292    1.5805 H       1  UNL1        0.0345
     30 H           0.9088    4.7907    1.0858 H       1  UNL1        0.0345
     31 H           0.2732    4.7042    2.7629 H       1  UNL1        0.0345
     32 H           3.6126    1.7921    1.1503 H       1  UNL1        0.0626
     33 H           5.8929    0.9801    0.8353 H       1  UNL1        0.0654
     34 H           4.3789   -2.1354   -1.7100 H       1  UNL1        0.0654
     35 H           2.0836   -1.2799   -1.3643 H       1  UNL1        0.0626
     36 H          -2.1865   -2.4381   -1.1798 H       1  UNL1        0.0433
     37 H          -1.0451   -1.1696   -1.6349 H       1  UNL1        0.0433
     38 H          -1.0591   -1.8250    0.1018 H       1  UNL1        0.0433
     39 H          -4.2948   -0.1343   -2.5092 H       1  UNL1        0.0636
     40 H          -6.7017   -0.7066   -2.6421 H       1  UNL1        0.0618
     41 H          -7.8199   -1.7390   -0.7348 H       1  UNL1        0.0618
     42 H          -6.6027   -2.2140    1.2956 H       1  UNL1        0.0618
     43 H          -4.2385   -1.6761    1.4883 H       1  UNL1        0.0636
@<TRIPOS>BOND
     1     1     2    1
     2     2     3    1
     3     3     4   ar
     4     4     5   ar
     5     5     6    1
     6     6     7   ar
     7     7     8   ar
     8     8     9   ar
     9     9    10    1
    10    10    11    1
    11    11    12    1
    12    11    13    1
    13    11    14    1
    14     9    15   ar
    15    15    16   ar
    16     5    17   ar
    17    17    18   ar
    18    18    19   am
    19    19    20    2
    20    19    21   am
    21    21    22    1
    22    21    23    1
    23    23    24   ar
    24    24    25   ar
    25    25    26   ar
    26    26    27   ar
    27    27    28   ar
    28    18     3   ar
    29    28    23   ar
    30    16     6   ar
    31     1    29    1
    32     1    30    1
    33     1    31    1
    34     7    32    1
    35     8    33    1
    36    15    34    1
    37    16    35    1
    38    22    36    1
    39    22    37    1
    40    22    38    1
    41    24    39    1
    42    25    40    1
    43    26    41    1
    44    27    42    1
    45    28    43    1
