@<TRIPOS>MOLECULE
*****
 47 50 0 0 0
SMALL
GASTEIGER

@<TRIPOS>ATOM
      1 C           1.8236   -0.7277   -0.0365 C.3     1  UNL1       -0.0254
      2 C           2.7930   -1.4390    0.8102 C.3     1  UNL1       -0.0424
      3 C           4.1018   -1.1918    0.0684 C.3     1  UNL1        0.0067
      4 C           3.8170   -0.0595   -0.8892 C.2     1  UNL1        0.1395
      5 O           4.5236    0.2186   -1.8149 O.2     1  UNL1       -0.2968
      6 C           2.5677    0.5418   -0.4212 C.3     1  UNL1        0.0293
      7 C           2.8265    1.4354    0.7463 C.3     1  UNL1       -0.0526
      8 C           1.7547    1.1801   -1.5185 C.3     1  UNL1       -0.0404
      9 C           0.3376    1.4274   -1.1067 C.3     1  UNL1       -0.0483
     10 C          -0.3166    0.1086   -0.6706 C.3     1  UNL1       -0.0288
     11 C           0.5241   -0.3266    0.5125 C.3     1  UNL1       -0.0334
     12 C          -0.1514   -1.3046    1.4147 C.3     1  UNL1       -0.0459
     13 C          -1.3237   -0.4985    1.9971 C.3     1  UNL1       -0.0305
     14 C          -2.2498   -0.2939    0.8479 C.2     1  UNL1       -0.0601
     15 C          -3.5340   -0.5611    1.0227 C.2     1  UNL1       -0.0194
     16 C          -4.4912   -0.3825   -0.0599 C.2     1  UNL1        0.1561
     17 O          -5.6854   -0.1346    0.1505 O.2     1  UNL1       -0.2927
     18 C          -3.9732   -0.5109   -1.4457 C.3     1  UNL1        0.0107
     19 C          -2.4912   -0.6531   -1.5014 C.3     1  UNL1       -0.0367
     20 C          -1.7632    0.1889   -0.4437 C.3     1  UNL1       -0.0072
     21 C          -2.2294    1.6177   -0.7117 C.3     1  UNL1       -0.0556
     22 H           1.6846   -1.2921   -0.9810 H       1  UNL1        0.0313
     23 H           2.5930   -2.5449    0.7108 H       1  UNL1        0.0272
     24 H           2.8269   -1.1941    1.8701 H       1  UNL1        0.0272
     25 H           4.4171   -2.0609   -0.5243 H       1  UNL1        0.0342
     26 H           4.8415   -0.8486    0.8069 H       1  UNL1        0.0342
     27 H           3.8434    1.8918    0.6375 H       1  UNL1        0.0239
     28 H           2.1223    2.2794    0.8605 H       1  UNL1        0.0239
     29 H           2.8496    0.9240    1.7228 H       1  UNL1        0.0239
     30 H           1.7479    0.4759   -2.3712 H       1  UNL1        0.0275
     31 H           2.2098    2.1311   -1.8335 H       1  UNL1        0.0275
     32 H          -0.1779    1.8915   -1.9586 H       1  UNL1        0.0269
     33 H           0.3731    2.1104   -0.2079 H       1  UNL1        0.0269
     34 H          -0.0735   -0.5833   -1.5305 H       1  UNL1        0.0312
     35 H           0.6907    0.5980    1.1402 H       1  UNL1        0.0307
     36 H           0.5295   -1.5296    2.2323 H       1  UNL1        0.0271
     37 H          -0.4932   -2.2132    0.9148 H       1  UNL1        0.0271
     38 H          -1.7936   -1.0056    2.8383 H       1  UNL1        0.0310
     39 H          -0.9287    0.5054    2.2607 H       1  UNL1        0.0310
     40 H          -3.8938   -0.9246    1.9983 H       1  UNL1        0.0652
     41 H          -4.3979   -1.4842   -1.8305 H       1  UNL1        0.0345
     42 H          -4.3862    0.2900   -2.0969 H       1  UNL1        0.0345
     43 H          -2.1182   -1.6916   -1.5117 H       1  UNL1        0.0278
     44 H          -2.1502   -0.2099   -2.4793 H       1  UNL1        0.0278
     45 H          -3.3185    1.7478   -0.4617 H       1  UNL1        0.0238
     46 H          -2.2080    1.7430   -1.8280 H       1  UNL1        0.0238
     47 H          -1.6505    2.3598   -0.1621 H       1  UNL1        0.0238
@<TRIPOS>BOND
     1     1     2    1
     2     2     3    1
     3     3     4    1
     4     4     5    2
     5     4     6    1
     6     6     7    1
     7     6     8    1
     8     8     9    1
     9     9    10    1
    10    10    11    1
    11    11    12    1
    12    12    13    1
    13    13    14    1
    14    14    15    2
    15    15    16    1
    16    16    17    2
    17    16    18    1
    18    18    19    1
    19    19    20    1
    20    20    21    1
    21     6     1    1
    22    20    10    1
    23    11     1    1
    24    20    14    1
    25     1    22    1
    26     2    23    1
    27     2    24    1
    28     3    25    1
    29     3    26    1
    30     7    27    1
    31     7    28    1
    32     7    29    1
    33     8    30    1
    34     8    31    1
    35     9    32    1
    36     9    33    1
    37    10    34    1
    38    11    35    1
    39    12    36    1
    40    12    37    1
    41    13    38    1
    42    13    39    1
    43    15    40    1
    44    18    41    1
    45    18    42    1
    46    19    43    1
    47    19    44    1
    48    21    45    1
    49    21    46    1
    50    21    47    1
