@<TRIPOS>MOLECULE
*****
 59 59 0 0 0
SMALL
GASTEIGER

@<TRIPOS>ATOM
      1 C           6.5444    3.0957    1.0908 C.3     1  UNL1       -0.0653
      2 C           6.5103    1.7323    0.4390 C.3     1  UNL1       -0.0559
      3 C           5.0331    1.3220    0.3758 C.3     1  UNL1       -0.0532
      4 C           4.9626   -0.0165   -0.2605 C.3     1  UNL1       -0.0504
      5 C           3.5818   -0.5503   -0.3357 C.3     1  UNL1       -0.0232
      6 C           2.6415    0.2930   -1.1372 C.3     1  UNL1        0.0734
      7 O           2.4423    1.5627   -0.6776 O.3     1  UNL1       -0.3878
      8 C           1.2947   -0.3988   -1.0328 C.2     1  UNL1       -0.0595
      9 C           0.9352   -1.4656   -1.7276 C.2     1  UNL1       -0.0793
     10 C          -0.2885   -2.3152   -1.8152 C.3     1  UNL1        0.0131
     11 C           0.0099   -3.7001   -1.2142 C.3     1  UNL1        0.0688
     12 O           0.1152   -4.6557   -2.2121 O.3     1  UNL1       -0.3908
     13 C          -1.1826   -4.0513   -0.3501 C.3     1  UNL1        0.0327
     14 C          -2.2230   -3.0835   -0.8078 C.2     1  UNL1        0.1395
     15 O          -3.3889   -3.4581   -0.9888 O.2     1  UNL1       -0.2970
     16 C          -1.3834   -1.8282   -0.9015 C.3     1  UNL1        0.0262
     17 C          -2.1670   -0.6937   -1.4648 C.3     1  UNL1       -0.0429
     18 C          -3.2453   -0.2795   -0.4700 C.3     1  UNL1       -0.0524
     19 C          -2.7094    0.1666    0.8290 C.3     1  UNL1       -0.0530
     20 C          -3.7150    0.5880    1.8215 C.3     1  UNL1       -0.0526
     21 C          -4.4622    1.8170    1.5941 C.3     1  UNL1       -0.0430
     22 C          -5.2543    1.9870    0.3626 C.3     1  UNL1        0.0448
     23 C          -6.0200    3.3118    0.5298 C.2     1  UNL1        0.3047
     24 O          -6.8718    3.7757   -0.4656 O.3     1  UNL1       -0.4806
     25 O          -6.0243    4.1299    1.4791 O.2     1  UNL1       -0.2510
     26 H           7.3971    3.6667    0.6721 H       1  UNL1        0.0230
     27 H           5.5713    3.6003    0.9940 H       1  UNL1        0.0230
     28 H           6.7520    3.0135    2.1928 H       1  UNL1        0.0230
     29 H           7.0960    0.9925    0.9959 H       1  UNL1        0.0263
     30 H           6.8501    1.7708   -0.6189 H       1  UNL1        0.0263
     31 H           4.5735    1.2978    1.3733 H       1  UNL1        0.0265
     32 H           4.5071    2.0801   -0.2512 H       1  UNL1        0.0265
     33 H           5.3626   -0.0002   -1.3132 H       1  UNL1        0.0266
     34 H           5.5583   -0.7866    0.3298 H       1  UNL1        0.0266
     35 H           3.6592   -1.5961   -0.7857 H       1  UNL1        0.0293
     36 H           3.1733   -0.7695    0.6861 H       1  UNL1        0.0293
     37 H           2.9172    0.2937   -2.2190 H       1  UNL1        0.0637
     38 H           2.0613    1.5544    0.2273 H       1  UNL1        0.2102
     39 H           0.4812   -0.1077   -0.3780 H       1  UNL1        0.0594
     40 H           1.6849   -1.8738   -2.4325 H       1  UNL1        0.0574
     41 H          -0.6063   -2.4066   -2.8581 H       1  UNL1        0.0375
     42 H           0.9343   -3.6000   -0.6210 H       1  UNL1        0.0603
     43 H           0.9022   -5.2170   -1.9933 H       1  UNL1        0.2098
     44 H          -1.4837   -5.1019   -0.4312 H       1  UNL1        0.0367
     45 H          -0.9555   -3.7624    0.7139 H       1  UNL1        0.0367
     46 H          -0.9274   -1.6317    0.0620 H       1  UNL1        0.0384
     47 H          -2.6709   -0.9216   -2.4010 H       1  UNL1        0.0272
     48 H          -1.5056    0.1752   -1.6023 H       1  UNL1        0.0272
     49 H          -3.7974   -1.2628   -0.2732 H       1  UNL1        0.0265
     50 H          -3.8859    0.4057   -0.9667 H       1  UNL1        0.0265
     51 H          -2.0891   -0.6293    1.3398 H       1  UNL1        0.0265
     52 H          -1.9214    0.9906    0.6960 H       1  UNL1        0.0265
     53 H          -3.2026    0.6168    2.8590 H       1  UNL1        0.0265
     54 H          -4.4243   -0.3155    1.9391 H       1  UNL1        0.0265
     55 H          -3.7740    2.7352    1.6362 H       1  UNL1        0.0270
     56 H          -5.1078    1.9856    2.5278 H       1  UNL1        0.0270
     57 H          -4.5350    2.2792   -0.4605 H       1  UNL1        0.0377
     58 H          -5.9132    1.1667    0.1249 H       1  UNL1        0.0377
     59 H          -7.8166    4.0727   -0.2411 H       1  UNL1        0.2951
@<TRIPOS>BOND
     1     1     2    1
     2     2     3    1
     3     3     4    1
     4     4     5    1
     5     5     6    1
     6     6     7    1
     7     6     8    1
     8     8     9    2
     9     9    10    1
    10    10    11    1
    11    11    12    1
    12    11    13    1
    13    13    14    1
    14    14    15    2
    15    14    16    1
    16    16    17    1
    17    17    18    1
    18    18    19    1
    19    19    20    1
    20    20    21    1
    21    21    22    1
    22    22    23    1
    23    23    24    1
    24    23    25    2
    25    16    10    1
    26     1    26    1
    27     1    27    1
    28     1    28    1
    29     2    29    1
    30     2    30    1
    31     3    31    1
    32     3    32    1
    33     4    33    1
    34     4    34    1
    35     5    35    1
    36     5    36    1
    37     6    37    1
    38     7    38    1
    39     8    39    1
    40     9    40    1
    41    10    41    1
    42    11    42    1
    43    12    43    1
    44    13    44    1
    45    13    45    1
    46    16    46    1
    47    17    47    1
    48    17    48    1
    49    18    49    1
    50    18    50    1
    51    19    51    1
    52    19    52    1
    53    20    53    1
    54    20    54    1
    55    21    55    1
    56    21    56    1
    57    22    57    1
    58    22    58    1
    59    24    59    1
