@<TRIPOS>MOLECULE
*****
 51 55 0 0 0
SMALL
GASTEIGER

@<TRIPOS>ATOM
      1 C           5.3723   -2.3008    2.4091 C.3     1  UNL1       -0.0455
      2 C           4.9289   -2.4657    0.9748 C.3     1  UNL1        0.0390
      3 N           3.5698   -1.9798    0.8046 N.ar    1  UNL1       -0.2678
      4 N           2.4750   -2.6994    0.9432 N.ar    1  UNL1       -0.1659
      5 C           1.3761   -1.9323    0.7128 C.ar    1  UNL1        0.1531
      6 C           1.8485   -0.6817    0.4190 C.ar    1  UNL1        0.0306
      7 C           3.2544   -0.7183    0.4798 C.ar    1  UNL1        0.0422
      8 C           4.1432    0.4394    0.2253 C.3     1  UNL1       -0.0223
      9 C           0.6907    0.1809    0.1502 C.3     1  UNL1        0.0881
     10 C           0.7674    0.8417   -1.1716 C.ar    1  UNL1        0.0132
     11 C           0.9056    2.2087   -1.2256 C.ar    1  UNL1       -0.0510
     12 C           0.9786    2.8875   -2.4357 C.ar    1  UNL1       -0.0259
     13 C           0.9104    2.1680   -3.6286 C.ar    1  UNL1        0.1261
     14 F           0.9835    2.8504   -4.8090 F       1  UNL1       -0.2054
     15 C           0.7713    0.7901   -3.5892 C.ar    1  UNL1        0.0091
     16 C           0.7027    0.1556   -2.3449 C.ar    1  UNL1        0.1314
     17 F           0.5725   -1.1909   -2.3686 F       1  UNL1       -0.2050
     18 N          -0.4693   -0.6100    0.3381 N.am    1  UNL1       -0.2530
     19 C          -1.8477   -0.2244    0.2402 C.ar    1  UNL1        0.0545
     20 C          -2.4865   -0.3448   -0.9634 C.ar    1  UNL1       -0.0324
     21 C          -3.8257    0.0166   -1.1133 C.ar    1  UNL1       -0.0041
     22 C          -4.5430   -0.1028   -2.4034 C.3     1  UNL1       -0.0361
     23 C          -4.4979    0.5018   -0.0137 C.ar    1  UNL1        0.1641
     24 N          -5.7786    0.9210    0.1275 N.ar    1  UNL1       -0.1292
     25 N          -5.9439    1.2995    1.3998 N.ar    1  UNL1       -0.1340
     26 C          -4.7634    1.1111    2.0349 C.ar    1  UNL1        0.1347
     27 C          -4.5607    1.4233    3.4772 C.3     1  UNL1       -0.0041
     28 N          -3.8714    0.6211    1.1714 N.ar    1  UNL1       -0.2846
     29 C          -2.5555    0.2637    1.3095 C.ar    1  UNL1        0.0344
     30 C          -0.0709   -1.9320    0.6718 C.2     1  UNL1        0.2721
     31 O          -0.8398   -2.9327    0.8940 O.2     1  UNL1       -0.2679
     32 H           4.7674   -1.5132    2.8764 H       1  UNL1        0.0247
     33 H           5.2160   -3.2238    3.0116 H       1  UNL1        0.0247
     34 H           6.4750   -2.0837    2.4464 H       1  UNL1        0.0247
     35 H           5.6338   -1.9916    0.2545 H       1  UNL1        0.0506
     36 H           4.9580   -3.5679    0.7592 H       1  UNL1        0.0506
     37 H           5.1840    0.1590    0.5230 H       1  UNL1        0.0292
     38 H           3.8349    1.3446    0.7863 H       1  UNL1        0.0292
     39 H           4.1983    0.6821   -0.8607 H       1  UNL1        0.0292
     40 H           0.6782    0.9695    0.9441 H       1  UNL1        0.0607
     41 H           0.9632    2.8123   -0.3312 H       1  UNL1        0.0623
     42 H           1.0872    3.9632   -2.4310 H       1  UNL1        0.0646
     43 H           0.7195    0.2415   -4.5195 H       1  UNL1        0.0675
     44 H          -2.0187   -0.7176   -1.8620 H       1  UNL1        0.0640
     45 H          -4.1048   -0.9678   -2.9500 H       1  UNL1        0.0279
     46 H          -5.6239   -0.3137   -2.1596 H       1  UNL1        0.0279
     47 H          -4.4840    0.8448   -2.9747 H       1  UNL1        0.0279
     48 H          -5.0252    2.4102    3.7036 H       1  UNL1        0.0308
     49 H          -3.4875    1.3861    3.7359 H       1  UNL1        0.0308
     50 H          -5.0761    0.6255    4.0526 H       1  UNL1        0.0308
     51 H          -2.0915    0.3758    2.2789 H       1  UNL1        0.0833
@<TRIPOS>BOND
     1     1     2    1
     2     2     3    1
     3     3     4   ar
     4     4     5   ar
     5     5     6   ar
     6     6     7   ar
     7     7     8    1
     8     6     9    1
     9     9    10    1
    10    10    11   ar
    11    11    12   ar
    12    12    13   ar
    13    13    14    1
    14    13    15   ar
    15    15    16   ar
    16    16    17    1
    17     9    18    1
    18    18    19    1
    19    19    20   ar
    20    20    21   ar
    21    21    22    1
    22    21    23   ar
    23    23    24   ar
    24    24    25   ar
    25    25    26   ar
    26    26    27    1
    27    26    28   ar
    28    28    29   ar
    29    18    30   am
    30    30    31    2
    31     7     3   ar
    32    16    10   ar
    33    29    19   ar
    34    30     5    1
    35    28    23   ar
    36     1    32    1
    37     1    33    1
    38     1    34    1
    39     2    35    1
    40     2    36    1
    41     8    37    1
    42     8    38    1
    43     8    39    1
    44     9    40    1
    45    11    41    1
    46    12    42    1
    47    15    43    1
    48    20    44    1
    49    22    45    1
    50    22    46    1
    51    22    47    1
    52    27    48    1
    53    27    49    1
    54    27    50    1
    55    29    51    1
