
     RDKit          3D

 51 55  0  0  0  0  0  0  0  0999 V2000
    5.3723   -2.3008    2.4091 C   0  0  0  0  0  0  0  0  0  0  0  0
    4.9289   -2.4657    0.9748 C   0  0  0  0  0  0  0  0  0  0  0  0
    3.5698   -1.9798    0.8046 N   0  0  0  0  0  0  0  0  0  0  0  0
    2.4750   -2.6994    0.9432 N   0  0  0  0  0  0  0  0  0  0  0  0
    1.3761   -1.9323    0.7128 C   0  0  0  0  0  0  0  0  0  0  0  0
    1.8485   -0.6817    0.4190 C   0  0  0  0  0  0  0  0  0  0  0  0
    3.2544   -0.7183    0.4798 C   0  0  0  0  0  0  0  0  0  0  0  0
    4.1432    0.4394    0.2253 C   0  0  0  0  0  0  0  0  0  0  0  0
    0.6907    0.1809    0.1502 C   0  0  0  0  0  0  0  0  0  0  0  0
    0.7674    0.8417   -1.1716 C   0  0  0  0  0  0  0  0  0  0  0  0
    0.9056    2.2087   -1.2256 C   0  0  0  0  0  0  0  0  0  0  0  0
    0.9786    2.8875   -2.4357 C   0  0  0  0  0  0  0  0  0  0  0  0
    0.9104    2.1680   -3.6286 C   0  0  0  0  0  0  0  0  0  0  0  0
    0.9835    2.8504   -4.8090 F   0  0  0  0  0  0  0  0  0  0  0  0
    0.7713    0.7901   -3.5892 C   0  0  0  0  0  0  0  0  0  0  0  0
    0.7027    0.1556   -2.3449 C   0  0  0  0  0  0  0  0  0  0  0  0
    0.5725   -1.1909   -2.3686 F   0  0  0  0  0  0  0  0  0  0  0  0
   -0.4693   -0.6100    0.3381 N   0  0  0  0  0  0  0  0  0  0  0  0
   -1.8477   -0.2244    0.2402 C   0  0  0  0  0  0  0  0  0  0  0  0
   -2.4865   -0.3448   -0.9634 C   0  0  0  0  0  0  0  0  0  0  0  0
   -3.8257    0.0166   -1.1133 C   0  0  0  0  0  0  0  0  0  0  0  0
   -4.5430   -0.1028   -2.4034 C   0  0  0  0  0  0  0  0  0  0  0  0
   -4.4979    0.5018   -0.0137 C   0  0  0  0  0  0  0  0  0  0  0  0
   -5.7786    0.9210    0.1275 N   0  0  0  0  0  0  0  0  0  0  0  0
   -5.9439    1.2995    1.3998 N   0  0  0  0  0  0  0  0  0  0  0  0
   -4.7634    1.1111    2.0349 C   0  0  0  0  0  0  0  0  0  0  0  0
   -4.5607    1.4233    3.4772 C   0  0  0  0  0  0  0  0  0  0  0  0
   -3.8714    0.6211    1.1714 N   0  0  0  0  0  0  0  0  0  0  0  0
   -2.5555    0.2637    1.3095 C   0  0  0  0  0  0  0  0  0  0  0  0
   -0.0709   -1.9320    0.6718 C   0  0  0  0  0  0  0  0  0  0  0  0
   -0.8398   -2.9327    0.8940 O   0  0  0  0  0  0  0  0  0  0  0  0
    4.7674   -1.5132    2.8764 H   0  0  0  0  0  0  0  0  0  0  0  0
    5.2160   -3.2238    3.0116 H   0  0  0  0  0  0  0  0  0  0  0  0
    6.4750   -2.0837    2.4464 H   0  0  0  0  0  0  0  0  0  0  0  0
    5.6338   -1.9916    0.2545 H   0  0  0  0  0  0  0  0  0  0  0  0
    4.9580   -3.5679    0.7592 H   0  0  0  0  0  0  0  0  0  0  0  0
    5.1840    0.1590    0.5230 H   0  0  0  0  0  0  0  0  0  0  0  0
    3.8349    1.3446    0.7863 H   0  0  0  0  0  0  0  0  0  0  0  0
    4.1983    0.6821   -0.8607 H   0  0  0  0  0  0  0  0  0  0  0  0
    0.6782    0.9695    0.9441 H   0  0  0  0  0  0  0  0  0  0  0  0
    0.9632    2.8123   -0.3312 H   0  0  0  0  0  0  0  0  0  0  0  0
    1.0872    3.9632   -2.4310 H   0  0  0  0  0  0  0  0  0  0  0  0
    0.7195    0.2415   -4.5195 H   0  0  0  0  0  0  0  0  0  0  0  0
   -2.0187   -0.7176   -1.8620 H   0  0  0  0  0  0  0  0  0  0  0  0
   -4.1048   -0.9678   -2.9500 H   0  0  0  0  0  0  0  0  0  0  0  0
   -5.6239   -0.3137   -2.1596 H   0  0  0  0  0  0  0  0  0  0  0  0
   -4.4840    0.8448   -2.9747 H   0  0  0  0  0  0  0  0  0  0  0  0
   -5.0252    2.4102    3.7036 H   0  0  0  0  0  0  0  0  0  0  0  0
   -3.4875    1.3861    3.7359 H   0  0  0  0  0  0  0  0  0  0  0  0
   -5.0761    0.6255    4.0526 H   0  0  0  0  0  0  0  0  0  0  0  0
   -2.0915    0.3758    2.2789 H   0  0  0  0  0  0  0  0  0  0  0  0
  1  2  1  0
  2  3  1  0
  3  4  1  0
  4  5  2  0
  5  6  1  0
  6  7  2  0
  7  8  1  0
  6  9  1  0
  9 10  1  0
 10 11  2  0
 11 12  1  0
 12 13  2  0
 13 14  1  0
 13 15  1  0
 15 16  2  0
 16 17  1  0
  9 18  1  0
 18 19  1  0
 19 20  1  0
 20 21  2  0
 21 22  1  0
 21 23  1  0
 23 24  2  0
 24 25  1  0
 25 26  2  0
 26 27  1  0
 26 28  1  0
 28 29  1  0
 18 30  1  0
 30 31  2  0
  7  3  1  0
 16 10  1  0
 29 19  2  0
 30  5  1  0
 28 23  1  0
  1 32  1  0
  1 33  1  0
  1 34  1  0
  2 35  1  0
  2 36  1  0
  8 37  1  0
  8 38  1  0
  8 39  1  0
  9 40  1  0
 11 41  1  0
 12 42  1  0
 15 43  1  0
 20 44  1  0
 22 45  1  0
 22 46  1  0
 22 47  1  0
 27 48  1  0
 27 49  1  0
 27 50  1  0
 29 51  1  0
M  END
$$$$
