@<TRIPOS>MOLECULE
*****
 58 62 0 0 0
SMALL
GASTEIGER

@<TRIPOS>ATOM
      1 C          -0.4901    0.4620   -3.0516 C.3     1  UNL1       -0.0351
      2 C          -0.3460    0.2836   -1.5508 C.3     1  UNL1        0.0935
      3 C           0.3760    1.4862   -1.0622 C.ar    1  UNL1        0.0158
      4 C           1.6247    1.3360   -0.5028 C.ar    1  UNL1       -0.0463
      5 C           2.3384    2.4064   -0.0110 C.ar    1  UNL1       -0.0217
      6 C           3.6628    2.2948    0.5900 C.2     1  UNL1       -0.0172
      7 C           4.0651    1.3009    1.3383 C.2     1  UNL1        0.1492
      8 F           3.2074    0.2874    1.5895 F       1  UNL1       -0.2032
      9 C           5.4181    1.2349    1.9199 C.ar    1  UNL1        0.0990
     10 C           5.8378    0.2054    2.6957 C.ar    1  UNL1       -0.0322
     11 C           7.1149    0.2062    3.2055 C.ar    1  UNL1       -0.0408
     12 C           8.0031    1.2463    2.9458 C.ar    1  UNL1        0.0699
     13 C           9.3321    1.2490    3.4757 C.1     1  UNL1        0.1007
     14 N          10.4359    1.2410    3.8966 N.1     1  UNL1       -0.1908
     15 C           7.5277    2.2716    2.1504 C.ar    1  UNL1        0.0457
     16 N           6.2746    2.2426    1.6670 N.ar    1  UNL1       -0.2514
     17 C           1.7243    3.6397   -0.1136 C.ar    1  UNL1       -0.0518
     18 C           0.4785    3.8102   -0.6690 C.ar    1  UNL1       -0.0255
     19 C          -0.2235    2.7066   -1.1605 C.ar    1  UNL1        0.1289
     20 F          -1.4409    2.9460   -1.7130 F       1  UNL1       -0.2051
     21 N           0.4756   -0.9047   -1.3788 N.2     1  UNL1       -0.2521
     22 C           0.1266   -2.1024   -1.5315 C.2     1  UNL1        0.1485
     23 N           0.9906   -3.1777   -1.3443 N.pl3   1  UNL1       -0.3380
     24 S          -1.5735   -2.3849   -1.9894 S.3     1  UNL1       -0.0746
     25 C          -2.4876   -1.0350   -1.1746 C.3     1  UNL1        0.1054
     26 C          -3.9188   -0.9443   -1.5557 C.2     1  UNL1        0.2329
     27 O          -4.2425   -0.1270   -2.4580 O.2     1  UNL1       -0.2740
     28 N          -4.9239   -1.7406   -0.9427 N.am    1  UNL1       -0.2900
     29 C          -6.2963   -1.6057   -1.3575 C.3     1  UNL1        0.0308
     30 C          -7.2920   -2.0301   -0.3252 C.3     1  UNL1        0.0274
     31 N          -6.7431   -1.7587    0.9905 N.am    1  UNL1       -0.3125
     32 C          -5.4780   -2.3743    1.2960 C.2     1  UNL1        0.2305
     33 O          -5.1356   -2.6097    2.4632 O.2     1  UNL1       -0.2741
     34 C          -4.6300   -2.6973    0.0963 C.3     1  UNL1        0.0910
     35 C          -2.0114   -0.7498    0.1955 C.3     1  UNL1       -0.0220
     36 C          -1.7154    0.1784   -0.9704 C.3     1  UNL1        0.0134
     37 H          -0.7104    1.5043   -3.3393 H       1  UNL1        0.0256
     38 H           0.4344    0.0829   -3.5482 H       1  UNL1        0.0256
     39 H          -1.3133   -0.1895   -3.4462 H       1  UNL1        0.0256
     40 H           2.1144    0.3654   -0.4200 H       1  UNL1        0.0628
     41 H           4.3570    3.1008    0.3962 H       1  UNL1        0.0653
     42 H           5.1427   -0.5995    2.8933 H       1  UNL1        0.0640
     43 H           7.4847   -0.5858    3.8205 H       1  UNL1        0.0631
     44 H           8.2080    3.1087    1.9282 H       1  UNL1        0.0843
     45 H           2.2716    4.5065    0.2706 H       1  UNL1        0.0624
     46 H           0.0065    4.7992   -0.7422 H       1  UNL1        0.0646
     47 H           0.5977   -4.0837   -0.9913 H       1  UNL1        0.1442
     48 H           2.0326   -3.1711   -1.5279 H       1  UNL1        0.1442
     49 H          -6.4940   -0.5321   -1.6329 H       1  UNL1        0.0480
     50 H          -6.4512   -2.2616   -2.2639 H       1  UNL1        0.0480
     51 H          -7.4781   -3.1201   -0.4424 H       1  UNL1        0.0477
     52 H          -8.2357   -1.4836   -0.4915 H       1  UNL1        0.0477
     53 H          -7.2141   -1.1594    1.6902 H       1  UNL1        0.1488
     54 H          -4.9346   -3.7132   -0.2500 H       1  UNL1        0.0560
     55 H          -3.5813   -2.6629    0.4263 H       1  UNL1        0.0560
     56 H          -1.2047   -1.3431    0.6310 H       1  UNL1        0.0287
     57 H          -2.7826   -0.4708    0.9408 H       1  UNL1        0.0287
     58 H          -2.3156    1.1152   -0.8832 H       1  UNL1        0.0346
@<TRIPOS>BOND
     1     2     1    1
     2     2     3    1
     3     3     4   ar
     4     4     5   ar
     5     5     6    1
     6     6     7    2
     7     7     8    1
     8     7     9    1
     9     9    10   ar
    10    10    11   ar
    11    11    12   ar
    12    12    13    1
    13    13    14    3
    14    12    15   ar
    15    15    16   ar
    16     5    17   ar
    17    17    18   ar
    18    18    19   ar
    19    19    20    1
    20     2    21    1
    21    21    22    2
    22    22    23    1
    23    22    24    1
    24    24    25    1
    25    25    26    1
    26    26    27    2
    27    26    28   am
    28    28    29    1
    29    29    30    1
    30    30    31    1
    31    31    32   am
    32    32    33    2
    33    32    34    1
    34    25    35    1
    35    35    36    1
    36    36     2    1
    37    19     3   ar
    38    36    25    1
    39    16     9   ar
    40    34    28    1
    41     1    37    1
    42     1    38    1
    43     1    39    1
    44     4    40    1
    45     6    41    1
    46    10    42    1
    47    11    43    1
    48    15    44    1
    49    17    45    1
    50    18    46    1
    51    23    47    1
    52    23    48    1
    53    29    49    1
    54    29    50    1
    55    30    51    1
    56    30    52    1
    57    31    53    1
    58    34    54    1
    59    34    55    1
    60    35    56    1
    61    35    57    1
    62    36    58    1
