
     RDKit          3D

 54 54  0  0  0  0  0  0  0  0999 V2000
   -2.5345   -3.5191    0.4708 C   0  0  1  0  0  0  0  0  0  0  0  0
   -3.3282   -4.3001    1.3024 O   0  0  0  0  0  0  0  0  0  0  0  0
   -3.3222   -2.9810   -0.6957 C   0  0  0  0  0  0  0  0  0  0  0  0
   -3.8410   -4.1514   -1.4532 C   0  0  0  0  0  0  0  0  0  0  0  0
   -4.6215   -4.0625   -2.6061 O   0  0  0  0  0  0  0  0  0  0  0  0
   -3.6428   -5.3710   -1.1518 O   0  0  0  0  0  0  0  0  0  0  0  0
   -1.8793   -2.4408    1.2523 C   0  0  0  0  0  0  0  0  0  0  0  0
   -2.1398   -2.4122    2.4900 O   0  0  0  0  0  0  0  0  0  0  0  0
   -1.0193   -1.5121    0.6306 N   0  0  0  0  0  0  0  0  0  0  0  0
   -0.3436   -0.4269    1.3461 C   0  0  2  0  0  0  0  0  0  0  0  0
   -0.8497    0.9223    1.0318 C   0  0  0  0  0  0  0  0  0  0  0  0
   -0.7937    1.3840   -0.3768 C   0  0  0  0  0  0  0  0  0  0  0  0
   -1.3846    2.7768   -0.3825 C   0  0  0  0  0  0  0  0  0  0  0  0
   -2.7283    3.0424   -0.5720 C   0  0  0  0  0  0  0  0  0  0  0  0
   -3.1732    4.3434   -0.5610 C   0  0  0  0  0  0  0  0  0  0  0  0
   -2.3319    5.3970   -0.3681 C   0  0  0  0  0  0  0  0  0  0  0  0
   -1.0041    5.1657   -0.1788 C   0  0  0  0  0  0  0  0  0  0  0  0
   -0.5421    3.8767   -0.1865 C   0  0  0  0  0  0  0  0  0  0  0  0
    1.0985   -0.6689    1.3153 C   0  0  0  0  0  0  0  0  0  0  0  0
    1.0926   -1.7805    0.6761 O   0  0  0  0  0  0  0  0  0  0  0  0
    2.3155   -0.0938    1.7436 N   0  0  0  0  0  0  0  0  0  0  0  0
    3.6010   -0.6776    1.5395 C   0  0  0  0  0  0  0  0  0  0  0  0
    4.1007   -0.9250    0.1805 C   0  0  0  0  0  0  0  0  0  0  0  0
    4.3034    0.2896   -0.6661 C   0  0  0  0  0  0  0  0  0  0  0  0
    4.8411   -0.0896   -2.0489 C   0  0  0  0  0  0  0  0  0  0  0  0
    3.0138    1.0162   -0.8589 C   0  0  0  0  0  0  0  0  0  0  0  0
   -1.7310   -4.1680    0.0674 H   0  0  0  0  0  0  0  0  0  0  0  0
   -2.7376   -4.6598    2.0121 H   0  0  0  0  0  0  0  0  0  0  0  0
   -2.6000   -2.4799   -1.3707 H   0  0  0  0  0  0  0  0  0  0  0  0
   -4.1749   -2.3643   -0.3996 H   0  0  0  0  0  0  0  0  0  0  0  0
   -5.4500   -4.6384   -2.7384 H   0  0  0  0  0  0  0  0  0  0  0  0
   -0.8711   -1.6178   -0.3768 H   0  0  0  0  0  0  0  0  0  0  0  0
   -0.7332   -0.6112    2.4294 H   0  0  0  0  0  0  0  0  0  0  0  0
   -1.9276    0.9451    1.3381 H   0  0  0  0  0  0  0  0  0  0  0  0
   -0.3471    1.6395    1.7170 H   0  0  0  0  0  0  0  0  0  0  0  0
   -1.3542    0.7509   -1.0796 H   0  0  0  0  0  0  0  0  0  0  0  0
    0.2425    1.5082   -0.7130 H   0  0  0  0  0  0  0  0  0  0  0  0
   -3.3841    2.2110   -0.7230 H   0  0  0  0  0  0  0  0  0  0  0  0
   -4.2351    4.4986   -0.7141 H   0  0  0  0  0  0  0  0  0  0  0  0
   -2.6942    6.4243   -0.3610 H   0  0  0  0  0  0  0  0  0  0  0  0
   -0.2825    5.9638   -0.0198 H   0  0  0  0  0  0  0  0  0  0  0  0
    0.4963    3.6466   -0.0416 H   0  0  0  0  0  0  0  0  0  0  0  0
    2.0064    0.8099    2.2188 H   0  0  0  0  0  0  0  0  0  0  0  0
    4.3383    0.0337    2.0478 H   0  0  0  0  0  0  0  0  0  0  0  0
    3.7344   -1.6067    2.1913 H   0  0  0  0  0  0  0  0  0  0  0  0
    5.1371   -1.3805    0.2961 H   0  0  0  0  0  0  0  0  0  0  0  0
    3.5377   -1.7196   -0.3730 H   0  0  0  0  0  0  0  0  0  0  0  0
    5.0932    0.9310   -0.2186 H   0  0  0  0  0  0  0  0  0  0  0  0
    4.7223    0.7667   -2.7458 H   0  0  0  0  0  0  0  0  0  0  0  0
    4.3320   -0.9855   -2.4541 H   0  0  0  0  0  0  0  0  0  0  0  0
    5.9503   -0.2846   -1.9885 H   0  0  0  0  0  0  0  0  0  0  0  0
    2.2345    0.2845   -1.1446 H   0  0  0  0  0  0  0  0  0  0  0  0
    3.0868    1.7834   -1.6872 H   0  0  0  0  0  0  0  0  0  0  0  0
    2.7241    1.5173    0.0682 H   0  0  0  0  0  0  0  0  0  0  0  0
  1  2  1  0
  1  3  1  0
  3  4  1  0
  4  5  1  0
  4  6  2  0
  1  7  1  0
  7  8  2  0
  7  9  1  0
  9 10  1  0
 10 11  1  0
 11 12  1  0
 12 13  1  0
 13 14  2  0
 14 15  1  0
 15 16  2  0
 16 17  1  0
 17 18  2  0
 10 19  1  0
 19 20  2  0
 19 21  1  0
 21 22  1  0
 22 23  1  0
 23 24  1  0
 24 25  1  0
 24 26  1  0
 18 13  1  0
  1 27  1  6
  2 28  1  0
  3 29  1  0
  3 30  1  0
  5 31  1  0
  9 32  1  0
 10 33  1  1
 11 34  1  0
 11 35  1  0
 12 36  1  0
 12 37  1  0
 14 38  1  0
 15 39  1  0
 16 40  1  0
 17 41  1  0
 18 42  1  0
 21 43  1  0
 22 44  1  0
 22 45  1  0
 23 46  1  0
 23 47  1  0
 24 48  1  0
 25 49  1  0
 25 50  1  0
 25 51  1  0
 26 52  1  0
 26 53  1  0
 26 54  1  0
M  END
$$$$
