@<TRIPOS>MOLECULE
*****
 54 54 0 0 0
SMALL
GASTEIGER

@<TRIPOS>ATOM
      1 C          -2.5345   -3.5191    0.4708 C.3     1  UNL1        0.1409
      2 O          -3.3282   -4.3001    1.3024 O.3     1  UNL1       -0.3820
      3 C          -3.3222   -2.9810   -0.6957 C.3     1  UNL1        0.0792
      4 C          -3.8410   -4.1514   -1.4532 C.2     1  UNL1        0.3077
      5 O          -4.6215   -4.0625   -2.6061 O.3     1  UNL1       -0.4805
      6 O          -3.6428   -5.3710   -1.1518 O.2     1  UNL1       -0.2509
      7 C          -1.8793   -2.4408    1.2523 C.2     1  UNL1        0.2428
      8 O          -2.1398   -2.4122    2.4900 O.2     1  UNL1       -0.2729
      9 N          -1.0193   -1.5121    0.6306 N.am    1  UNL1       -0.3019
     10 C          -0.3436   -0.4269    1.3461 C.3     1  UNL1        0.0997
     11 C          -0.8497    0.9223    1.0318 C.3     1  UNL1       -0.0220
     12 C          -0.7937    1.3840   -0.3768 C.3     1  UNL1       -0.0255
     13 C          -1.3846    2.7768   -0.3825 C.ar    1  UNL1       -0.0473
     14 C          -2.7283    3.0424   -0.5720 C.ar    1  UNL1       -0.0586
     15 C          -3.1732    4.3434   -0.5610 C.ar    1  UNL1       -0.0615
     16 C          -2.3319    5.3970   -0.3681 C.ar    1  UNL1       -0.0617
     17 C          -1.0041    5.1657   -0.1788 C.ar    1  UNL1       -0.0615
     18 C          -0.5421    3.8767   -0.1865 C.ar    1  UNL1       -0.0586
     19 C           1.0985   -0.6689    1.3153 C.2     1  UNL1        0.2334
     20 O           1.0926   -1.7805    0.6761 O.2     1  UNL1       -0.2738
     21 N           2.3155   -0.0938    1.7436 N.am    1  UNL1       -0.3138
     22 C           3.6010   -0.6776    1.5395 C.3     1  UNL1        0.0119
     23 C           4.1007   -0.9250    0.1805 C.3     1  UNL1       -0.0350
     24 C           4.3034    0.2896   -0.6661 C.3     1  UNL1       -0.0453
     25 C           4.8411   -0.0896   -2.0489 C.3     1  UNL1       -0.0626
     26 C           3.0138    1.0162   -0.8589 C.3     1  UNL1       -0.0626
     27 H          -1.7310   -4.1680    0.0674 H       1  UNL1        0.0696
     28 H          -2.7376   -4.6598    2.0121 H       1  UNL1        0.2104
     29 H          -2.6000   -2.4799   -1.3707 H       1  UNL1        0.0408
     30 H          -4.1749   -2.3643   -0.3996 H       1  UNL1        0.0408
     31 H          -5.4500   -4.6384   -2.7384 H       1  UNL1        0.2951
     32 H          -0.8711   -1.6178   -0.3768 H       1  UNL1        0.1495
     33 H          -0.7332   -0.6112    2.4294 H       1  UNL1        0.0595
     34 H          -1.9276    0.9451    1.3381 H       1  UNL1        0.0291
     35 H          -0.3471    1.6395    1.7170 H       1  UNL1        0.0291
     36 H          -1.3542    0.7509   -1.0796 H       1  UNL1        0.0314
     37 H           0.2425    1.5082   -0.7130 H       1  UNL1        0.0314
     38 H          -3.3841    2.2110   -0.7230 H       1  UNL1        0.0620
     39 H          -4.2351    4.4986   -0.7141 H       1  UNL1        0.0618
     40 H          -2.6942    6.4243   -0.3610 H       1  UNL1        0.0618
     41 H          -0.2825    5.9638   -0.0198 H       1  UNL1        0.0618
     42 H           0.4963    3.6466   -0.0416 H       1  UNL1        0.0620
     43 H           2.0064    0.8099    2.2188 H       1  UNL1        0.1487
     44 H           4.3383    0.0337    2.0478 H       1  UNL1        0.0462
     45 H           3.7344   -1.6067    2.1913 H       1  UNL1        0.0462
     46 H           5.1371   -1.3805    0.2961 H       1  UNL1        0.0283
     47 H           3.5377   -1.7196   -0.3730 H       1  UNL1        0.0283
     48 H           5.0932    0.9310   -0.2186 H       1  UNL1        0.0296
     49 H           4.7223    0.7667   -2.7458 H       1  UNL1        0.0232
     50 H           4.3320   -0.9855   -2.4541 H       1  UNL1        0.0232
     51 H           5.9503   -0.2846   -1.9885 H       1  UNL1        0.0232
     52 H           2.2345    0.2845   -1.1446 H       1  UNL1        0.0232
     53 H           3.0868    1.7834   -1.6872 H       1  UNL1        0.0232
     54 H           2.7241    1.5173    0.0682 H       1  UNL1        0.0232
@<TRIPOS>BOND
     1     1     2    1
     2     1     3    1
     3     3     4    1
     4     4     5    1
     5     4     6    2
     6     1     7    1
     7     7     8    2
     8     7     9   am
     9     9    10    1
    10    10    11    1
    11    11    12    1
    12    12    13    1
    13    13    14   ar
    14    14    15   ar
    15    15    16   ar
    16    16    17   ar
    17    17    18   ar
    18    10    19    1
    19    19    20    2
    20    19    21   am
    21    21    22    1
    22    22    23    1
    23    23    24    1
    24    24    25    1
    25    24    26    1
    26    18    13   ar
    27     1    27    1
    28     2    28    1
    29     3    29    1
    30     3    30    1
    31     5    31    1
    32     9    32    1
    33    10    33    1
    34    11    34    1
    35    11    35    1
    36    12    36    1
    37    12    37    1
    38    14    38    1
    39    15    39    1
    40    16    40    1
    41    17    41    1
    42    18    42    1
    43    21    43    1
    44    22    44    1
    45    22    45    1
    46    23    46    1
    47    23    47    1
    48    24    48    1
    49    25    49    1
    50    25    50    1
    51    25    51    1
    52    26    52    1
    53    26    53    1
    54    26    54    1
