@<TRIPOS>MOLECULE
*****
 51 53 0 0 0
SMALL
GASTEIGER

@<TRIPOS>ATOM
      1 C           6.0176   -1.7632   -0.2839 C.3     1  UNL1        0.0788
      2 O           5.5067   -0.6015   -0.9232 O.3     1  UNL1       -0.4951
      3 C           4.2257   -0.1604   -0.5892 C.ar    1  UNL1        0.1202
      4 C           3.6846    0.9859   -1.1978 C.ar    1  UNL1       -0.0181
      5 C           2.4047    1.3715   -0.8235 C.ar    1  UNL1       -0.0316
      6 C           1.6718    0.6679    0.1115 C.ar    1  UNL1        0.1090
      7 C           2.2107   -0.4630    0.7110 C.ar    1  UNL1       -0.0316
      8 C           3.4789   -0.8761    0.3631 C.ar    1  UNL1       -0.0181
      9 S           0.0897    1.0260    0.6859 S.O2    1  UNL1        0.0750
     10 O          -0.0779    0.6246    2.1565 O.2     1  UNL1       -0.1498
     11 O          -0.1403    2.5345    0.7016 O.2     1  UNL1       -0.1498
     12 N          -1.2116    0.3296   -0.1438 N.pl3   1  UNL1       -0.1977
     13 C          -2.1118    0.9059   -1.1195 C.3     1  UNL1        0.0614
     14 C          -2.3917    2.3457   -0.8438 C.ar    1  UNL1       -0.0103
     15 C          -1.4912    3.1325   -1.6009 C.ar    1  UNL1       -0.0541
     16 C          -1.5105    4.5044   -1.5426 C.ar    1  UNL1       -0.0433
     17 C          -2.4298    5.1229   -0.7285 C.ar    1  UNL1        0.0276
     18 N          -3.2666    4.3486   -0.0252 N.ar    1  UNL1       -0.2629
     19 C          -3.2843    3.0037   -0.0488 C.ar    1  UNL1        0.0323
     20 C          -1.4098   -1.0835    0.0676 C.ar    1  UNL1        0.0667
     21 C          -2.0991   -1.7074    1.0859 C.ar    1  UNL1        0.0615
     22 C          -2.1776   -3.0710    1.2066 C.ar    1  UNL1       -0.0477
     23 C          -1.5639   -3.9187    0.3073 C.ar    1  UNL1       -0.0607
     24 C          -0.8730   -3.3076   -0.7104 C.ar    1  UNL1       -0.0570
     25 C          -0.7756   -1.9244   -0.8615 C.ar    1  UNL1       -0.0271
     26 C           0.0109   -1.5498   -2.0619 C.3     1  UNL1       -0.0379
     27 C          -2.7437   -0.8113    2.0352 C.2     1  UNL1        0.2684
     28 O          -3.5360    0.1489    2.1765 O.2     1  UNL1       -0.2680
     29 N          -2.3471   -1.1000    3.3992 N.am    1  UNL1       -0.1934
     30 O          -2.3033   -0.9710    4.7655 O.3     1  UNL1       -0.2949
     31 H           5.9881   -1.6413    0.8392 H       1  UNL1        0.0660
     32 H           7.0886   -1.9224   -0.5226 H       1  UNL1        0.0660
     33 H           5.4722   -2.6585   -0.6464 H       1  UNL1        0.0660
     34 H           4.2419    1.5579   -1.9327 H       1  UNL1        0.0655
     35 H           1.9120    2.2610   -1.2555 H       1  UNL1        0.0638
     36 H           1.7184   -1.0797    1.4673 H       1  UNL1        0.0638
     37 H           3.9319   -1.7611    0.8101 H       1  UNL1        0.0655
     38 H          -3.1354    0.3941   -1.0502 H       1  UNL1        0.0532
     39 H          -1.7360    0.6945   -2.1264 H       1  UNL1        0.0532
     40 H          -0.7117    2.7666   -2.2923 H       1  UNL1        0.0622
     41 H          -0.8168    5.1166   -2.1300 H       1  UNL1        0.0633
     42 H          -2.4530    6.1910   -0.6740 H       1  UNL1        0.0829
     43 H          -3.9052    2.3014    0.4644 H       1  UNL1        0.0833
     44 H          -2.7336   -3.4791    2.0208 H       1  UNL1        0.0626
     45 H          -1.6819   -4.9835    0.4804 H       1  UNL1        0.0618
     46 H          -0.4034   -4.0305   -1.4041 H       1  UNL1        0.0621
     47 H           0.8425   -2.2510   -2.2080 H       1  UNL1        0.0278
     48 H          -0.6790   -1.6301   -2.9505 H       1  UNL1        0.0278
     49 H           0.3168   -0.5095   -2.0327 H       1  UNL1        0.0278
     50 H          -1.6612   -1.8791    3.7028 H       1  UNL1        0.1825
     51 H          -3.1516   -1.2007    5.1714 H       1  UNL1        0.2414
@<TRIPOS>BOND
     1     1     2    1
     2     2     3    1
     3     3     4   ar
     4     4     5   ar
     5     5     6   ar
     6     6     7   ar
     7     7     8   ar
     8     6     9    1
     9     9    10    2
    10     9    11    2
    11     9    12    1
    12    12    13    1
    13    13    14    1
    14    14    15   ar
    15    15    16   ar
    16    16    17   ar
    17    17    18   ar
    18    18    19   ar
    19    12    20    1
    20    20    21   ar
    21    21    22   ar
    22    22    23   ar
    23    23    24   ar
    24    24    25   ar
    25    25    26    1
    26    21    27    1
    27    27    28    2
    28    27    29   am
    29    29    30    1
    30     8     3   ar
    31    19    14   ar
    32    25    20   ar
    33     1    31    1
    34     1    32    1
    35     1    33    1
    36     4    34    1
    37     5    35    1
    38     7    36    1
    39     8    37    1
    40    13    38    1
    41    13    39    1
    42    15    40    1
    43    16    41    1
    44    17    42    1
    45    19    43    1
    46    22    44    1
    47    23    45    1
    48    24    46    1
    49    26    47    1
    50    26    48    1
    51    26    49    1
    52    29    50    1
    53    30    51    1
