
     RDKit          3D

 61 65  0  0  0  0  0  0  0  0999 V2000
   -7.7110   -1.0474    0.2679 N   0  0  0  0  0  0  0  0  0  0  0  0
   -6.4932   -1.7727    0.3475 C   0  0  0  0  0  0  0  0  0  0  0  0
   -6.5005   -3.1376    0.4159 N   0  0  0  0  0  0  0  0  0  0  0  0
   -5.3734   -3.8658    0.4697 C   0  0  0  0  0  0  0  0  0  0  0  0
   -4.1828   -3.2515    0.4570 N   0  0  0  0  0  0  0  0  0  0  0  0
   -4.0741   -1.9193    0.3921 C   0  0  0  0  0  0  0  0  0  0  0  0
   -5.2532   -1.1717    0.3374 C   0  0  0  0  0  0  0  0  0  0  0  0
   -4.8309    0.1296    0.2704 C   0  0  0  0  0  0  0  0  0  0  0  0
   -5.7060    1.2840    0.1771 C   0  0  0  0  0  0  0  0  0  0  0  0
   -6.7256    1.5407    1.0629 C   0  0  0  0  0  0  0  0  0  0  0  0
   -7.5641    2.6309    0.9397 C   0  0  0  0  0  0  0  0  0  0  0  0
   -7.3964    3.5032   -0.0902 C   0  0  0  0  0  0  0  0  0  0  0  0
   -8.4352    4.9195   -0.3064 Cl  0  0  0  0  0  0  0  0  0  0  0  0
   -6.3807    3.2744   -0.9967 C   0  0  0  0  0  0  0  0  0  0  0  0
   -5.5300    2.1696   -0.8738 C   0  0  0  0  0  0  0  0  0  0  0  0
   -3.4780    0.1162    0.2842 N   0  0  0  0  0  0  0  0  0  0  0  0
   -2.9995   -1.1073    0.3575 N   0  0  0  0  0  0  0  0  0  0  0  0
   -1.6216   -1.4951    0.3932 C   0  0  0  0  0  0  0  0  0  0  0  0
   -1.2828   -2.6598    1.0910 C   0  0  0  0  0  0  0  0  0  0  0  0
    0.0306   -3.0711    1.1516 C   0  0  0  0  0  0  0  0  0  0  0  0
    0.9804   -2.3010    0.5073 C   0  0  0  0  0  0  0  0  0  0  0  0
    0.7054   -1.1539   -0.1886 C   0  0  0  0  0  0  0  0  0  0  0  0
    1.6995   -0.3204   -0.8653 C   0  0  0  0  0  0  0  0  0  0  0  0
    1.5602    0.1414   -2.1782 C   0  0  0  0  0  0  0  0  0  0  0  0
    2.6187    0.9051   -2.4536 N   0  0  0  0  0  0  0  0  0  0  0  0
    3.3645    0.9178   -1.3879 N   0  0  0  0  0  0  0  0  0  0  0  0
    2.8287    0.1767   -0.3993 N   0  0  0  0  0  0  0  0  0  0  0  0
    3.4574    0.0100    0.8663 C   0  0  0  0  0  0  0  0  0  0  0  0
    4.4949   -1.0486    0.9690 C   0  0  0  0  0  0  0  0  0  0  0  0
    5.6648   -0.8510    0.0253 C   0  0  0  0  0  0  0  0  0  0  0  0
    6.3392    0.4483    0.3196 C   0  0  0  0  0  0  0  0  0  0  0  0
    7.5258    0.6948   -0.5969 C   0  0  0  0  0  0  0  0  0  0  0  0
    8.1095    2.0101   -0.2079 C   0  0  0  0  0  0  0  0  0  0  0  0
    7.6316    2.7162    0.7276 O   0  0  0  0  0  0  0  0  0  0  0  0
    9.2505    2.5535   -0.8737 N   0  0  0  0  0  0  0  0  0  0  0  0
    9.7624    3.7514   -0.5014 O   0  0  0  0  0  0  0  0  0  0  0  0
   -0.6458   -0.7649   -0.2292 C   0  0  0  0  0  0  0  0  0  0  0  0
   -8.2895   -0.9229    1.1216 H   0  0  0  0  0  0  0  0  0  0  0  0
   -8.0637   -0.6258   -0.6129 H   0  0  0  0  0  0  0  0  0  0  0  0
   -5.3978   -4.9555    0.5241 H   0  0  0  0  0  0  0  0  0  0  0  0
   -6.9117    0.9095    1.9208 H   0  0  0  0  0  0  0  0  0  0  0  0
   -8.3645    2.8145    1.6510 H   0  0  0  0  0  0  0  0  0  0  0  0
   -6.2629    3.9862   -1.8153 H   0  0  0  0  0  0  0  0  0  0  0  0
   -4.7445    2.0156   -1.5971 H   0  0  0  0  0  0  0  0  0  0  0  0
   -2.0798   -3.2114    1.5706 H   0  0  0  0  0  0  0  0  0  0  0  0
    0.2663   -3.9682    1.6930 H   0  0  0  0  0  0  0  0  0  0  0  0
    2.0027   -2.6372    0.5525 H   0  0  0  0  0  0  0  0  0  0  0  0
    0.7402   -0.0833   -2.8454 H   0  0  0  0  0  0  0  0  0  0  0  0
    2.7044   -0.2114    1.6800 H   0  0  0  0  0  0  0  0  0  0  0  0
    3.9285    0.9767    1.2046 H   0  0  0  0  0  0  0  0  0  0  0  0
    4.1848   -2.0818    0.9238 H   0  0  0  0  0  0  0  0  0  0  0  0
    4.9538   -0.9288    2.0045 H   0  0  0  0  0  0  0  0  0  0  0  0
    6.3922   -1.6636    0.2275 H   0  0  0  0  0  0  0  0  0  0  0  0
    5.3613   -0.9637   -1.0335 H   0  0  0  0  0  0  0  0  0  0  0  0
    6.6748    0.4390    1.3639 H   0  0  0  0  0  0  0  0  0  0  0  0
    5.6401    1.3187    0.1864 H   0  0  0  0  0  0  0  0  0  0  0  0
    7.1944    0.6945   -1.6399 H   0  0  0  0  0  0  0  0  0  0  0  0
    8.2541   -0.1171   -0.4434 H   0  0  0  0  0  0  0  0  0  0  0  0
    9.6657    2.0070   -1.6394 H   0  0  0  0  0  0  0  0  0  0  0  0
    9.2067    4.1177    0.2110 H   0  0  0  0  0  0  0  0  0  0  0  0
   -0.8950    0.1367   -0.7715 H   0  0  0  0  0  0  0  0  0  0  0  0
  1  2  1  0
  2  3  2  0
  3  4  1  0
  4  5  2  0
  5  6  1  0
  6  7  2  0
  7  8  1  0
  8  9  1  0
  9 10  2  0
 10 11  1  0
 11 12  2  0
 12 13  1  0
 12 14  1  0
 14 15  2  0
  8 16  2  0
 16 17  1  0
 17 18  1  0
 18 19  2  0
 19 20  1  0
 20 21  2  0
 21 22  1  0
 22 23  1  0
 23 24  2  0
 24 25  1  0
 25 26  2  0
 26 27  1  0
 27 28  1  0
 28 29  1  0
 29 30  1  0
 30 31  1  0
 31 32  1  0
 32 33  1  0
 33 34  2  0
 33 35  1  0
 35 36  1  0
 22 37  2  0
  7  2  1  0
 15  9  1  0
 37 18  1  0
 17  6  1  0
 27 23  1  0
  1 38  1  0
  1 39  1  0
  4 40  1  0
 10 41  1  0
 11 42  1  0
 14 43  1  0
 15 44  1  0
 19 45  1  0
 20 46  1  0
 21 47  1  0
 24 48  1  0
 28 49  1  0
 28 50  1  0
 29 51  1  0
 29 52  1  0
 30 53  1  0
 30 54  1  0
 31 55  1  0
 31 56  1  0
 32 57  1  0
 32 58  1  0
 35 59  1  0
 36 60  1  0
 37 61  1  0
M  END
$$$$
