@<TRIPOS>MOLECULE
*****
 61 65 0 0 0
SMALL
GASTEIGER

@<TRIPOS>ATOM
      1 N          -7.7110   -1.0474    0.2679 N.pl3   1  UNL1       -0.3425
      2 C          -6.4932   -1.7727    0.3475 C.ar    1  UNL1        0.1308
      3 N          -6.5005   -3.1376    0.4159 N.ar    1  UNL1       -0.2204
      4 C          -5.3734   -3.8658    0.4697 C.ar    1  UNL1        0.1204
      5 N          -4.1828   -3.2515    0.4570 N.ar    1  UNL1       -0.2158
      6 C          -4.0741   -1.9193    0.3921 C.ar    1  UNL1        0.1688
      7 C          -5.2532   -1.1717    0.3374 C.ar    1  UNL1        0.0862
      8 C          -4.8309    0.1296    0.2704 C.ar    1  UNL1        0.1057
      9 C          -5.7060    1.2840    0.1771 C.ar    1  UNL1        0.0030
     10 C          -6.7256    1.5407    1.0629 C.ar    1  UNL1       -0.0511
     11 C          -7.5641    2.6309    0.9397 C.ar    1  UNL1       -0.0428
     12 C          -7.3964    3.5032   -0.0902 C.ar    1  UNL1        0.0410
     13 CL         -8.4352    4.9195   -0.3064 Cl      1  UNL1       -0.0835
     14 C          -6.3807    3.2744   -0.9967 C.ar    1  UNL1       -0.0428
     15 C          -5.5300    2.1696   -0.8738 C.ar    1  UNL1       -0.0511
     16 N          -3.4780    0.1162    0.2842 N.ar    1  UNL1       -0.1637
     17 N          -2.9995   -1.1073    0.3575 N.ar    1  UNL1       -0.2133
     18 C          -1.6216   -1.4951    0.3932 C.ar    1  UNL1        0.0683
     19 C          -1.2828   -2.6598    1.0910 C.ar    1  UNL1       -0.0362
     20 C           0.0306   -3.0711    1.1516 C.ar    1  UNL1       -0.0591
     21 C           0.9804   -2.3010    0.5073 C.ar    1  UNL1       -0.0524
     22 C           0.7054   -1.1539   -0.1886 C.ar    1  UNL1        0.0036
     23 C           1.6995   -0.3204   -0.8653 C.ar    1  UNL1        0.0889
     24 C           1.5602    0.1414   -2.1782 C.ar    1  UNL1        0.0771
     25 N           2.6187    0.9051   -2.4536 N.ar    1  UNL1       -0.1373
     26 N           3.3645    0.9178   -1.3879 N.ar    1  UNL1       -0.0652
     27 N           2.8287    0.1767   -0.3993 N.ar    1  UNL1       -0.2440
     28 C           3.4574    0.0100    0.8663 C.3     1  UNL1        0.0438
     29 C           4.4949   -1.0486    0.9690 C.3     1  UNL1       -0.0333
     30 C           5.6648   -0.8510    0.0253 C.3     1  UNL1       -0.0510
     31 C           6.3392    0.4483    0.3196 C.3     1  UNL1       -0.0447
     32 C           7.5258    0.6948   -0.5969 C.3     1  UNL1        0.0259
     33 C           8.1095    2.0101   -0.2079 C.2     1  UNL1        0.2354
     34 O           7.6316    2.7162    0.7276 O.2     1  UNL1       -0.2737
     35 N           9.2505    2.5535   -0.8737 N.am    1  UNL1       -0.1975
     36 O           9.7624    3.7514   -0.5014 O.3     1  UNL1       -0.2952
     37 C          -0.6458   -0.7649   -0.2292 C.ar    1  UNL1       -0.0270
     38 H          -8.2895   -0.9229    1.1216 H       1  UNL1        0.1437
     39 H          -8.0637   -0.6258   -0.6129 H       1  UNL1        0.1437
     40 H          -5.3978   -4.9555    0.5241 H       1  UNL1        0.1048
     41 H          -6.9117    0.9095    1.9208 H       1  UNL1        0.0625
     42 H          -8.3645    2.8145    1.6510 H       1  UNL1        0.0632
     43 H          -6.2629    3.9862   -1.8153 H       1  UNL1        0.0632
     44 H          -4.7445    2.0156   -1.5971 H       1  UNL1        0.0625
     45 H          -2.0798   -3.2114    1.5706 H       1  UNL1        0.0639
     46 H           0.2663   -3.9682    1.6930 H       1  UNL1        0.0618
     47 H           2.0027   -2.6372    0.5525 H       1  UNL1        0.0624
     48 H           0.7402   -0.0833   -2.8454 H       1  UNL1        0.0870
     49 H           2.7044   -0.2114    1.6800 H       1  UNL1        0.0509
     50 H           3.9285    0.9767    1.2046 H       1  UNL1        0.0509
     51 H           4.1848   -2.0818    0.9238 H       1  UNL1        0.0283
     52 H           4.9538   -0.9288    2.0045 H       1  UNL1        0.0283
     53 H           6.3922   -1.6636    0.2275 H       1  UNL1        0.0266
     54 H           5.3613   -0.9637   -1.0335 H       1  UNL1        0.0266
     55 H           6.6748    0.4390    1.3639 H       1  UNL1        0.0270
     56 H           5.6401    1.3187    0.1864 H       1  UNL1        0.0270
     57 H           7.1944    0.6945   -1.6399 H       1  UNL1        0.0359
     58 H           8.2541   -0.1171   -0.4434 H       1  UNL1        0.0359
     59 H           9.6657    2.0070   -1.6394 H       1  UNL1        0.1822
     60 H           9.2067    4.1177    0.2110 H       1  UNL1        0.2414
     61 H          -0.8950    0.1367   -0.7715 H       1  UNL1        0.0645
@<TRIPOS>BOND
     1     1     2    1
     2     2     3   ar
     3     3     4   ar
     4     4     5   ar
     5     5     6   ar
     6     6     7   ar
     7     7     8   ar
     8     8     9    1
     9     9    10   ar
    10    10    11   ar
    11    11    12   ar
    12    12    13    1
    13    12    14   ar
    14    14    15   ar
    15     8    16   ar
    16    16    17   ar
    17    17    18    1
    18    18    19   ar
    19    19    20   ar
    20    20    21   ar
    21    21    22   ar
    22    22    23    1
    23    23    24   ar
    24    24    25   ar
    25    25    26   ar
    26    26    27   ar
    27    27    28    1
    28    28    29    1
    29    29    30    1
    30    30    31    1
    31    31    32    1
    32    32    33    1
    33    33    34    2
    34    33    35   am
    35    35    36    1
    36    22    37   ar
    37     7     2   ar
    38    15     9   ar
    39    37    18   ar
    40    17     6   ar
    41    27    23   ar
    42     1    38    1
    43     1    39    1
    44     4    40    1
    45    10    41    1
    46    11    42    1
    47    14    43    1
    48    15    44    1
    49    19    45    1
    50    20    46    1
    51    21    47    1
    52    24    48    1
    53    28    49    1
    54    28    50    1
    55    29    51    1
    56    29    52    1
    57    30    53    1
    58    30    54    1
    59    31    55    1
    60    31    56    1
    61    32    57    1
    62    32    58    1
    63    35    59    1
    64    36    60    1
    65    37    61    1
