@<TRIPOS>MOLECULE
*****
 55 58 0 0 0
SMALL
GASTEIGER

@<TRIPOS>ATOM
      1 C          -7.5715   -3.2648    1.3734 C.3     1  UNL1       -0.0396
      2 C          -6.8811   -1.9773    1.1238 C.ar    1  UNL1       -0.0484
      3 C          -7.5664   -0.7906    1.2495 C.ar    1  UNL1       -0.0558
      4 C          -6.9442    0.4184    1.0214 C.ar    1  UNL1       -0.0484
      5 C          -7.6768    1.7040    1.1562 C.3     1  UNL1       -0.0396
      6 C          -5.6010    0.3719    0.6612 C.ar    1  UNL1       -0.0375
      7 C          -4.8677   -0.7853    0.5219 C.ar    1  UNL1        0.0341
      8 N          -3.5108   -0.8641    0.1817 N.pl3   1  UNL1       -0.2836
      9 C          -2.5902    0.1828    0.2108 C.ar    1  UNL1        0.2213
     10 N          -2.9389    1.3982    0.6401 N.ar    1  UNL1       -0.2225
     11 C          -2.0662    2.3996    0.6735 C.ar    1  UNL1        0.0347
     12 C          -0.7550    2.1798    0.2515 C.ar    1  UNL1       -0.0005
     13 C          -0.3626    0.9363   -0.1975 C.ar    1  UNL1        0.1425
     14 N           0.9780    0.7069   -0.6269 N.ar    1  UNL1       -0.3074
     15 C           1.3859   -0.2010   -1.5294 C.ar    1  UNL1        0.0144
     16 C           2.7669   -0.1509   -1.7025 C.ar    1  UNL1       -0.0281
     17 C           3.5673   -1.0122   -2.6410 C.3     1  UNL1       -0.0380
     18 C           3.2160    0.8302   -0.8683 C.ar    1  UNL1       -0.0126
     19 C           4.5821    1.3003   -0.6316 C.3     1  UNL1        0.0258
     20 N           5.4007    0.5404    0.2238 N.3     1  UNL1       -0.2956
     21 C           5.6987   -0.7631   -0.2054 C.3     1  UNL1        0.0017
     22 C           6.8962   -1.2230    0.6319 C.3     1  UNL1       -0.0128
     23 C           7.6487    0.0960    0.7069 C.3     1  UNL1        0.0691
     24 O           8.4285    0.1770   -0.4653 O.3     1  UNL1       -0.3905
     25 C           6.5907    1.1560    0.6600 C.3     1  UNL1        0.0253
     26 C           2.0803    1.3306   -0.2268 C.ar    1  UNL1        0.0158
     27 N          -1.2895   -0.0274   -0.2058 N.ar    1  UNL1       -0.1965
     28 C          -5.5799   -1.9833    0.7735 C.ar    1  UNL1       -0.0375
     29 H          -8.6762   -3.1415    1.3903 H       1  UNL1        0.0278
     30 H          -7.3635   -4.0135    0.5809 H       1  UNL1        0.0278
     31 H          -7.3020   -3.7070    2.3582 H       1  UNL1        0.0278
     32 H          -8.6011   -0.8551    1.5317 H       1  UNL1        0.0623
     33 H          -7.1643    2.4463    0.5160 H       1  UNL1        0.0278
     34 H          -7.5914    1.9819    2.2385 H       1  UNL1        0.0278
     35 H          -8.7297    1.6159    0.8311 H       1  UNL1        0.0278
     36 H          -5.1298    1.3469    0.4702 H       1  UNL1        0.0639
     37 H          -3.1394   -1.8093   -0.1336 H       1  UNL1        0.1550
     38 H          -2.3568    3.3805    1.0222 H       1  UNL1        0.0832
     39 H          -0.0442    2.9935    0.2785 H       1  UNL1        0.0669
     40 H           0.7312   -0.8925   -2.0639 H       1  UNL1        0.0816
     41 H           4.4051   -0.4716   -3.0915 H       1  UNL1        0.0278
     42 H           2.8744   -1.2806   -3.4947 H       1  UNL1        0.0278
     43 H           3.8173   -1.9717   -2.1658 H       1  UNL1        0.0278
     44 H           4.5240    2.3442   -0.1918 H       1  UNL1        0.0476
     45 H           5.0721    1.4174   -1.6292 H       1  UNL1        0.0476
     46 H           4.8440   -1.4337   -0.0834 H       1  UNL1        0.0427
     47 H           6.0423   -0.7886   -1.2634 H       1  UNL1        0.0427
     48 H           6.5221   -1.5646    1.5997 H       1  UNL1        0.0303
     49 H           7.4461   -1.9966    0.0721 H       1  UNL1        0.0303
     50 H           8.2710    0.1409    1.6170 H       1  UNL1        0.0606
     51 H           8.0546    0.8459   -1.0772 H       1  UNL1        0.2098
     52 H           6.9387    1.9973    0.0193 H       1  UNL1        0.0452
     53 H           6.4349    1.5099    1.7205 H       1  UNL1        0.0452
     54 H           2.0880    2.1357    0.5151 H       1  UNL1        0.0816
     55 H          -5.0055   -2.9153    0.6666 H       1  UNL1        0.0639
@<TRIPOS>BOND
     1     1     2    1
     2     2     3   ar
     3     3     4   ar
     4     4     5    1
     5     4     6   ar
     6     6     7   ar
     7     7     8    1
     8     8     9    1
     9     9    10   ar
    10    10    11   ar
    11    11    12   ar
    12    12    13   ar
    13    13    14    1
    14    14    15   ar
    15    15    16   ar
    16    16    17    1
    17    16    18   ar
    18    18    19    1
    19    19    20    1
    20    20    21    1
    21    21    22    1
    22    22    23    1
    23    23    24    1
    24    23    25    1
    25    18    26   ar
    26    13    27   ar
    27     7    28   ar
    28    28     2   ar
    29    27     9   ar
    30    26    14   ar
    31    25    20    1
    32     1    29    1
    33     1    30    1
    34     1    31    1
    35     3    32    1
    36     5    33    1
    37     5    34    1
    38     5    35    1
    39     6    36    1
    40     8    37    1
    41    11    38    1
    42    12    39    1
    43    15    40    1
    44    17    41    1
    45    17    42    1
    46    17    43    1
    47    19    44    1
    48    19    45    1
    49    21    46    1
    50    21    47    1
    51    22    48    1
    52    22    49    1
    53    23    50    1
    54    24    51    1
    55    25    52    1
    56    25    53    1
    57    26    54    1
    58    28    55    1
