
     RDKit          3D

 55 58  0  0  0  0  0  0  0  0999 V2000
   -7.5715   -3.2648    1.3734 C   0  0  0  0  0  0  0  0  0  0  0  0
   -6.8811   -1.9773    1.1238 C   0  0  0  0  0  0  0  0  0  0  0  0
   -7.5664   -0.7906    1.2495 C   0  0  0  0  0  0  0  0  0  0  0  0
   -6.9442    0.4184    1.0214 C   0  0  0  0  0  0  0  0  0  0  0  0
   -7.6768    1.7040    1.1562 C   0  0  0  0  0  0  0  0  0  0  0  0
   -5.6010    0.3719    0.6612 C   0  0  0  0  0  0  0  0  0  0  0  0
   -4.8677   -0.7853    0.5219 C   0  0  0  0  0  0  0  0  0  0  0  0
   -3.5108   -0.8641    0.1817 N   0  0  0  0  0  0  0  0  0  0  0  0
   -2.5902    0.1828    0.2108 C   0  0  0  0  0  0  0  0  0  0  0  0
   -2.9389    1.3982    0.6401 N   0  0  0  0  0  0  0  0  0  0  0  0
   -2.0662    2.3996    0.6735 C   0  0  0  0  0  0  0  0  0  0  0  0
   -0.7550    2.1798    0.2515 C   0  0  0  0  0  0  0  0  0  0  0  0
   -0.3626    0.9363   -0.1975 C   0  0  0  0  0  0  0  0  0  0  0  0
    0.9780    0.7069   -0.6269 N   0  0  0  0  0  0  0  0  0  0  0  0
    1.3859   -0.2010   -1.5294 C   0  0  0  0  0  0  0  0  0  0  0  0
    2.7669   -0.1509   -1.7025 C   0  0  0  0  0  0  0  0  0  0  0  0
    3.5673   -1.0122   -2.6410 C   0  0  0  0  0  0  0  0  0  0  0  0
    3.2160    0.8302   -0.8683 C   0  0  0  0  0  0  0  0  0  0  0  0
    4.5821    1.3003   -0.6316 C   0  0  0  0  0  0  0  0  0  0  0  0
    5.4007    0.5404    0.2238 N   0  0  0  0  0  0  0  0  0  0  0  0
    5.6987   -0.7631   -0.2054 C   0  0  0  0  0  0  0  0  0  0  0  0
    6.8962   -1.2230    0.6319 C   0  0  0  0  0  0  0  0  0  0  0  0
    7.6487    0.0960    0.7069 C   0  0  1  0  0  0  0  0  0  0  0  0
    8.4285    0.1770   -0.4653 O   0  0  0  0  0  0  0  0  0  0  0  0
    6.5907    1.1560    0.6600 C   0  0  0  0  0  0  0  0  0  0  0  0
    2.0803    1.3306   -0.2268 C   0  0  0  0  0  0  0  0  0  0  0  0
   -1.2895   -0.0274   -0.2058 N   0  0  0  0  0  0  0  0  0  0  0  0
   -5.5799   -1.9833    0.7735 C   0  0  0  0  0  0  0  0  0  0  0  0
   -8.6762   -3.1415    1.3903 H   0  0  0  0  0  0  0  0  0  0  0  0
   -7.3635   -4.0135    0.5809 H   0  0  0  0  0  0  0  0  0  0  0  0
   -7.3020   -3.7070    2.3582 H   0  0  0  0  0  0  0  0  0  0  0  0
   -8.6011   -0.8551    1.5317 H   0  0  0  0  0  0  0  0  0  0  0  0
   -7.1643    2.4463    0.5160 H   0  0  0  0  0  0  0  0  0  0  0  0
   -7.5914    1.9819    2.2385 H   0  0  0  0  0  0  0  0  0  0  0  0
   -8.7297    1.6159    0.8311 H   0  0  0  0  0  0  0  0  0  0  0  0
   -5.1298    1.3469    0.4702 H   0  0  0  0  0  0  0  0  0  0  0  0
   -3.1394   -1.8093   -0.1336 H   0  0  0  0  0  0  0  0  0  0  0  0
   -2.3568    3.3805    1.0222 H   0  0  0  0  0  0  0  0  0  0  0  0
   -0.0442    2.9935    0.2785 H   0  0  0  0  0  0  0  0  0  0  0  0
    0.7312   -0.8925   -2.0639 H   0  0  0  0  0  0  0  0  0  0  0  0
    4.4051   -0.4716   -3.0915 H   0  0  0  0  0  0  0  0  0  0  0  0
    2.8744   -1.2806   -3.4947 H   0  0  0  0  0  0  0  0  0  0  0  0
    3.8173   -1.9717   -2.1658 H   0  0  0  0  0  0  0  0  0  0  0  0
    4.5240    2.3442   -0.1918 H   0  0  0  0  0  0  0  0  0  0  0  0
    5.0721    1.4174   -1.6292 H   0  0  0  0  0  0  0  0  0  0  0  0
    4.8440   -1.4337   -0.0834 H   0  0  0  0  0  0  0  0  0  0  0  0
    6.0423   -0.7886   -1.2634 H   0  0  0  0  0  0  0  0  0  0  0  0
    6.5221   -1.5646    1.5997 H   0  0  0  0  0  0  0  0  0  0  0  0
    7.4461   -1.9966    0.0721 H   0  0  0  0  0  0  0  0  0  0  0  0
    8.2710    0.1409    1.6170 H   0  0  0  0  0  0  0  0  0  0  0  0
    8.0546    0.8459   -1.0772 H   0  0  0  0  0  0  0  0  0  0  0  0
    6.9387    1.9973    0.0193 H   0  0  0  0  0  0  0  0  0  0  0  0
    6.4349    1.5099    1.7205 H   0  0  0  0  0  0  0  0  0  0  0  0
    2.0880    2.1357    0.5151 H   0  0  0  0  0  0  0  0  0  0  0  0
   -5.0055   -2.9153    0.6666 H   0  0  0  0  0  0  0  0  0  0  0  0
  1  2  1  0
  2  3  2  0
  3  4  1  0
  4  5  1  0
  4  6  2  0
  6  7  1  0
  7  8  1  0
  8  9  1  0
  9 10  2  0
 10 11  1  0
 11 12  2  0
 12 13  1  0
 13 14  1  0
 14 15  1  0
 15 16  2  0
 16 17  1  0
 16 18  1  0
 18 19  1  0
 19 20  1  0
 20 21  1  0
 21 22  1  0
 22 23  1  0
 23 24  1  0
 23 25  1  0
 18 26  2  0
 13 27  2  0
  7 28  2  0
 28  2  1  0
 27  9  1  0
 26 14  1  0
 25 20  1  0
  1 29  1  0
  1 30  1  0
  1 31  1  0
  3 32  1  0
  5 33  1  0
  5 34  1  0
  5 35  1  0
  6 36  1  0
  8 37  1  0
 11 38  1  0
 12 39  1  0
 15 40  1  0
 17 41  1  0
 17 42  1  0
 17 43  1  0
 19 44  1  0
 19 45  1  0
 21 46  1  0
 21 47  1  0
 22 48  1  0
 22 49  1  0
 23 50  1  1
 24 51  1  0
 25 52  1  0
 25 53  1  0
 26 54  1  0
 28 55  1  0
M  END
$$$$
