
     RDKit          3D

 33 34  0  0  0  0  0  0  0  0999 V2000
    0.6909    0.0000    0.0000 Cl  0  0  0  0  0  0  0  0  0  0  0  0
   -0.1584    1.2407   -1.2777 N   0  0  0  0  0  0  0  0  0  0  0  0
   -0.4731    0.0507   -0.4994 C   0  0  1  0  0  0  0  0  0  0  0  0
   -1.8905   -0.0011   -0.0835 C   0  0  0  0  0  0  0  0  0  0  0  0
   -2.8558    0.2280   -1.0389 C   0  0  0  0  0  0  0  0  0  0  0  0
   -4.2149    0.1919   -0.7034 C   0  0  0  0  0  0  0  0  0  0  0  0
   -4.6022   -0.0728    0.5844 C   0  0  0  0  0  0  0  0  0  0  0  0
   -3.6594   -0.3013    1.5399 C   0  0  0  0  0  0  0  0  0  0  0  0
   -2.3162   -0.2629    1.1956 C   0  0  0  0  0  0  0  0  0  0  0  0
    0.0606   -1.2896   -0.9570 C   0  0  0  0  0  0  0  0  0  0  0  0
    0.5693   -0.6192    0.3160 C   0  0  1  0  0  0  0  0  0  0  0  0
    1.9695   -0.2080    0.2350 C   0  0  0  0  0  0  0  0  0  0  0  0
    2.5838    0.2823   -0.8995 C   0  0  0  0  0  0  0  0  0  0  0  0
    3.9112    0.6615   -0.9270 C   0  0  0  0  0  0  0  0  0  0  0  0
    4.6648    0.5491    0.2251 C   0  0  0  0  0  0  0  0  0  0  0  0
    4.0865    0.0642    1.3760 C   0  0  0  0  0  0  0  0  0  0  0  0
    2.7724   -0.2982    1.3570 C   0  0  0  0  0  0  0  0  0  0  0  0
   -0.6909    0.0000    0.0000 H   0  0  0  0  0  0  0  0  0  0  0  0
   -0.2842    0.9862   -2.2946 H   0  0  0  0  0  0  0  0  0  0  0  0
   -0.8184    1.9996   -1.0669 H   0  0  0  0  0  0  0  0  0  0  0  0
   -2.6412    0.4436   -2.0756 H   0  0  0  0  0  0  0  0  0  0  0  0
   -4.9644    0.3751   -1.4700 H   0  0  0  0  0  0  0  0  0  0  0  0
   -5.6675   -0.0943    0.8158 H   0  0  0  0  0  0  0  0  0  0  0  0
   -3.9618   -0.5133    2.5703 H   0  0  0  0  0  0  0  0  0  0  0  0
   -1.6071   -0.4463    1.9683 H   0  0  0  0  0  0  0  0  0  0  0  0
   -0.5418   -2.2017   -0.7792 H   0  0  0  0  0  0  0  0  0  0  0  0
    0.6688   -1.2395   -1.8620 H   0  0  0  0  0  0  0  0  0  0  0  0
    0.2712   -1.0632    1.2962 H   0  0  0  0  0  0  0  0  0  0  0  0
    1.9767    0.3599   -1.7890 H   0  0  0  0  0  0  0  0  0  0  0  0
    4.3764    1.0454   -1.8309 H   0  0  0  0  0  0  0  0  0  0  0  0
    5.7040    0.8291    0.2636 H   0  0  0  0  0  0  0  0  0  0  0  0
    4.6912   -0.0172    2.2690 H   0  0  0  0  0  0  0  0  0  0  0  0
    2.3504   -0.6788    2.2923 H   0  0  0  0  0  0  0  0  0  0  0  0
  3  2  1  6
  3  4  1  0
  4  5  2  0
  5  6  1  0
  6  7  2  0
  7  8  1  0
  8  9  2  0
  3 10  1  0
 10 11  1  0
 11 12  1  0
 12 13  2  0
 13 14  1  0
 14 15  2  0
 15 16  1  0
 16 17  2  0
 11  3  1  0
 17 12  1  0
  9  4  1  0
  1 18  1  0
  2 19  1  0
  2 20  1  0
  5 21  1  0
  6 22  1  0
  7 23  1  0
  8 24  1  0
  9 25  1  0
 10 26  1  0
 10 27  1  0
 11 28  1  1
 13 29  1  0
 14 30  1  0
 15 31  1  0
 16 32  1  0
 17 33  1  0
M  END
$$$$
