@<TRIPOS>MOLECULE
*****
 33 34 0 0 0
SMALL
GASTEIGER

@<TRIPOS>ATOM
      1 CL          0.6909    0.0000    0.0000 Cl      1  UNL1       -0.1454
      2 N          -0.1584    1.2407   -1.2777 N.3     2  UNL2       -0.3206
      3 C          -0.4731    0.0507   -0.4994 C.3     2  UNL2        0.0495
      4 C          -1.8905   -0.0011   -0.0835 C.ar    2  UNL2       -0.0270
      5 C          -2.8558    0.2280   -1.0389 C.ar    2  UNL2       -0.0568
      6 C          -4.2149    0.1919   -0.7034 C.ar    2  UNL2       -0.0614
      7 C          -4.6022   -0.0728    0.5844 C.ar    2  UNL2       -0.0617
      8 C          -3.6594   -0.3013    1.5399 C.ar    2  UNL2       -0.0614
      9 C          -2.3162   -0.2629    1.1956 C.ar    2  UNL2       -0.0568
     10 C           0.0606   -1.2896   -0.9570 C.3     2  UNL2       -0.0213
     11 C           0.5693   -0.6192    0.3160 C.3     2  UNL2        0.0083
     12 C           1.9695   -0.2080    0.2350 C.ar    2  UNL2       -0.0421
     13 C           2.5838    0.2823   -0.8995 C.ar    2  UNL2       -0.0582
     14 C           3.9112    0.6615   -0.9270 C.ar    2  UNL2       -0.0615
     15 C           4.6648    0.5491    0.2251 C.ar    2  UNL2       -0.0617
     16 C           4.0865    0.0642    1.3760 C.ar    2  UNL2       -0.0615
     17 C           2.7724   -0.2982    1.3570 C.ar    2  UNL2       -0.0582
     18 H          -0.6909    0.0000    0.0000 H       1  UNL1        0.1454
     19 H          -0.2842    0.9862   -2.2946 H       2  UNL2        0.1190
     20 H          -0.8184    1.9996   -1.0669 H       2  UNL2        0.1190
     21 H          -2.6412    0.4436   -2.0756 H       2  UNL2        0.0621
     22 H          -4.9644    0.3751   -1.4700 H       2  UNL2        0.0618
     23 H          -5.6675   -0.0943    0.8158 H       2  UNL2        0.0618
     24 H          -3.9618   -0.5133    2.5703 H       2  UNL2        0.0618
     25 H          -1.6071   -0.4463    1.9683 H       2  UNL2        0.0621
     26 H          -0.5418   -2.2017   -0.7792 H       2  UNL2        0.0293
     27 H           0.6688   -1.2395   -1.8620 H       2  UNL2        0.0293
     28 H           0.2712   -1.0632    1.2962 H       2  UNL2        0.0371
     29 H           1.9767    0.3599   -1.7890 H       2  UNL2        0.0620
     30 H           4.3764    1.0454   -1.8309 H       2  UNL2        0.0618
     31 H           5.7040    0.8291    0.2636 H       2  UNL2        0.0618
     32 H           4.6912   -0.0172    2.2690 H       2  UNL2        0.0618
     33 H           2.3504   -0.6788    2.2923 H       2  UNL2        0.0620
@<TRIPOS>BOND
     1     3     2    1
     2     3     4    1
     3     4     5   ar
     4     5     6   ar
     5     6     7   ar
     6     7     8   ar
     7     8     9   ar
     8     3    10    1
     9    10    11    1
    10    11    12    1
    11    12    13   ar
    12    13    14   ar
    13    14    15   ar
    14    15    16   ar
    15    16    17   ar
    16    11     3    1
    17    17    12   ar
    18     9     4   ar
    19     1    18    1
    20     2    19    1
    21     2    20    1
    22     5    21    1
    23     6    22    1
    24     7    23    1
    25     8    24    1
    26     9    25    1
    27    10    26    1
    28    10    27    1
    29    11    28    1
    30    13    29    1
    31    14    30    1
    32    15    31    1
    33    16    32    1
    34    17    33    1
