
     RDKit          3D

 30 33  0  0  0  0  0  0  0  0999 V2000
   -1.4411   -3.1623   -1.1734 O   0  0  0  0  0  0  0  0  0  0  0  0
   -0.2942   -2.8236   -1.0702 C   0  0  0  0  0  0  0  0  0  0  0  0
    0.6321   -3.8432   -1.4422 O   0  0  0  0  0  0  0  0  0  0  0  0
    0.2818   -1.5903   -0.6438 C   0  0  0  0  0  0  0  0  0  0  0  0
    1.6628   -1.4923   -0.6317 N   0  0  0  0  0  0  0  0  0  0  0  0
    2.3300   -0.4236   -0.2647 C   0  0  0  0  0  0  0  0  0  0  0  0
    3.7142   -0.4443   -0.2946 C   0  0  0  0  0  0  0  0  0  0  0  0
    4.3680    0.6901    0.0959 C   0  0  0  0  0  0  0  0  0  0  0  0
    3.7063    1.8304    0.5101 C   0  0  0  0  0  0  0  0  0  0  0  0
    2.3385    1.8152    0.5271 C   0  0  0  0  0  0  0  0  0  0  0  0
    1.6525    0.6838    0.1382 C   0  0  0  0  0  0  0  0  0  0  0  0
    0.2559    0.6480    0.1484 C   0  0  0  0  0  0  0  0  0  0  0  0
   -0.5903    1.6154    0.5048 N   0  0  0  0  0  0  0  0  0  0  0  0
   -1.8193    1.1085    0.3459 C   0  0  0  0  0  0  0  0  0  0  0  0
   -3.0367    1.7031    0.5768 C   0  0  0  0  0  0  0  0  0  0  0  0
   -3.0931    3.3508    1.1607 Cl  0  0  0  0  0  0  0  0  0  0  0  0
   -4.1723    0.9751    0.3383 C   0  0  0  0  0  0  0  0  0  0  0  0
   -4.1162   -0.3195   -0.1207 C   0  0  0  0  0  0  0  0  0  0  0  0
   -2.8724   -0.9336   -0.3589 C   0  0  0  0  0  0  0  0  0  0  0  0
   -1.7492   -0.1939   -0.1161 C   0  0  0  0  0  0  0  0  0  0  0  0
   -0.4060   -0.4939   -0.2447 C   0  0  0  0  0  0  0  0  0  0  0  0
    0.2961   -4.7921   -1.6571 H   0  0  0  0  0  0  0  0  0  0  0  0
    4.2396   -1.3170   -0.6119 H   0  0  0  0  0  0  0  0  0  0  0  0
    5.4424    0.7203    0.0890 H   0  0  0  0  0  0  0  0  0  0  0  0
    4.2950    2.7067    0.8104 H   0  0  0  0  0  0  0  0  0  0  0  0
    1.7787    2.6940    0.8471 H   0  0  0  0  0  0  0  0  0  0  0  0
   -0.3090    2.5633    0.8355 H   0  0  0  0  0  0  0  0  0  0  0  0
   -5.1082    1.4801    0.5328 H   0  0  0  0  0  0  0  0  0  0  0  0
   -5.0452   -0.8359   -0.2878 H   0  0  0  0  0  0  0  0  0  0  0  0
   -2.9405   -1.9194   -0.7064 H   0  0  0  0  0  0  0  0  0  0  0  0
  1  2  2  0
  2  3  1  0
  2  4  1  0
  4  5  2  0
  5  6  1  0
  6  7  2  0
  7  8  1  0
  8  9  2  0
  9 10  1  0
 10 11  2  0
 11 12  1  0
 12 13  1  0
 13 14  1  0
 14 15  2  0
 15 16  1  0
 15 17  1  0
 17 18  2  0
 18 19  1  0
 19 20  2  0
 20 21  1  0
 21  4  1  0
 11  6  1  0
 21 12  2  0
 20 14  1  0
  3 22  1  0
  7 23  1  0
  8 24  1  0
  9 25  1  0
 10 26  1  0
 13 27  1  0
 17 28  1  0
 18 29  1  0
 19 30  1  0
M  END
$$$$
