@<TRIPOS>MOLECULE
*****
 30 33 0 0 0
SMALL
GASTEIGER

@<TRIPOS>ATOM
      1 O          -1.4411   -3.1623   -1.1734 O.2     1  UNL1       -0.2434
      2 C          -0.2942   -2.8236   -1.0702 C.2     1  UNL1        0.3560
      3 OXT         0.6321   -3.8432   -1.4422 O.3     1  UNL1       -0.4761
      4 CA          0.2818   -1.5903   -0.6438 C.ar    1  UNL1        0.1578
      5 N           1.6628   -1.4923   -0.6317 N.ar    1  UNL1       -0.2394
      6 C           2.3300   -0.4236   -0.2647 C.ar    1  UNL1        0.0739
      7 C           3.7142   -0.4443   -0.2946 C.ar    1  UNL1       -0.0356
      8 C           4.3680    0.6901    0.0959 C.ar    1  UNL1       -0.0597
      9 C           3.7063    1.8304    0.5101 C.ar    1  UNL1       -0.0610
     10 C           2.3385    1.8152    0.5271 C.ar    1  UNL1       -0.0506
     11 C           1.6525    0.6838    0.1382 C.ar    1  UNL1        0.0243
     12 C           0.2559    0.6480    0.1484 C.ar    1  UNL1        0.0591
     13 N          -0.5903    1.6154    0.5048 N.ar    1  UNL1       -0.3524
     14 C          -1.8193    1.1085    0.3459 C.ar    1  UNL1        0.0661
     15 C          -3.0367    1.7031    0.5768 C.ar    1  UNL1        0.0648
     16 CL         -3.0931    3.3508    1.1607 Cl      1  UNL1       -0.0814
     17 C          -4.1723    0.9751    0.3383 C.ar    1  UNL1       -0.0414
     18 C          -4.1162   -0.3195   -0.1207 C.ar    1  UNL1       -0.0597
     19 C          -2.8724   -0.9336   -0.3589 C.ar    1  UNL1       -0.0518
     20 C          -1.7492   -0.1939   -0.1161 C.ar    1  UNL1        0.0111
     21 C          -0.4060   -0.4939   -0.2447 C.ar    1  UNL1        0.0404
     22 HXT         0.2961   -4.7921   -1.6571 H       1  UNL1        0.2955
     23 H           4.2396   -1.3170   -0.6119 H       1  UNL1        0.0639
     24 H           5.4424    0.7203    0.0890 H       1  UNL1        0.0618
     25 H           4.2950    2.7067    0.8104 H       1  UNL1        0.0618
     26 H           1.7787    2.6940    0.8471 H       1  UNL1        0.0625
     27 H          -0.3090    2.5633    0.8355 H       1  UNL1        0.1660
     28 H          -5.1082    1.4801    0.5328 H       1  UNL1        0.0633
     29 H          -5.0452   -0.8359   -0.2878 H       1  UNL1        0.0618
     30 H          -2.9405   -1.9194   -0.7064 H       1  UNL1        0.0624
@<TRIPOS>BOND
     1     1     2    2
     2     2     3    1
     3     2     4    1
     4     4     5   ar
     5     5     6   ar
     6     6     7   ar
     7     7     8   ar
     8     8     9   ar
     9     9    10   ar
    10    10    11   ar
    11    11    12   ar
    12    12    13   ar
    13    13    14   ar
    14    14    15   ar
    15    15    16    1
    16    15    17   ar
    17    17    18   ar
    18    18    19   ar
    19    19    20   ar
    20    20    21   ar
    21    21     4   ar
    22    11     6   ar
    23    21    12   ar
    24    20    14   ar
    25     3    22    1
    26     7    23    1
    27     8    24    1
    28     9    25    1
    29    10    26    1
    30    13    27    1
    31    17    28    1
    32    18    29    1
    33    19    30    1
