@<TRIPOS>MOLECULE
*****
 33 34 0 0 0
SMALL
GASTEIGER

@<TRIPOS>ATOM
      1 C           3.2541   -0.5636    0.0889 C.3     1  UNL1        0.0828
      2 O           3.3793   -0.8947   -1.2415 O.3     1  UNL1       -0.3890
      3 C           4.5219    0.0030    0.6256 C.3     1  UNL1        0.0208
      4 N           4.8393    1.1913   -0.1360 N.3     1  UNL1       -0.3276
      5 C           2.0303    0.3053    0.3668 C.3     1  UNL1        0.0364
      6 N           0.8657   -0.4480   -0.0429 N.pl3   1  UNL1       -0.3397
      7 C          -0.4585    0.0598    0.0748 C.ar    1  UNL1        0.0539
      8 C          -1.5892   -0.6548   -0.3159 C.ar    1  UNL1        0.0982
      9 N          -1.3687   -1.8898   -0.8279 N.ar    1  UNL1       -0.2529
     10 C          -2.4175   -2.6466   -1.2303 C.ar    1  UNL1        0.0283
     11 C          -3.6898   -2.1202   -1.1005 C.ar    1  UNL1       -0.0428
     12 C          -3.9163   -0.8532   -0.5753 C.ar    1  UNL1       -0.0446
     13 C          -2.8433   -0.1004   -0.1727 C.ar    1  UNL1        0.0792
     14 C          -2.9303    1.1569    0.3591 C.ar    1  UNL1        0.2824
     15 C          -1.8593    1.9259    0.7688 C.ar    1  UNL1        0.0181
     16 C          -0.6076    1.3371    0.6106 C.ar    1  UNL1       -0.0323
     17 N          -4.1950    1.7544    0.5200 N.pl3   1  UNL1        0.0803
     18 O          -5.4597    1.7707    0.0220 O.co2   1  UNL1       -0.5760
     19 O          -4.5245    2.6248    1.3734 O.2     1  UNL1        0.0415
     20 H           3.0489   -1.5225    0.6369 H       1  UNL1        0.0621
     21 H           2.8882   -1.7357   -1.4465 H       1  UNL1        0.2099
     22 H           4.3423    0.2610    1.7090 H       1  UNL1        0.0448
     23 H           5.2947   -0.7659    0.5378 H       1  UNL1        0.0448
     24 H           5.8098    1.4470    0.0864 H       1  UNL1        0.1183
     25 H           4.1250    1.9037    0.0502 H       1  UNL1        0.1183
     26 H           2.0255    0.5824    1.4235 H       1  UNL1        0.0487
     27 H           2.1046    1.1928   -0.2968 H       1  UNL1        0.0487
     28 H           0.9397   -1.4249   -0.4551 H       1  UNL1        0.1462
     29 H          -2.3995   -3.6378   -1.6532 H       1  UNL1        0.0830
     30 H          -4.6091   -2.6466   -1.3940 H       1  UNL1        0.0633
     31 H          -4.8856   -0.4341   -0.4686 H       1  UNL1        0.0627
     32 H          -1.9806    2.9161    1.1837 H       1  UNL1        0.0686
     33 H           0.2654    1.9063    0.9196 H       1  UNL1        0.0639
@<TRIPOS>UNITY_ATOM_ATTR
17 1
charge 1
18 1
charge -1
@<TRIPOS>BOND
     1     1     2    1
     2     1     3    1
     3     3     4    1
     4     1     5    1
     5     5     6    1
     6     6     7    1
     7     7     8   ar
     8     8     9   ar
     9     9    10   ar
    10    10    11   ar
    11    11    12   ar
    12    12    13   ar
    13    13    14   ar
    14    14    15   ar
    15    15    16   ar
    16    14    17    1
    17    17    18    1
    18    17    19    2
    19    16     7   ar
    20    13     8   ar
    21     1    20    1
    22     2    21    1
    23     3    22    1
    24     3    23    1
    25     4    24    1
    26     4    25    1
    27     5    26    1
    28     5    27    1
    29     6    28    1
    30    10    29    1
    31    11    30    1
    32    12    31    1
    33    15    32    1
    34    16    33    1
