@<TRIPOS>MOLECULE
*****
 45 48 0 0 0
SMALL
GASTEIGER

@<TRIPOS>ATOM
      1 O          -6.5593    1.5672    2.6746 O.2     1  UNL1       -0.2663
      2 C          -5.7578    0.8957    1.9943 C.2     1  UNL1        0.2887
      3 N          -6.0538    0.1465    0.8119 N.am    1  UNL1       -0.2782
      4 C          -4.8556   -0.4828    0.3327 C.ar    1  UNL1        0.0449
      5 C          -4.5613   -1.3035   -0.7427 C.ar    1  UNL1       -0.0379
      6 C          -3.2918   -1.7826   -0.9804 C.ar    1  UNL1       -0.0336
      7 C          -2.2585   -1.4477   -0.1316 C.ar    1  UNL1        0.1063
      8 S          -0.6139   -2.0441   -0.4043 S.O2    1  UNL1        0.0612
      9 O          -0.0459   -2.3610    0.9263 O.2     1  UNL1       -0.1528
     10 O          -0.7973   -3.3772   -1.1222 O.2     1  UNL1       -0.1528
     11 N           0.2156   -1.0026   -1.3518 N.3     1  UNL1       -0.1703
     12 C          -0.1895   -0.7086   -2.6546 C.3     1  UNL1        0.0210
     13 C           1.1765   -0.5109   -3.3319 C.3     1  UNL1       -0.0370
     14 C           1.9478    0.2216   -2.2259 C.3     1  UNL1       -0.0313
     15 C           1.3278   -0.2914   -0.9108 C.3     1  UNL1        0.0659
     16 C           1.0396    0.9224   -0.0798 C.3     1  UNL1        0.1067
     17 O           2.1283    1.6206    0.3579 O.3     1  UNL1       -0.4904
     18 C           3.1795    1.3629    1.1512 C.ar    1  UNL1        0.1206
     19 C           4.1137    2.3924    1.3325 C.ar    1  UNL1       -0.0199
     20 C           5.2235    2.2568    2.1152 C.ar    1  UNL1       -0.0583
     21 C           5.4705    1.0831    2.7670 C.ar    1  UNL1       -0.0615
     22 C           4.5887    0.0451    2.6238 C.ar    1  UNL1       -0.0583
     23 C           3.4544    0.1992    1.8175 C.ar    1  UNL1       -0.0199
     24 C          -2.5437   -0.6315    0.9406 C.ar    1  UNL1       -0.0226
     25 C          -3.8116   -0.1553    1.1747 C.ar    1  UNL1        0.0499
     26 C          -4.3318    0.7123    2.2375 C.2     1  UNL1        0.2494
     27 O          -3.6641    1.2110    3.1921 O.2     1  UNL1       -0.2817
     28 H          -6.9921    0.0553    0.3474 H       1  UNL1        0.1552
     29 H          -5.3940   -1.5523   -1.3966 H       1  UNL1        0.0637
     30 H          -3.1058   -2.4287   -1.8439 H       1  UNL1        0.0638
     31 H          -0.7378   -1.5592   -3.1065 H       1  UNL1        0.0444
     32 H          -0.7213    0.2560   -2.7564 H       1  UNL1        0.0444
     33 H           1.1107    0.0639   -4.2498 H       1  UNL1        0.0279
     34 H           1.5915   -1.5361   -3.4438 H       1  UNL1        0.0279
     35 H           1.7561    1.2887   -2.3720 H       1  UNL1        0.0282
     36 H           3.0230    0.0102   -2.2627 H       1  UNL1        0.0282
     37 H           2.0315   -0.9456   -0.3928 H       1  UNL1        0.0513
     38 H           0.3051    0.6908    0.7441 H       1  UNL1        0.0713
     39 H           0.4412    1.6116   -0.7511 H       1  UNL1        0.0713
     40 H           3.9710    3.3485    0.8395 H       1  UNL1        0.0654
     41 H           5.9374    3.0675    2.2430 H       1  UNL1        0.0619
     42 H           6.3524    0.9847    3.3848 H       1  UNL1        0.0618
     43 H           4.7912   -0.8756    3.1407 H       1  UNL1        0.0619
     44 H           2.8123   -0.6394    1.7618 H       1  UNL1        0.0654
     45 H          -1.7024   -0.3780    1.6038 H       1  UNL1        0.0645
@<TRIPOS>BOND
     1     1     2    2
     2     2     3   am
     3     3     4    1
     4     4     5   ar
     5     5     6   ar
     6     6     7   ar
     7     7     8    1
     8     8     9    2
     9     8    10    2
    10     8    11    1
    11    11    12    1
    12    12    13    1
    13    13    14    1
    14    14    15    1
    15    15    16    1
    16    16    17    1
    17    17    18    1
    18    18    19   ar
    19    19    20   ar
    20    20    21   ar
    21    21    22   ar
    22    22    23   ar
    23     7    24   ar
    24    24    25   ar
    25    25    26    1
    26    26    27    2
    27    26     2    1
    28    25     4   ar
    29    15    11    1
    30    23    18   ar
    31     3    28    1
    32     5    29    1
    33     6    30    1
    34    12    31    1
    35    12    32    1
    36    13    33    1
    37    13    34    1
    38    14    35    1
    39    14    36    1
    40    15    37    1
    41    16    38    1
    42    16    39    1
    43    19    40    1
    44    20    41    1
    45    21    42    1
    46    22    43    1
    47    23    44    1
    48    24    45    1
