
     RDKit          3D

 68 72  0  0  0  0  0  0  0  0999 V2000
   -8.9524   -3.6303   -0.4206 C   0  0  0  0  0  0  0  0  0  0  0  0
   -7.6988   -2.9835   -0.6064 O   0  0  0  0  0  0  0  0  0  0  0  0
   -7.5396   -1.6431   -0.1841 C   0  0  0  0  0  0  0  0  0  0  0  0
   -8.6040   -0.9738    0.3742 C   0  0  0  0  0  0  0  0  0  0  0  0
   -8.4934    0.3508    0.8039 C   0  0  0  0  0  0  0  0  0  0  0  0
   -9.6354    1.0081    1.3780 C   0  0  0  0  0  0  0  0  0  0  0  0
   -9.6570    2.2419    1.8180 C   0  0  0  0  0  0  0  0  0  0  0  0
  -10.8341    2.8264    2.3768 N   0  0  0  0  0  4  0  0  0  0  0  0
  -11.7959    3.1775    1.6496 O   0  0  0  0  0  0  0  0  0  0  0  0
  -10.9810    3.0374    3.7315 O   0  0  0  0  0  1  0  0  0  0  0  0
   -7.2858    0.9943    0.6619 C   0  0  0  0  0  0  0  0  0  0  0  0
   -6.2234    0.3236    0.1041 C   0  0  0  0  0  0  0  0  0  0  0  0
   -6.3536   -0.9744   -0.3094 C   0  0  0  0  0  0  0  0  0  0  0  0
   -5.2848   -1.6834   -0.8756 O   0  0  0  0  0  0  0  0  0  0  0  0
   -4.2794   -2.5428    0.2163 S   0  0  0  0  0  5  0  0  0  0  0  0
   -5.0016   -2.7265    1.5054 O   0  0  0  0  0  0  0  0  0  0  0  0
   -3.9836   -4.0942   -0.4144 O   0  0  0  0  0  1  0  0  0  0  0  0
   -2.7605   -1.7236    0.4571 C   0  0  0  0  0  0  0  0  0  0  0  0
   -1.6093   -2.1229   -0.1819 C   0  0  0  0  0  0  0  0  0  0  0  0
   -0.4241   -1.4344    0.0254 C   0  0  0  0  0  0  0  0  0  0  0  0
   -0.3359   -0.3408    0.8614 C   0  0  0  0  0  0  0  0  0  0  0  0
    0.9266    0.3680    1.0808 C   0  0  0  0  0  0  0  0  0  0  0  0
    0.9948    1.3983    1.7926 O   0  0  0  0  0  0  0  0  0  0  0  0
    2.1149   -0.0857    0.4996 O   0  0  0  0  0  0  0  0  0  0  0  0
    3.3458    0.6158    0.7181 C   0  0  0  0  0  0  0  0  0  0  0  0
    4.4129   -0.2019    0.0243 C   0  0  0  0  0  0  0  0  0  0  0  0
    5.6223    0.3934    0.1894 O   0  0  0  0  0  0  0  0  0  0  0  0
    6.2250    0.5850   -1.0327 C   0  0  0  0  0  0  0  0  0  0  0  0
    7.6690    0.5045   -0.9432 N   0  0  0  0  0  0  0  0  0  0  0  0
    8.3935   -0.6063   -0.8753 C   0  0  0  0  0  0  0  0  0  0  0  0
    9.6895   -0.2241   -0.7962 N   0  0  0  0  0  0  0  0  0  0  0  0
    9.7721    1.1002   -0.8150 C   0  0  0  0  0  0  0  0  0  0  0  0
   10.8099    2.0061   -0.7642 C   0  0  0  0  0  0  0  0  0  0  0  0
   12.1452    1.5464   -0.6604 N   0  0  0  0  0  0  0  0  0  0  0  0
   10.5432    3.3343   -0.8073 N   0  0  0  0  0  0  0  0  0  0  0  0
    9.2979    3.7962   -0.8992 C   0  0  0  0  0  0  0  0  0  0  0  0
    8.2878    2.9053   -0.9490 N   0  0  0  0  0  0  0  0  0  0  0  0
    8.4750    1.5722   -0.9104 C   0  0  0  0  0  0  0  0  0  0  0  0
    5.6539   -0.5095   -1.8965 C   0  0  0  0  0  0  0  0  0  0  0  0
    5.7355   -0.2640   -3.2514 O   0  0  0  0  0  0  0  0  0  0  0  0
    4.1773   -0.3838   -1.4563 C   0  0  0  0  0  0  0  0  0  0  0  0
    3.7119    0.8077   -1.9749 O   0  0  0  0  0  0  0  0  0  0  0  0
   -1.4911    0.0546    1.4983 C   0  0  0  0  0  0  0  0  0  0  0  0
   -2.6762   -0.6138    1.3070 C   0  0  0  0  0  0  0  0  0  0  0  0
   -9.7103   -3.0228   -0.9396 H   0  0  0  0  0  0  0  0  0  0  0  0
   -9.2143   -3.7032    0.6350 H   0  0  0  0  0  0  0  0  0  0  0  0
   -8.8394   -4.6466   -0.8849 H   0  0  0  0  0  0  0  0  0  0  0  0
   -9.5435   -1.4916    0.4797 H   0  0  0  0  0  0  0  0  0  0  0  0
  -10.5694    0.4496    1.4643 H   0  0  0  0  0  0  0  0  0  0  0  0
   -8.7873    2.8477    1.7688 H   0  0  0  0  0  0  0  0  0  0  0  0
   -7.1522    2.0072    0.9760 H   0  0  0  0  0  0  0  0  0  0  0  0
   -5.2674    0.8259   -0.0107 H   0  0  0  0  0  0  0  0  0  0  0  0
   -1.6247   -2.9893   -0.8534 H   0  0  0  0  0  0  0  0  0  0  0  0
    0.4946   -1.7486   -0.4799 H   0  0  0  0  0  0  0  0  0  0  0  0
    3.2807    1.6430    0.2969 H   0  0  0  0  0  0  0  0  0  0  0  0
    3.5056    0.6261    1.8140 H   0  0  0  0  0  0  0  0  0  0  0  0
    4.3974   -1.2531    0.4484 H   0  0  0  0  0  0  0  0  0  0  0  0
    5.9159    1.5432   -1.4979 H   0  0  0  0  0  0  0  0  0  0  0  0
    8.0838   -1.6479   -0.8777 H   0  0  0  0  0  0  0  0  0  0  0  0
   12.6731    1.3819   -1.5463 H   0  0  0  0  0  0  0  0  0  0  0  0
   12.5937    1.3734    0.2628 H   0  0  0  0  0  0  0  0  0  0  0  0
    9.0735    4.8642   -0.9372 H   0  0  0  0  0  0  0  0  0  0  0  0
    6.0488   -1.5133   -1.6049 H   0  0  0  0  0  0  0  0  0  0  0  0
    6.5250   -0.7195   -3.6024 H   0  0  0  0  0  0  0  0  0  0  0  0
    3.5926   -1.2712   -1.7027 H   0  0  0  0  0  0  0  0  0  0  0  0
    3.4596    0.6629   -2.9036 H   0  0  0  0  0  0  0  0  0  0  0  0
   -1.4404    0.9246    2.1694 H   0  0  0  0  0  0  0  0  0  0  0  0
   -3.5989   -0.3283    1.7889 H   0  0  0  0  0  0  0  0  0  0  0  0
  1  2  1  0
  2  3  1  0
  3  4  2  0
  4  5  1  0
  5  6  1  0
  6  7  2  0
  7  8  1  0
  8  9  2  0
  8 10  1  0
  5 11  2  0
 11 12  1  0
 12 13  2  0
 13 14  1  0
 14 15  1  0
 15 16  2  0
 15 17  1  0
 15 18  1  0
 18 19  2  0
 19 20  1  0
 20 21  2  0
 21 22  1  0
 22 23  2  0
 22 24  1  0
 24 25  1  0
 25 26  1  0
 26 27  1  0
 27 28  1  0
 28 29  1  0
 29 30  1  0
 30 31  2  0
 31 32  1  0
 32 33  2  0
 33 34  1  0
 33 35  1  0
 35 36  2  0
 36 37  1  0
 37 38  2  0
 28 39  1  0
 39 40  1  0
 39 41  1  0
 41 42  1  0
 21 43  1  0
 43 44  2  0
 13  3  1  0
 44 18  1  0
 41 26  1  0
 38 29  1  0
 38 32  1  0
  1 45  1  0
  1 46  1  0
  1 47  1  0
  4 48  1  0
  6 49  1  0
  7 50  1  0
 11 51  1  0
 12 52  1  0
 19 53  1  0
 20 54  1  0
 25 55  1  0
 25 56  1  0
 26 57  1  0
 28 58  1  0
 30 59  1  0
 34 60  1  0
 34 61  1  0
 36 62  1  0
 39 63  1  0
 40 64  1  0
 41 65  1  0
 42 66  1  0
 43 67  1  0
 44 68  1  0
M  CHG  4   8   1  10  -1  15   1  17  -1
M  END
$$$$
