@<TRIPOS>MOLECULE
*****
 68 72 0 0 0
SMALL
GASTEIGER

@<TRIPOS>ATOM
      1 C          -8.9524   -3.6303   -0.4206 C.3     1  UNL1        0.0790
      2 O          -7.6988   -2.9835   -0.6064 O.3     1  UNL1       -0.4912
      3 C          -7.5396   -1.6431   -0.1841 C.ar    1  UNL1        0.1692
      4 C          -8.6040   -0.9738    0.3742 C.ar    1  UNL1       -0.0087
      5 C          -8.4934    0.3508    0.8039 C.ar    1  UNL1       -0.0156
      6 C          -9.6354    1.0081    1.3780 C.2     1  UNL1        0.0151
      7 C          -9.6570    2.2419    1.8180 C.2     1  UNL1        0.2387
      8 N         -10.8341    2.8264    2.3768 N.pl3   1  UNL1        0.0719
      9 O         -11.7959    3.1775    1.6496 O.2     1  UNL1        0.0408
     10 O         -10.9810    3.0374    3.7315 O.co2   1  UNL1       -0.5765
     11 C          -7.2858    0.9943    0.6619 C.ar    1  UNL1       -0.0505
     12 C          -6.2234    0.3236    0.1041 C.ar    1  UNL1       -0.0086
     13 C          -6.3536   -0.9744   -0.3094 C.ar    1  UNL1        0.2404
     14 O          -5.2848   -1.6834   -0.8756 O.3     1  UNL1       -0.2475
     15 S          -4.2794   -2.5428    0.2163 S.3     1  UNL1        0.0715
     16 O          -5.0016   -2.7265    1.5054 O.2     1  UNL1       -0.0017
     17 O          -3.9836   -4.0942   -0.4144 O.co2   1  UNL1       -0.5318
     18 C          -2.7605   -1.7236    0.4571 C.ar    1  UNL1        0.2336
     19 C          -1.6093   -2.1229   -0.1819 C.ar    1  UNL1        0.0099
     20 C          -0.4241   -1.4344    0.0254 C.ar    1  UNL1       -0.0418
     21 C          -0.3359   -0.3408    0.8614 C.ar    1  UNL1        0.0594
     22 C           0.9266    0.3680    1.0808 C.2     1  UNL1        0.3393
     23 O           0.9948    1.3983    1.7926 O.2     1  UNL1       -0.2450
     24 O           2.1149   -0.0857    0.4996 O.3     1  UNL1       -0.4585
     25 C           3.3458    0.6158    0.7181 C.3     1  UNL1        0.1215
     26 C           4.4129   -0.2019    0.0243 C.3     1  UNL1        0.1236
     27 O           5.6223    0.3934    0.1894 O.3     1  UNL1       -0.3446
     28 C           6.2250    0.5850   -1.0327 C.3     1  UNL1        0.1667
     29 N           7.6690    0.5045   -0.9432 N.ar    1  UNL1       -0.2855
     30 C           8.3935   -0.6063   -0.8753 C.ar    1  UNL1        0.1004
     31 N           9.6895   -0.2241   -0.7962 N.ar    1  UNL1       -0.2306
     32 C           9.7721    1.1002   -0.8150 C.ar    1  UNL1        0.1473
     33 C          10.8099    2.0061   -0.7642 C.ar    1  UNL1        0.1472
     34 N          12.1452    1.5464   -0.6604 N.pl3   1  UNL1       -0.3413
     35 N          10.5432    3.3343   -0.8073 N.ar    1  UNL1       -0.2188
     36 C           9.2979    3.7962   -0.8992 C.ar    1  UNL1        0.1205
     37 N           8.2878    2.9053   -0.9490 N.ar    1  UNL1       -0.2159
     38 C           8.4750    1.5722   -0.9104 C.ar    1  UNL1        0.1674
     39 C           5.6539   -0.5095   -1.8965 C.3     1  UNL1        0.1286
     40 O           5.7355   -0.2640   -3.2514 O.3     1  UNL1       -0.3847
     41 C           4.1773   -0.3838   -1.4563 C.3     1  UNL1        0.1146
     42 O           3.7119    0.8077   -1.9749 O.3     1  UNL1       -0.3864
     43 C          -1.4911    0.0546    1.4983 C.ar    1  UNL1       -0.0418
     44 C          -2.6762   -0.6138    1.3070 C.ar    1  UNL1        0.0099
     45 H          -9.7103   -3.0228   -0.9396 H       1  UNL1        0.0660
     46 H          -9.2143   -3.7032    0.6350 H       1  UNL1        0.0660
     47 H          -8.8394   -4.6466   -0.8849 H       1  UNL1        0.0660
     48 H          -9.5435   -1.4916    0.4797 H       1  UNL1        0.0661
     49 H         -10.5694    0.4496    1.4643 H       1  UNL1        0.0685
     50 H          -8.7873    2.8477    1.7688 H       1  UNL1        0.1439
     51 H          -7.1522    2.0072    0.9760 H       1  UNL1        0.0625
     52 H          -5.2674    0.8259   -0.0107 H       1  UNL1        0.0658
     53 H          -1.6247   -2.9893   -0.8534 H       1  UNL1        0.0681
     54 H           0.4946   -1.7486   -0.4799 H       1  UNL1        0.0628
     55 H           3.2807    1.6430    0.2969 H       1  UNL1        0.0725
     56 H           3.5056    0.6261    1.8140 H       1  UNL1        0.0725
     57 H           4.3974   -1.2531    0.4484 H       1  UNL1        0.0658
     58 H           5.9159    1.5432   -1.4979 H       1  UNL1        0.0866
     59 H           8.0838   -1.6479   -0.8777 H       1  UNL1        0.1030
     60 H          12.6731    1.3819   -1.5463 H       1  UNL1        0.1438
     61 H          12.5937    1.3734    0.2628 H       1  UNL1        0.1438
     62 H           9.0735    4.8642   -0.9372 H       1  UNL1        0.1048
     63 H           6.0488   -1.5133   -1.6049 H       1  UNL1        0.0665
     64 H           6.5250   -0.7195   -3.6024 H       1  UNL1        0.2101
     65 H           3.5926   -1.2712   -1.7027 H       1  UNL1        0.0648
     66 H           3.4596    0.6629   -2.9036 H       1  UNL1        0.2100
     67 H          -1.4404    0.9246    2.1694 H       1  UNL1        0.0628
     68 H          -3.5989   -0.3283    1.7889 H       1  UNL1        0.0681
@<TRIPOS>UNITY_ATOM_ATTR
8 1
charge 1
10 1
charge -1
15 1
charge 1
17 1
charge -1
@<TRIPOS>BOND
     1     1     2    1
     2     2     3    1
     3     3     4   ar
     4     4     5   ar
     5     5     6    1
     6     6     7    2
     7     7     8    1
     8     8     9    2
     9     8    10    1
    10     5    11   ar
    11    11    12   ar
    12    12    13   ar
    13    13    14    1
    14    14    15    1
    15    15    16    2
    16    15    17    1
    17    15    18    1
    18    18    19   ar
    19    19    20   ar
    20    20    21   ar
    21    21    22    1
    22    22    23    2
    23    22    24    1
    24    24    25    1
    25    25    26    1
    26    26    27    1
    27    27    28    1
    28    28    29    1
    29    29    30   ar
    30    30    31   ar
    31    31    32   ar
    32    32    33   ar
    33    33    34    1
    34    33    35   ar
    35    35    36   ar
    36    36    37   ar
    37    37    38   ar
    38    28    39    1
    39    39    40    1
    40    39    41    1
    41    41    42    1
    42    21    43   ar
    43    43    44   ar
    44    13     3   ar
    45    44    18   ar
    46    41    26    1
    47    38    29   ar
    48    38    32   ar
    49     1    45    1
    50     1    46    1
    51     1    47    1
    52     4    48    1
    53     6    49    1
    54     7    50    1
    55    11    51    1
    56    12    52    1
    57    19    53    1
    58    20    54    1
    59    25    55    1
    60    25    56    1
    61    26    57    1
    62    28    58    1
    63    30    59    1
    64    34    60    1
    65    34    61    1
    66    36    62    1
    67    39    63    1
    68    40    64    1
    69    41    65    1
    70    42    66    1
    71    43    67    1
    72    44    68    1
