
     RDKit          3D

 50 54  0  0  0  0  0  0  0  0999 V2000
   -9.0169   -0.2609    0.2664 C   0  0  0  0  0  0  0  0  0  0  0  0
   -7.5883   -0.2347    0.0544 N   0  0  0  0  0  0  0  0  0  0  0  0
   -7.0839    0.0204   -1.2706 C   0  0  0  0  0  0  0  0  0  0  0  0
   -6.7274   -0.4574    1.1635 C   0  0  0  0  0  0  0  0  0  0  0  0
   -7.1739   -0.6928    2.2956 O   0  0  0  0  0  0  0  0  0  0  0  0
   -5.2685   -0.4032    0.9430 C   0  0  0  0  0  0  0  0  0  0  0  0
   -4.5089   -1.5290    0.7444 C   0  0  0  0  0  0  0  0  0  0  0  0
   -3.1230   -1.4499    0.5360 C   0  0  0  0  0  0  0  0  0  0  0  0
   -2.5001   -0.2303    0.5292 C   0  0  0  0  0  0  0  0  0  0  0  0
   -1.0442   -0.1087    0.2898 C   0  0  0  0  0  0  0  0  0  0  0  0
   -0.3830   -1.0005   -0.5221 C   0  0  0  0  0  0  0  0  0  0  0  0
    0.9641   -0.8820   -0.7659 C   0  0  0  0  0  0  0  0  0  0  0  0
    1.7096    0.1516   -0.1935 C   0  0  0  0  0  0  0  0  0  0  0  0
    3.0571    0.2558   -0.4456 O   0  0  0  0  0  0  0  0  0  0  0  0
    3.9732   -0.3348    0.3894 C   0  0  0  0  0  0  0  0  0  0  0  0
    3.5715   -1.0419    1.4747 C   0  0  0  0  0  0  0  0  0  0  0  0
    4.3750   -1.6556    2.3569 N   0  0  0  0  0  0  0  0  0  0  0  0
    5.7022   -1.5711    2.1598 C   0  0  0  0  0  0  0  0  0  0  0  0
    6.1308   -0.8538    1.0568 C   0  0  0  0  0  0  0  0  0  0  0  0
    7.8379   -0.5165    0.4646 S   0  0  0  0  0  0  0  0  0  0  0  0
    7.3144    0.4474   -0.9565 C   0  0  0  0  0  0  0  0  0  0  0  0
    8.2028    1.0780   -1.9354 C   0  0  0  0  0  0  0  0  0  0  0  0
    7.8510    1.8008   -3.0083 N   0  0  0  0  0  0  0  0  0  0  0  0
    8.9550    2.2010   -3.6569 N   0  0  0  0  0  0  0  0  0  0  0  0
    9.9920    1.7343   -3.0008 N   0  0  0  0  0  0  0  0  0  0  0  0
    9.5435    1.0529   -1.9551 N   0  0  0  0  0  0  0  0  0  0  0  0
    5.9343    0.4388   -0.8756 C   0  0  0  0  0  0  0  0  0  0  0  0
    5.3798   -0.2238    0.1463 C   0  0  0  0  0  0  0  0  0  0  0  0
    1.0149    1.0191    0.6080 C   0  0  0  0  0  0  0  0  0  0  0  0
   -0.3270    0.9141    0.8596 C   0  0  0  0  0  0  0  0  0  0  0  0
   -3.2694    0.8973    0.7296 C   0  0  0  0  0  0  0  0  0  0  0  0
   -4.6413    0.8147    0.9357 C   0  0  0  0  0  0  0  0  0  0  0  0
   -9.3563   -1.3216    0.3338 H   0  0  0  0  0  0  0  0  0  0  0  0
   -9.2936    0.3227    1.1778 H   0  0  0  0  0  0  0  0  0  0  0  0
   -9.5660    0.1500   -0.6283 H   0  0  0  0  0  0  0  0  0  0  0  0
   -7.4407   -0.7431   -2.0061 H   0  0  0  0  0  0  0  0  0  0  0  0
   -5.9894   -0.0023   -1.3231 H   0  0  0  0  0  0  0  0  0  0  0  0
   -7.4033    1.0126   -1.6448 H   0  0  0  0  0  0  0  0  0  0  0  0
   -4.9947   -2.4962    0.7480 H   0  0  0  0  0  0  0  0  0  0  0  0
   -2.5541   -2.3695    0.3804 H   0  0  0  0  0  0  0  0  0  0  0  0
   -0.9421   -1.8165   -0.9865 H   0  0  0  0  0  0  0  0  0  0  0  0
    1.4793   -1.5948   -1.4117 H   0  0  0  0  0  0  0  0  0  0  0  0
    2.4957   -1.1618    1.6997 H   0  0  0  0  0  0  0  0  0  0  0  0
    6.4213   -2.0310    2.8094 H   0  0  0  0  0  0  0  0  0  0  0  0
   10.1390    0.5592   -1.2464 H   0  0  0  0  0  0  0  0  0  0  0  0
    5.3981    0.9976   -1.6886 H   0  0  0  0  0  0  0  0  0  0  0  0
    1.6053    1.8235    1.0637 H   0  0  0  0  0  0  0  0  0  0  0  0
   -0.8385    1.6083    1.4960 H   0  0  0  0  0  0  0  0  0  0  0  0
   -2.7808    1.8702    0.7199 H   0  0  0  0  0  0  0  0  0  0  0  0
   -5.2327    1.7044    1.0893 H   0  0  0  0  0  0  0  0  0  0  0  0
  1  2  1  0
  2  3  1  0
  2  4  1  0
  4  5  2  0
  4  6  1  0
  6  7  2  0
  7  8  1  0
  8  9  2  0
  9 10  1  0
 10 11  2  0
 11 12  1  0
 12 13  2  0
 13 14  1  0
 14 15  1  0
 15 16  2  0
 16 17  1  0
 17 18  2  0
 18 19  1  0
 19 20  1  0
 20 21  1  0
 21 22  1  0
 22 23  2  0
 23 24  1  0
 24 25  2  0
 25 26  1  0
 21 27  2  0
 27 28  1  0
 13 29  1  0
 29 30  2  0
  9 31  1  0
 31 32  2  0
 32  6  1  0
 30 10  1  0
 28 15  1  0
 28 19  2  0
 26 22  1  0
  1 33  1  0
  1 34  1  0
  1 35  1  0
  3 36  1  0
  3 37  1  0
  3 38  1  0
  7 39  1  0
  8 40  1  0
 11 41  1  0
 12 42  1  0
 16 43  1  0
 18 44  1  0
 26 45  1  0
 27 46  1  0
 29 47  1  0
 30 48  1  0
 31 49  1  0
 32 50  1  0
M  END
$$$$
