@<TRIPOS>MOLECULE
*****
 50 54 0 0 0
SMALL
GASTEIGER

@<TRIPOS>ATOM
      1 C          -9.0169   -0.2609    0.2664 C.3     1  UNL1        0.0031
      2 N          -7.5883   -0.2347    0.0544 N.am    1  UNL1       -0.3036
      3 C          -7.0839    0.0204   -1.2706 C.3     1  UNL1        0.0031
      4 C          -6.7274   -0.4574    1.1635 C.2     1  UNL1        0.2461
      5 O          -7.1739   -0.6928    2.2956 O.2     1  UNL1       -0.2700
      6 C          -5.2685   -0.4032    0.9430 C.ar    1  UNL1        0.0369
      7 C          -4.5089   -1.5290    0.7444 C.ar    1  UNL1       -0.0491
      8 C          -3.1230   -1.4499    0.5360 C.ar    1  UNL1       -0.0533
      9 C          -2.5001   -0.2303    0.5292 C.ar    1  UNL1       -0.0178
     10 C          -1.0442   -0.1087    0.2898 C.ar    1  UNL1       -0.0177
     11 C          -0.3830   -1.0005   -0.5221 C.ar    1  UNL1       -0.0506
     12 C           0.9641   -0.8820   -0.7659 C.ar    1  UNL1       -0.0188
     13 C           1.7096    0.1516   -0.1935 C.ar    1  UNL1        0.1286
     14 O           3.0571    0.2558   -0.4456 O.3     1  UNL1       -0.4539
     15 C           3.9732   -0.3348    0.3894 C.ar    1  UNL1        0.1546
     16 C           3.5715   -1.0419    1.4747 C.ar    1  UNL1        0.0704
     17 N           4.3750   -1.6556    2.3569 N.ar    1  UNL1       -0.2585
     18 C           5.7022   -1.5711    2.1598 C.ar    1  UNL1        0.0421
     19 C           6.1308   -0.8538    1.0568 C.ar    1  UNL1        0.0416
     20 S           7.8379   -0.5165    0.4646 S.2     1  UNL1       -0.0835
     21 C           7.3144    0.4474   -0.9565 C.ar    1  UNL1        0.0589
     22 C           8.2028    1.0780   -1.9354 C.ar    1  UNL1        0.1860
     23 N           7.8510    1.8008   -3.0083 N.ar    1  UNL1       -0.1078
     24 N           8.9550    2.2010   -3.6569 N.ar    1  UNL1       -0.0229
     25 N           9.9920    1.7343   -3.0008 N.ar    1  UNL1       -0.0464
     26 N           9.5435    1.0529   -1.9551 N.ar    1  UNL1       -0.2384
     27 C           5.9343    0.4388   -0.8756 C.ar    1  UNL1       -0.0325
     28 C           5.3798   -0.2238    0.1463 C.ar    1  UNL1        0.0351
     29 C           1.0149    1.0191    0.6080 C.ar    1  UNL1       -0.0188
     30 C          -0.3270    0.9141    0.8596 C.ar    1  UNL1       -0.0506
     31 C          -3.2694    0.8973    0.7296 C.ar    1  UNL1       -0.0533
     32 C          -4.6413    0.8147    0.9357 C.ar    1  UNL1       -0.0491
     33 H          -9.3563   -1.3216    0.3338 H       1  UNL1        0.0428
     34 H          -9.2936    0.3227    1.1778 H       1  UNL1        0.0428
     35 H          -9.5660    0.1500   -0.6283 H       1  UNL1        0.0428
     36 H          -7.4407   -0.7431   -2.0061 H       1  UNL1        0.0428
     37 H          -5.9894   -0.0023   -1.3231 H       1  UNL1        0.0428
     38 H          -7.4033    1.0126   -1.6448 H       1  UNL1        0.0428
     39 H          -4.9947   -2.4962    0.7480 H       1  UNL1        0.0625
     40 H          -2.5541   -2.3695    0.3804 H       1  UNL1        0.0624
     41 H          -0.9421   -1.8165   -0.9865 H       1  UNL1        0.0625
     42 H           1.4793   -1.5948   -1.4117 H       1  UNL1        0.0654
     43 H           2.4957   -1.1618    1.6997 H       1  UNL1        0.0867
     44 H           6.4213   -2.0310    2.8094 H       1  UNL1        0.0841
     45 H          10.1390    0.5592   -1.2464 H       1  UNL1        0.1923
     46 H           5.3981    0.9976   -1.6886 H       1  UNL1        0.0637
     47 H           1.6053    1.8235    1.0637 H       1  UNL1        0.0654
     48 H          -0.8385    1.6083    1.4960 H       1  UNL1        0.0625
     49 H          -2.7808    1.8702    0.7199 H       1  UNL1        0.0624
     50 H          -5.2327    1.7044    1.0893 H       1  UNL1        0.0625
@<TRIPOS>BOND
     1     1     2    1
     2     2     3    1
     3     2     4   am
     4     4     5    2
     5     4     6    1
     6     6     7   ar
     7     7     8   ar
     8     8     9   ar
     9     9    10    1
    10    10    11   ar
    11    11    12   ar
    12    12    13   ar
    13    13    14    1
    14    14    15    1
    15    15    16   ar
    16    16    17   ar
    17    17    18   ar
    18    18    19   ar
    19    19    20   ar
    20    20    21   ar
    21    21    22    1
    22    22    23   ar
    23    23    24   ar
    24    24    25   ar
    25    25    26   ar
    26    21    27   ar
    27    27    28   ar
    28    13    29   ar
    29    29    30   ar
    30     9    31   ar
    31    31    32   ar
    32    32     6   ar
    33    30    10   ar
    34    28    15   ar
    35    28    19   ar
    36    26    22   ar
    37     1    33    1
    38     1    34    1
    39     1    35    1
    40     3    36    1
    41     3    37    1
    42     3    38    1
    43     7    39    1
    44     8    40    1
    45    11    41    1
    46    12    42    1
    47    16    43    1
    48    18    44    1
    49    26    45    1
    50    27    46    1
    51    29    47    1
    52    30    48    1
    53    31    49    1
    54    32    50    1
