@<TRIPOS>MOLECULE
*****
 49 52 0 0 0
SMALL
GASTEIGER

@<TRIPOS>ATOM
      1 C          -4.0696    3.7814   -2.7677 C.3     1  UNL1        0.0001
      2 N          -3.9237    2.8130   -1.6991 N.am    1  UNL1       -0.3172
      3 C          -2.6852    2.6887   -1.0206 C.2     1  UNL1        0.2296
      4 O          -1.7508    3.4431   -1.3898 O.2     1  UNL1       -0.2743
      5 C          -2.5359    1.6981    0.0770 C.3     1  UNL1        0.1052
      6 C          -1.2465    1.5754    0.7951 C.3     1  UNL1       -0.0220
      7 C          -1.7239    0.5339   -0.1565 C.3     1  UNL1        0.0134
      8 C          -2.1591   -0.8231    0.3175 C.3     1  UNL1        0.0935
      9 C          -3.1275   -1.3688   -0.7500 C.3     1  UNL1       -0.0351
     10 C          -1.0150   -1.7696    0.3484 C.ar    1  UNL1        0.0158
     11 C           0.2630   -1.2794    0.1911 C.ar    1  UNL1       -0.0463
     12 C           1.3504   -2.1540    0.2243 C.ar    1  UNL1       -0.0217
     13 C           2.7242   -1.6937    0.0789 C.2     1  UNL1       -0.0171
     14 C           3.1993   -0.5856    0.6505 C.2     1  UNL1        0.1506
     15 F           2.3384    0.1309    1.4014 F       1  UNL1       -0.2032
     16 C           4.5676   -0.1534    0.4842 C.ar    1  UNL1        0.1170
     17 C           5.0050    0.9969    1.1058 C.ar    1  UNL1        0.0572
     18 N           6.2670    1.4353    0.9775 N.ar    1  UNL1       -0.2409
     19 C           7.1717    0.7675    0.2287 C.ar    1  UNL1        0.1581
     20 C           8.4845    1.1434    0.0389 C.1     1  UNL1        0.1206
     21 N           9.6524    1.4931   -0.1463 N.1     1  UNL1       -0.1892
     22 C           6.7277   -0.4070   -0.4071 C.ar    1  UNL1        0.0642
     23 N           5.4610   -0.8157   -0.2563 N.ar    1  UNL1       -0.2483
     24 C           1.1607   -3.5177    0.4148 C.ar    1  UNL1       -0.0518
     25 C          -0.1159   -3.9920    0.5700 C.ar    1  UNL1       -0.0255
     26 C          -1.2003   -3.1068    0.5353 C.ar    1  UNL1        0.1289
     27 F          -2.4203   -3.6329    0.6980 F       1  UNL1       -0.2051
     28 N          -2.8862   -0.8511    1.5443 N.2     1  UNL1       -0.2521
     29 C          -3.6885   -0.0143    2.0362 C.2     1  UNL1        0.1485
     30 N          -4.3151   -0.2206    3.2743 N.pl3   1  UNL1       -0.3380
     31 S          -4.0074    1.4725    1.1068 S.3     1  UNL1       -0.0746
     32 H          -5.1253    3.9417   -3.0686 H       1  UNL1        0.0426
     33 H          -3.5468    3.4052   -3.6865 H       1  UNL1        0.0426
     34 H          -3.5674    4.7443   -2.5059 H       1  UNL1        0.0426
     35 H          -4.7289    2.2137   -1.4352 H       1  UNL1        0.1484
     36 H          -0.4298    2.2885    0.4925 H       1  UNL1        0.0287
     37 H          -1.2561    1.4149    1.8887 H       1  UNL1        0.0287
     38 H          -1.1294    0.5069   -1.1205 H       1  UNL1        0.0346
     39 H          -2.5451   -1.8453   -1.5489 H       1  UNL1        0.0256
     40 H          -3.7481   -0.5215   -1.1526 H       1  UNL1        0.0256
     41 H          -3.7793   -2.1106   -0.2509 H       1  UNL1        0.0256
     42 H           0.4836   -0.2182    0.0355 H       1  UNL1        0.0628
     43 H           3.4518   -2.2573   -0.5319 H       1  UNL1        0.0653
     44 H           4.3328    1.5757    1.7165 H       1  UNL1        0.0852
     45 H           7.3814   -1.0069   -1.0281 H       1  UNL1        0.0859
     46 H           2.0353   -4.1908    0.4405 H       1  UNL1        0.0624
     47 H          -0.2608   -5.0460    0.7165 H       1  UNL1        0.0646
     48 H          -4.8607   -1.0566    3.5718 H       1  UNL1        0.1442
     49 H          -4.2091    0.5747    3.9706 H       1  UNL1        0.1442
@<TRIPOS>BOND
     1     1     2    1
     2     2     3   am
     3     3     4    2
     4     5     3    1
     5     5     6    1
     6     6     7    1
     7     7     8    1
     8     8     9    1
     9     8    10    1
    10    10    11   ar
    11    11    12   ar
    12    12    13    1
    13    13    14    2
    14    14    15    1
    15    14    16    1
    16    16    17   ar
    17    17    18   ar
    18    18    19   ar
    19    19    20    1
    20    20    21    3
    21    19    22   ar
    22    22    23   ar
    23    12    24   ar
    24    24    25   ar
    25    25    26   ar
    26    26    27    1
    27     8    28    1
    28    28    29    2
    29    29    30    1
    30    29    31    1
    31     7     5    1
    32    26    10   ar
    33    31     5    1
    34    23    16   ar
    35     1    32    1
    36     1    33    1
    37     1    34    1
    38     2    35    1
    39     6    36    1
    40     6    37    1
    41     7    38    1
    42     9    39    1
    43     9    40    1
    44     9    41    1
    45    11    42    1
    46    13    43    1
    47    17    44    1
    48    22    45    1
    49    24    46    1
    50    25    47    1
    51    30    48    1
    52    30    49    1
