@<TRIPOS>MOLECULE
*****
 65 68 0 0 0
SMALL
GASTEIGER

@<TRIPOS>ATOM
      1 C          -1.1848    0.0676   -2.3670 C.3     1  UNL1        0.0325
      2 N          -0.0643    0.1625   -1.4645 N.ar    1  UNL1       -0.2466
      3 N           1.2001    0.1110   -1.8422 N.ar    1  UNL1       -0.1544
      4 C           1.9506    0.2341   -0.7202 C.ar    1  UNL1        0.1548
      5 C           3.4259    0.2424   -0.5793 C.3     1  UNL1        0.0236
      6 C           3.8431   -0.9353    0.2703 C.3     1  UNL1       -0.0273
      7 C           5.3608   -1.0893    0.1142 C.3     1  UNL1        0.0154
      8 N           5.9643    0.1749    0.4791 N.am    1  UNL1       -0.2991
      9 C           7.3475    0.4611    0.3591 C.2     1  UNL1        0.2467
     10 O           7.7772    1.5995    0.6968 O.2     1  UNL1       -0.2725
     11 C           8.3507   -0.4935   -0.1431 C.3     1  UNL1        0.1360
     12 C           9.0867    0.0487   -1.3548 C.3     1  UNL1       -0.0277
     13 C           9.4244   -0.7902    0.9031 C.3     1  UNL1       -0.0277
     14 O           7.7147   -1.6957   -0.4285 O.3     1  UNL1       -0.3799
     15 C           5.0629    1.1904    1.0020 C.3     1  UNL1        0.0154
     16 C           3.9299    1.4978    0.0575 C.3     1  UNL1       -0.0273
     17 N           1.0988    0.3578    0.3151 N.ar    1  UNL1       -0.2093
     18 C          -0.1672    0.3151   -0.1319 C.ar    1  UNL1        0.1785
     19 C          -1.3849    0.4133    0.6529 C.ar    1  UNL1        0.1266
     20 C          -1.4014    0.7247    1.9886 C.ar    1  UNL1        0.0587
     21 N          -2.5542    0.8035    2.6682 N.ar    1  UNL1       -0.2361
     22 C          -3.7538    0.5832    2.0829 C.ar    1  UNL1        0.1472
     23 N          -4.9666    0.6723    2.8249 N.pl3   1  UNL1       -0.3413
     24 C          -3.7386    0.2705    0.7422 C.ar    1  UNL1        0.1672
     25 C          -5.0279    0.0289    0.0930 C.ar    1  UNL1        0.2701
     26 N          -5.1806   -0.2855   -1.2067 N.ar    1  UNL1       -0.1055
     27 N          -6.4926   -0.4324   -1.4435 N.ar    1  UNL1       -0.1115
     28 C          -7.1470   -0.2085   -0.2903 C.ar    1  UNL1        0.2230
     29 C          -8.6170   -0.2539   -0.0468 C.3     1  UNL1        0.0401
     30 C          -8.9436   -1.6793    0.3491 C.3     1  UNL1       -0.0516
     31 C          -8.9714    0.6608    1.1115 C.3     1  UNL1       -0.0516
     32 C          -9.3639    0.1925   -1.2594 C.3     1  UNL1       -0.0516
     33 O          -6.2233    0.0656    0.6067 O.2     1  UNL1       -0.4183
     34 N          -2.5847    0.1916    0.0622 N.ar    1  UNL1       -0.2338
     35 H          -1.8466    0.9608   -2.1976 H       1  UNL1        0.0473
     36 H          -0.8581    0.1375   -3.4266 H       1  UNL1        0.0473
     37 H          -1.7004   -0.8815   -2.1786 H       1  UNL1        0.0473
     38 H           3.8331    0.1072   -1.6167 H       1  UNL1        0.0381
     39 H           3.3444   -1.8480   -0.1427 H       1  UNL1        0.0287
     40 H           3.6031   -0.7728    1.3155 H       1  UNL1        0.0287
     41 H           5.7309   -1.8761    0.7853 H       1  UNL1        0.0465
     42 H           5.4987   -1.3286   -0.9698 H       1  UNL1        0.0465
     43 H           9.5300   -0.8264   -1.8685 H       1  UNL1        0.0262
     44 H           9.9095    0.7298   -1.0690 H       1  UNL1        0.0262
     45 H           8.4092    0.6283   -2.0234 H       1  UNL1        0.0262
     46 H           9.0228   -0.8478    1.9179 H       1  UNL1        0.0262
     47 H           9.8720   -1.7697    0.6437 H       1  UNL1        0.0262
     48 H          10.2607   -0.0391    0.7996 H       1  UNL1        0.0262
     49 H           8.3094   -2.4796   -0.3777 H       1  UNL1        0.2108
     50 H           5.6605    2.1151    1.2185 H       1  UNL1        0.0465
     51 H           4.6757    0.8115    1.9776 H       1  UNL1        0.0465
     52 H           4.2042    2.2789   -0.6834 H       1  UNL1        0.0287
     53 H           3.0681    1.9197    0.6529 H       1  UNL1        0.0287
     54 H          -0.4673    0.9063    2.4868 H       1  UNL1        0.0853
     55 H          -5.6458    1.4460    2.7398 H       1  UNL1        0.1438
     56 H          -5.2323   -0.0831    3.5235 H       1  UNL1        0.1438
     57 H          -8.1968   -2.4034   -0.0191 H       1  UNL1        0.0240
     58 H          -9.9251   -2.0136   -0.0479 H       1  UNL1        0.0240
     59 H          -8.9144   -1.7531    1.4759 H       1  UNL1        0.0240
     60 H          -8.9084    0.1180    2.0848 H       1  UNL1        0.0240
     61 H          -8.2018    1.4622    1.1545 H       1  UNL1        0.0240
     62 H          -9.9489    1.1627    0.9756 H       1  UNL1        0.0240
     63 H         -10.4573    0.0011   -1.0476 H       1  UNL1        0.0240
     64 H          -9.1252   -0.3593   -2.1685 H       1  UNL1        0.0240
     65 H          -9.2737    1.2908   -1.3565 H       1  UNL1        0.0240
@<TRIPOS>BOND
     1     1     2    1
     2     2     3   ar
     3     3     4   ar
     4     4     5    1
     5     5     6    1
     6     6     7    1
     7     7     8    1
     8     8     9   am
     9     9    10    2
    10     9    11    1
    11    11    12    1
    12    11    13    1
    13    11    14    1
    14     8    15    1
    15    15    16    1
    16     4    17   ar
    17    17    18   ar
    18    18    19    1
    19    19    20   ar
    20    20    21   ar
    21    21    22   ar
    22    22    23    1
    23    22    24   ar
    24    24    25    1
    25    25    26   ar
    26    26    27   ar
    27    27    28   ar
    28    28    29    1
    29    29    30    1
    30    29    31    1
    31    29    32    1
    32    28    33   ar
    33    24    34   ar
    34    18     2   ar
    35    34    19   ar
    36    16     5    1
    37    33    25   ar
    38     1    35    1
    39     1    36    1
    40     1    37    1
    41     5    38    1
    42     6    39    1
    43     6    40    1
    44     7    41    1
    45     7    42    1
    46    12    43    1
    47    12    44    1
    48    12    45    1
    49    13    46    1
    50    13    47    1
    51    13    48    1
    52    14    49    1
    53    15    50    1
    54    15    51    1
    55    16    52    1
    56    16    53    1
    57    20    54    1
    58    23    55    1
    59    23    56    1
    60    30    57    1
    61    30    58    1
    62    30    59    1
    63    31    60    1
    64    31    61    1
    65    31    62    1
    66    32    63    1
    67    32    64    1
    68    32    65    1
