
     RDKit          3D

 65 68  0  0  0  0  0  0  0  0999 V2000
   -1.1848    0.0676   -2.3670 C   0  0  0  0  0  0  0  0  0  0  0  0
   -0.0643    0.1625   -1.4645 N   0  0  0  0  0  0  0  0  0  0  0  0
    1.2001    0.1110   -1.8422 N   0  0  0  0  0  0  0  0  0  0  0  0
    1.9506    0.2341   -0.7202 C   0  0  0  0  0  0  0  0  0  0  0  0
    3.4259    0.2424   -0.5793 C   0  0  0  0  0  0  0  0  0  0  0  0
    3.8431   -0.9353    0.2703 C   0  0  0  0  0  0  0  0  0  0  0  0
    5.3608   -1.0893    0.1142 C   0  0  0  0  0  0  0  0  0  0  0  0
    5.9643    0.1749    0.4791 N   0  0  0  0  0  0  0  0  0  0  0  0
    7.3475    0.4611    0.3591 C   0  0  0  0  0  0  0  0  0  0  0  0
    7.7772    1.5995    0.6968 O   0  0  0  0  0  0  0  0  0  0  0  0
    8.3507   -0.4935   -0.1431 C   0  0  0  0  0  0  0  0  0  0  0  0
    9.0867    0.0487   -1.3548 C   0  0  0  0  0  0  0  0  0  0  0  0
    9.4244   -0.7902    0.9031 C   0  0  0  0  0  0  0  0  0  0  0  0
    7.7147   -1.6957   -0.4285 O   0  0  0  0  0  0  0  0  0  0  0  0
    5.0629    1.1904    1.0020 C   0  0  0  0  0  0  0  0  0  0  0  0
    3.9299    1.4978    0.0575 C   0  0  0  0  0  0  0  0  0  0  0  0
    1.0988    0.3578    0.3151 N   0  0  0  0  0  0  0  0  0  0  0  0
   -0.1672    0.3151   -0.1319 C   0  0  0  0  0  0  0  0  0  0  0  0
   -1.3849    0.4133    0.6529 C   0  0  0  0  0  0  0  0  0  0  0  0
   -1.4014    0.7247    1.9886 C   0  0  0  0  0  0  0  0  0  0  0  0
   -2.5542    0.8035    2.6682 N   0  0  0  0  0  0  0  0  0  0  0  0
   -3.7538    0.5832    2.0829 C   0  0  0  0  0  0  0  0  0  0  0  0
   -4.9666    0.6723    2.8249 N   0  0  0  0  0  0  0  0  0  0  0  0
   -3.7386    0.2705    0.7422 C   0  0  0  0  0  0  0  0  0  0  0  0
   -5.0279    0.0289    0.0930 C   0  0  0  0  0  0  0  0  0  0  0  0
   -5.1806   -0.2855   -1.2067 N   0  0  0  0  0  0  0  0  0  0  0  0
   -6.4926   -0.4324   -1.4435 N   0  0  0  0  0  0  0  0  0  0  0  0
   -7.1470   -0.2085   -0.2903 C   0  0  0  0  0  0  0  0  0  0  0  0
   -8.6170   -0.2539   -0.0468 C   0  0  0  0  0  0  0  0  0  0  0  0
   -8.9436   -1.6793    0.3491 C   0  0  0  0  0  0  0  0  0  0  0  0
   -8.9714    0.6608    1.1115 C   0  0  0  0  0  0  0  0  0  0  0  0
   -9.3639    0.1925   -1.2594 C   0  0  0  0  0  0  0  0  0  0  0  0
   -6.2233    0.0656    0.6067 O   0  0  0  0  0  0  0  0  0  0  0  0
   -2.5847    0.1916    0.0622 N   0  0  0  0  0  0  0  0  0  0  0  0
   -1.8466    0.9608   -2.1976 H   0  0  0  0  0  0  0  0  0  0  0  0
   -0.8581    0.1375   -3.4266 H   0  0  0  0  0  0  0  0  0  0  0  0
   -1.7004   -0.8815   -2.1786 H   0  0  0  0  0  0  0  0  0  0  0  0
    3.8331    0.1072   -1.6167 H   0  0  0  0  0  0  0  0  0  0  0  0
    3.3444   -1.8480   -0.1427 H   0  0  0  0  0  0  0  0  0  0  0  0
    3.6031   -0.7728    1.3155 H   0  0  0  0  0  0  0  0  0  0  0  0
    5.7309   -1.8761    0.7853 H   0  0  0  0  0  0  0  0  0  0  0  0
    5.4987   -1.3286   -0.9698 H   0  0  0  0  0  0  0  0  0  0  0  0
    9.5300   -0.8264   -1.8685 H   0  0  0  0  0  0  0  0  0  0  0  0
    9.9095    0.7298   -1.0690 H   0  0  0  0  0  0  0  0  0  0  0  0
    8.4092    0.6283   -2.0234 H   0  0  0  0  0  0  0  0  0  0  0  0
    9.0228   -0.8478    1.9179 H   0  0  0  0  0  0  0  0  0  0  0  0
    9.8720   -1.7697    0.6437 H   0  0  0  0  0  0  0  0  0  0  0  0
   10.2607   -0.0391    0.7996 H   0  0  0  0  0  0  0  0  0  0  0  0
    8.3094   -2.4796   -0.3777 H   0  0  0  0  0  0  0  0  0  0  0  0
    5.6605    2.1151    1.2185 H   0  0  0  0  0  0  0  0  0  0  0  0
    4.6757    0.8115    1.9776 H   0  0  0  0  0  0  0  0  0  0  0  0
    4.2042    2.2789   -0.6834 H   0  0  0  0  0  0  0  0  0  0  0  0
    3.0681    1.9197    0.6529 H   0  0  0  0  0  0  0  0  0  0  0  0
   -0.4673    0.9063    2.4868 H   0  0  0  0  0  0  0  0  0  0  0  0
   -5.6458    1.4460    2.7398 H   0  0  0  0  0  0  0  0  0  0  0  0
   -5.2323   -0.0831    3.5235 H   0  0  0  0  0  0  0  0  0  0  0  0
   -8.1968   -2.4034   -0.0191 H   0  0  0  0  0  0  0  0  0  0  0  0
   -9.9251   -2.0136   -0.0479 H   0  0  0  0  0  0  0  0  0  0  0  0
   -8.9144   -1.7531    1.4759 H   0  0  0  0  0  0  0  0  0  0  0  0
   -8.9084    0.1180    2.0848 H   0  0  0  0  0  0  0  0  0  0  0  0
   -8.2018    1.4622    1.1545 H   0  0  0  0  0  0  0  0  0  0  0  0
   -9.9489    1.1627    0.9756 H   0  0  0  0  0  0  0  0  0  0  0  0
  -10.4573    0.0011   -1.0476 H   0  0  0  0  0  0  0  0  0  0  0  0
   -9.1252   -0.3593   -2.1685 H   0  0  0  0  0  0  0  0  0  0  0  0
   -9.2737    1.2908   -1.3565 H   0  0  0  0  0  0  0  0  0  0  0  0
  1  2  1  0
  2  3  1  0
  3  4  2  0
  4  5  1  0
  5  6  1  0
  6  7  1  0
  7  8  1  0
  8  9  1  0
  9 10  2  0
  9 11  1  0
 11 12  1  0
 11 13  1  0
 11 14  1  0
  8 15  1  0
 15 16  1  0
  4 17  1  0
 17 18  2  0
 18 19  1  0
 19 20  2  0
 20 21  1  0
 21 22  2  0
 22 23  1  0
 22 24  1  0
 24 25  1  0
 25 26  2  0
 26 27  1  0
 27 28  2  0
 28 29  1  0
 29 30  1  0
 29 31  1  0
 29 32  1  0
 28 33  1  0
 24 34  2  0
 18  2  1  0
 34 19  1  0
 16  5  1  0
 33 25  1  0
  1 35  1  0
  1 36  1  0
  1 37  1  0
  5 38  1  0
  6 39  1  0
  6 40  1  0
  7 41  1  0
  7 42  1  0
 12 43  1  0
 12 44  1  0
 12 45  1  0
 13 46  1  0
 13 47  1  0
 13 48  1  0
 14 49  1  0
 15 50  1  0
 15 51  1  0
 16 52  1  0
 16 53  1  0
 20 54  1  0
 23 55  1  0
 23 56  1  0
 30 57  1  0
 30 58  1  0
 30 59  1  0
 31 60  1  0
 31 61  1  0
 31 62  1  0
 32 63  1  0
 32 64  1  0
 32 65  1  0
M  END
$$$$
