@<TRIPOS>MOLECULE
*****
 57 62 0 0 0
SMALL
GASTEIGER

@<TRIPOS>ATOM
      1 N          10.8396    3.1328   -0.0842 N.1     1  UNL1       -0.1908
      2 C           9.6892    2.8202    0.0959 C.1     1  UNL1        0.1007
      3 C           8.3437    2.4745    0.2906 C.ar    1  UNL1        0.0699
      4 C           7.3596    3.4628    0.1123 C.ar    1  UNL1       -0.0407
      5 C           6.0635    3.1499    0.3545 C.ar    1  UNL1       -0.0300
      6 C           5.6557    1.8894    0.7729 C.ar    1  UNL1        0.1257
      7 C           4.2810    1.5834    1.0489 C.2     1  UNL1        0.2666
      8 O           3.4399    2.5379    0.9302 O.2     1  UNL1       -0.2682
      9 N           3.7469    0.3438    1.4416 N.am    1  UNL1       -0.2802
     10 C           2.3333    0.1817    1.7118 C.ar    1  UNL1        0.0343
     11 C           1.9281    0.3164    3.0201 C.ar    1  UNL1       -0.0370
     12 C           0.6293    0.2056    3.3549 C.ar    1  UNL1       -0.0172
     13 C          -0.3029   -0.0482    2.3415 C.ar    1  UNL1        0.1345
     14 C           0.0441   -0.1913    1.0249 C.ar    1  UNL1        0.0287
     15 C           1.4067   -0.0668    0.7416 C.ar    1  UNL1       -0.0312
     16 C          -0.9065   -0.4694   -0.0811 C.3     1  UNL1        0.1264
     17 C          -0.8055    0.5748   -1.1460 C.3     1  UNL1        0.0155
     18 C          -0.2262    0.0763   -2.4239 C.3     1  UNL1        0.0953
     19 O          -0.7222   -1.2208   -2.6898 O.2     1  UNL1       -0.4658
     20 C          -0.5224   -2.1873   -1.7157 C.2     1  UNL1        0.2763
     21 N          -0.2234   -3.5609   -2.0684 N.pl3   1  UNL1       -0.3134
     22 N          -0.6099   -1.8244   -0.5051 N.2     1  UNL1       -0.2205
     23 C          -2.3107   -0.5467    0.4448 C.ar    1  UNL1        0.0304
     24 C          -3.3590   -0.7877   -0.4455 C.ar    1  UNL1       -0.0445
     25 C          -4.6519   -0.8695    0.0422 C.ar    1  UNL1       -0.0144
     26 C          -5.7240   -1.0952   -0.9168 C.ar    1  UNL1       -0.0121
     27 C          -5.6910   -0.6109   -2.2080 C.ar    1  UNL1       -0.0357
     28 C          -6.7294   -0.8581   -3.0831 C.ar    1  UNL1        0.0312
     29 N          -7.7943   -1.5821   -2.6818 N.ar    1  UNL1       -0.2276
     30 C          -7.8683   -2.0691   -1.4438 C.ar    1  UNL1        0.2138
     31 F          -8.9513   -2.7926   -1.0648 F       1  UNL1       -0.1839
     32 C          -6.8275   -1.8284   -0.5426 C.ar    1  UNL1        0.0004
     33 C          -4.9321   -0.7161    1.4015 C.ar    1  UNL1       -0.0150
     34 C          -3.8945   -0.4780    2.2671 C.ar    1  UNL1        0.1663
     35 F          -4.1626   -0.3287    3.5796 F       1  UNL1       -0.2016
     36 C          -2.5752   -0.3957    1.7630 C.ar    1  UNL1        0.1693
     37 O          -1.6168   -0.1493    2.7305 O.3     1  UNL1       -0.4524
     38 N           6.6191    0.9861    0.9235 N.ar    1  UNL1       -0.2491
     39 C           7.9160    1.2436    0.6975 C.ar    1  UNL1        0.0458
     40 H           7.7102    4.4344   -0.2187 H       1  UNL1        0.0631
     41 H           5.2927    3.8963    0.2254 H       1  UNL1        0.0641
     42 H           4.3884   -0.4651    1.5355 H       1  UNL1        0.1552
     43 H           2.6746    0.5122    3.7865 H       1  UNL1        0.0637
     44 H           0.2976    0.3079    4.3749 H       1  UNL1        0.0655
     45 H           1.7379   -0.1690   -0.2565 H       1  UNL1        0.0641
     46 H          -1.8362    0.9696   -1.4252 H       1  UNL1        0.0328
     47 H          -0.2871    1.5171   -0.7804 H       1  UNL1        0.0328
     48 H          -0.5230    0.7642   -3.2670 H       1  UNL1        0.0698
     49 H           0.8822    0.0242   -2.4557 H       1  UNL1        0.0698
     50 H          -0.8844   -4.3150   -1.7977 H       1  UNL1        0.1466
     51 H           0.6374   -3.7987   -2.5855 H       1  UNL1        0.1466
     52 H          -3.1760   -0.9089   -1.5010 H       1  UNL1        0.0628
     53 H          -4.8405   -0.0329   -2.5307 H       1  UNL1        0.0639
     54 H          -6.7405   -0.4914   -4.1141 H       1  UNL1        0.0831
     55 H          -6.9169   -2.2355    0.4553 H       1  UNL1        0.0668
     56 H          -5.9774   -0.7904    1.7343 H       1  UNL1        0.0653
     57 H           8.6723    0.4792    0.8296 H       1  UNL1        0.0843
@<TRIPOS>BOND
     1     1     2    3
     2     2     3    1
     3     3     4   ar
     4     4     5   ar
     5     5     6   ar
     6     6     7    1
     7     7     8    2
     8     7     9   am
     9     9    10    1
    10    10    11   ar
    11    11    12   ar
    12    12    13   ar
    13    13    14   ar
    14    14    15   ar
    15    14    16    1
    16    16    17    1
    17    17    18    1
    18    18    19    1
    19    19    20    1
    20    20    21    1
    21    20    22    2
    22    16    23    1
    23    23    24   ar
    24    24    25   ar
    25    25    26    1
    26    26    27   ar
    27    27    28   ar
    28    28    29   ar
    29    29    30   ar
    30    30    31    1
    31    30    32   ar
    32    25    33   ar
    33    33    34   ar
    34    34    35    1
    35    34    36   ar
    36    36    37    1
    37     6    38   ar
    38    38    39   ar
    39    39     3   ar
    40    15    10   ar
    41    22    16    1
    42    36    23   ar
    43    37    13    1
    44    32    26   ar
    45     4    40    1
    46     5    41    1
    47     9    42    1
    48    11    43    1
    49    12    44    1
    50    15    45    1
    51    17    46    1
    52    17    47    1
    53    18    48    1
    54    18    49    1
    55    21    50    1
    56    21    51    1
    57    24    52    1
    58    27    53    1
    59    28    54    1
    60    32    55    1
    61    33    56    1
    62    39    57    1
