
     RDKit          3D

 77 80  0  0  0  0  0  0  0  0999 V2000
   -5.5725    2.4258   -3.2581 C   0  0  0  0  0  0  0  0  0  0  0  0
   -5.8459    0.9580   -3.1291 C   0  0  0  0  0  0  0  0  0  0  0  0
   -4.6768    0.1595   -2.8433 N   0  0  0  0  0  0  0  0  0  0  0  0
   -3.9699    0.3891   -1.6297 C   0  0  0  0  0  0  0  0  0  0  0  0
   -2.8227   -0.3551   -1.3252 C   0  0  0  0  0  0  0  0  0  0  0  0
   -2.1084   -0.1734   -0.1661 C   0  0  0  0  0  0  0  0  0  0  0  0
   -0.9109   -0.9486    0.1554 C   0  0  0  0  0  0  0  0  0  0  0  0
   -0.2731   -0.7120    1.2223 O   0  0  0  0  0  0  0  0  0  0  0  0
   -0.4180   -1.9700   -0.6803 N   0  0  0  0  0  0  0  0  0  0  0  0
    0.8031   -2.7242   -0.3073 C   0  0  1  0  0  0  0  0  0  0  0  0
    0.4010   -4.1634   -0.2035 C   0  0  0  0  0  0  0  0  0  0  0  0
    1.4444   -5.1130    0.1444 C   0  0  0  0  0  0  0  0  0  0  0  0
    1.7627   -5.3841    1.4581 C   0  0  0  0  0  0  0  0  0  0  0  0
    2.7452   -6.3061    1.7895 C   0  0  0  0  0  0  0  0  0  0  0  0
    3.4447   -6.9901    0.8200 C   0  0  0  0  0  0  0  0  0  0  0  0
    3.1350   -6.7274   -0.4998 C   0  0  0  0  0  0  0  0  0  0  0  0
    2.1601   -5.8126   -0.8335 C   0  0  0  0  0  0  0  0  0  0  0  0
    1.7893   -2.4595   -1.4138 C   0  0  2  0  0  0  0  0  0  0  0  0
    3.0226   -3.0236   -1.2417 O   0  0  0  0  0  0  0  0  0  0  0  0
    1.8133   -1.0280   -1.8012 C   0  0  0  0  0  0  0  0  0  0  0  0
    2.4240   -0.1035   -0.9310 N   0  0  0  0  0  0  0  0  0  0  0  0
    3.8396   -0.1586   -0.7797 C   0  0  0  0  0  0  0  0  0  0  0  0
    4.3415    0.9411    0.1157 C   0  0  0  0  0  0  0  0  0  0  0  0
    4.4588    0.7952    1.4798 C   0  0  0  0  0  0  0  0  0  0  0  0
    4.9276    1.8352    2.2820 C   0  0  0  0  0  0  0  0  0  0  0  0
    5.2880    3.0439    1.7281 C   0  0  0  0  0  0  0  0  0  0  0  0
    5.7489    4.0533    2.5555 O   0  0  0  0  0  0  0  0  0  0  0  0
    6.1394    5.3186    2.0831 C   0  0  0  0  0  0  0  0  0  0  0  0
    5.1709    3.1909    0.3623 C   0  0  0  0  0  0  0  0  0  0  0  0
    4.7024    2.1500   -0.4346 C   0  0  0  0  0  0  0  0  0  0  0  0
   -2.5645    0.8014    0.7335 C   0  0  0  0  0  0  0  0  0  0  0  0
   -3.6799    1.5514    0.4774 C   0  0  0  0  0  0  0  0  0  0  0  0
   -4.1141    2.5342    1.4256 N   0  0  0  0  0  0  0  0  0  0  0  0
   -5.0634    2.2604    2.5148 C   0  0  0  0  0  0  0  0  0  0  0  0
   -5.8034    3.5659    2.6199 C   0  0  0  0  0  0  0  0  0  0  0  0
   -4.7189    4.5972    2.4697 C   0  0  0  0  0  0  0  0  0  0  0  0
   -3.7720    3.8866    1.5393 C   0  0  0  0  0  0  0  0  0  0  0  0
   -2.7932    4.4286    0.9343 O   0  0  0  0  0  0  0  0  0  0  0  0
   -4.3577    1.3252   -0.7032 C   0  0  0  0  0  0  0  0  0  0  0  0
   -4.5361    2.7240   -3.0129 H   0  0  0  0  0  0  0  0  0  0  0  0
   -5.7448    2.7035   -4.3415 H   0  0  0  0  0  0  0  0  0  0  0  0
   -6.2828    3.0718   -2.6962 H   0  0  0  0  0  0  0  0  0  0  0  0
   -6.5608    0.8315   -2.2631 H   0  0  0  0  0  0  0  0  0  0  0  0
   -6.3895    0.5733   -4.0252 H   0  0  0  0  0  0  0  0  0  0  0  0
   -4.3467   -0.5665   -3.4940 H   0  0  0  0  0  0  0  0  0  0  0  0
   -2.5103   -1.1033   -2.0631 H   0  0  0  0  0  0  0  0  0  0  0  0
   -0.9156   -2.1909   -1.5590 H   0  0  0  0  0  0  0  0  0  0  0  0
    1.2196   -2.3442    0.6361 H   0  0  0  0  0  0  0  0  0  0  0  0
   -0.4853   -4.2081    0.4970 H   0  0  0  0  0  0  0  0  0  0  0  0
   -0.0586   -4.4409   -1.1989 H   0  0  0  0  0  0  0  0  0  0  0  0
    1.2247   -4.8567    2.2545 H   0  0  0  0  0  0  0  0  0  0  0  0
    2.9793   -6.5039    2.8183 H   0  0  0  0  0  0  0  0  0  0  0  0
    4.2147   -7.7121    1.0884 H   0  0  0  0  0  0  0  0  0  0  0  0
    3.6757   -7.2569   -1.2837 H   0  0  0  0  0  0  0  0  0  0  0  0
    1.8990   -5.5891   -1.8662 H   0  0  0  0  0  0  0  0  0  0  0  0
    1.3442   -3.0294   -2.3106 H   0  0  0  0  0  0  0  0  0  0  0  0
    3.1839   -3.2382   -0.2665 H   0  0  0  0  0  0  0  0  0  0  0  0
    2.3163   -0.9340   -2.8170 H   0  0  0  0  0  0  0  0  0  0  0  0
    0.7628   -0.6960   -2.0010 H   0  0  0  0  0  0  0  0  0  0  0  0
    2.1435    0.8638   -1.2023 H   0  0  0  0  0  0  0  0  0  0  0  0
    4.1305   -1.1122   -0.3022 H   0  0  0  0  0  0  0  0  0  0  0  0
    4.3097   -0.0558   -1.7912 H   0  0  0  0  0  0  0  0  0  0  0  0
    4.1911   -0.1266    1.9613 H   0  0  0  0  0  0  0  0  0  0  0  0
    5.0152    1.7039    3.3632 H   0  0  0  0  0  0  0  0  0  0  0  0
    6.9691    5.2099    1.3578 H   0  0  0  0  0  0  0  0  0  0  0  0
    6.5447    5.8941    2.9434 H   0  0  0  0  0  0  0  0  0  0  0  0
    5.2603    5.8502    1.6382 H   0  0  0  0  0  0  0  0  0  0  0  0
    5.4543    4.1439   -0.0802 H   0  0  0  0  0  0  0  0  0  0  0  0
    4.6439    2.3580   -1.5015 H   0  0  0  0  0  0  0  0  0  0  0  0
   -1.9961    0.9337    1.6379 H   0  0  0  0  0  0  0  0  0  0  0  0
   -5.7918    1.4706    2.1814 H   0  0  0  0  0  0  0  0  0  0  0  0
   -4.5608    1.9868    3.4464 H   0  0  0  0  0  0  0  0  0  0  0  0
   -6.3713    3.6648    3.5606 H   0  0  0  0  0  0  0  0  0  0  0  0
   -6.4622    3.6354    1.7272 H   0  0  0  0  0  0  0  0  0  0  0  0
   -4.2288    4.8731    3.4212 H   0  0  0  0  0  0  0  0  0  0  0  0
   -5.0989    5.4773    1.9025 H   0  0  0  0  0  0  0  0  0  0  0  0
   -5.2394    1.9369   -0.8701 H   0  0  0  0  0  0  0  0  0  0  0  0
  1  2  1  0
  2  3  1  0
  3  4  1  0
  4  5  2  0
  5  6  1  0
  6  7  1  0
  7  8  2  0
  7  9  1  0
  9 10  1  0
 10 11  1  0
 11 12  1  0
 12 13  2  0
 13 14  1  0
 14 15  2  0
 15 16  1  0
 16 17  2  0
 10 18  1  0
 18 19  1  0
 18 20  1  0
 20 21  1  0
 21 22  1  0
 22 23  1  0
 23 24  2  0
 24 25  1  0
 25 26  2  0
 26 27  1  0
 27 28  1  0
 26 29  1  0
 29 30  2  0
  6 31  2  0
 31 32  1  0
 32 33  1  0
 33 34  1  0
 34 35  1  0
 35 36  1  0
 36 37  1  0
 37 38  2  0
 32 39  2  0
 39  4  1  0
 17 12  1  0
 30 23  1  0
 37 33  1  0
  1 40  1  0
  1 41  1  0
  1 42  1  0
  2 43  1  0
  2 44  1  0
  3 45  1  0
  5 46  1  0
  9 47  1  0
 10 48  1  1
 11 49  1  0
 11 50  1  0
 13 51  1  0
 14 52  1  0
 15 53  1  0
 16 54  1  0
 17 55  1  0
 18 56  1  6
 19 57  1  0
 20 58  1  0
 20 59  1  0
 21 60  1  0
 22 61  1  0
 22 62  1  0
 24 63  1  0
 25 64  1  0
 28 65  1  0
 28 66  1  0
 28 67  1  0
 29 68  1  0
 30 69  1  0
 31 70  1  0
 34 71  1  0
 34 72  1  0
 35 73  1  0
 35 74  1  0
 36 75  1  0
 36 76  1  0
 39 77  1  0
M  END
$$$$
