@<TRIPOS>MOLECULE
*****
 77 80 0 0 0
SMALL
GASTEIGER

@<TRIPOS>ATOM
      1 C          -5.5725    2.4258   -3.2581 C.3     1  UNL1       -0.0496
      2 C          -5.8459    0.9580   -3.1291 C.3     1  UNL1        0.0063
      3 N          -4.6768    0.1595   -2.8433 N.pl3   1  UNL1       -0.3440
      4 C          -3.9699    0.3891   -1.6297 C.ar    1  UNL1        0.0296
      5 C          -2.8227   -0.3551   -1.3252 C.ar    1  UNL1       -0.0286
      6 C          -2.1084   -0.1734   -0.1661 C.ar    1  UNL1        0.0402
      7 C          -0.9109   -0.9486    0.1554 C.2     1  UNL1        0.2445
      8 O          -0.2731   -0.7120    1.2223 O.2     1  UNL1       -0.2702
      9 N          -0.4180   -1.9700   -0.6803 N.am    1  UNL1       -0.3057
     10 C           0.8031   -2.7242   -0.3073 C.3     1  UNL1        0.0545
     11 C           0.4010   -4.1634   -0.2035 C.3     1  UNL1       -0.0067
     12 C           1.4444   -5.1130    0.1444 C.ar    1  UNL1       -0.0455
     13 C           1.7627   -5.3841    1.4581 C.ar    1  UNL1       -0.0585
     14 C           2.7452   -6.3061    1.7895 C.ar    1  UNL1       -0.0615
     15 C           3.4447   -6.9901    0.8200 C.ar    1  UNL1       -0.0617
     16 C           3.1350   -6.7274   -0.4998 C.ar    1  UNL1       -0.0615
     17 C           2.1601   -5.8126   -0.8335 C.ar    1  UNL1       -0.0585
     18 C           1.7893   -2.4595   -1.4138 C.3     1  UNL1        0.0862
     19 O           3.0226   -3.0236   -1.2417 O.3     1  UNL1       -0.3887
     20 C           1.8133   -1.0280   -1.8012 C.3     1  UNL1        0.0240
     21 N           2.4240   -0.1035   -0.9310 N.3     1  UNL1       -0.3095
     22 C           3.8396   -0.1586   -0.7797 C.3     1  UNL1        0.0213
     23 C           4.3415    0.9411    0.1157 C.ar    1  UNL1       -0.0334
     24 C           4.4588    0.7952    1.4798 C.ar    1  UNL1       -0.0539
     25 C           4.9276    1.8352    2.2820 C.ar    1  UNL1       -0.0197
     26 C           5.2880    3.0439    1.7281 C.ar    1  UNL1        0.1201
     27 O           5.7489    4.0533    2.5555 O.3     1  UNL1       -0.4951
     28 C           6.1394    5.3186    2.0831 C.3     1  UNL1        0.0788
     29 C           5.1709    3.1909    0.3623 C.ar    1  UNL1       -0.0197
     30 C           4.7024    2.1500   -0.4346 C.ar    1  UNL1       -0.0539
     31 C          -2.5645    0.8014    0.7335 C.ar    1  UNL1       -0.0280
     32 C          -3.6799    1.5514    0.4774 C.ar    1  UNL1        0.0387
     33 N          -4.1141    2.5342    1.4256 N.am    1  UNL1       -0.2713
     34 C          -5.0634    2.2604    2.5148 C.3     1  UNL1        0.0202
     35 C          -5.8034    3.5659    2.6199 C.3     1  UNL1       -0.0285
     36 C          -4.7189    4.5972    2.4697 C.3     1  UNL1        0.0259
     37 C          -3.7720    3.8866    1.5393 C.2     1  UNL1        0.2198
     38 O          -2.7932    4.4286    0.9343 O.2     1  UNL1       -0.2753
     39 C          -4.3577    1.3252   -0.7032 C.ar    1  UNL1       -0.0194
     40 H          -4.5361    2.7240   -3.0129 H       1  UNL1        0.0245
     41 H          -5.7448    2.7035   -4.3415 H       1  UNL1        0.0245
     42 H          -6.2828    3.0718   -2.6962 H       1  UNL1        0.0245
     43 H          -6.5608    0.8315   -2.2631 H       1  UNL1        0.0458
     44 H          -6.3895    0.5733   -4.0252 H       1  UNL1        0.0458
     45 H          -4.3467   -0.5665   -3.4940 H       1  UNL1        0.1461
     46 H          -2.5103   -1.1033   -2.0631 H       1  UNL1        0.0643
     47 H          -0.9156   -2.1909   -1.5590 H       1  UNL1        0.1494
     48 H           1.2196   -2.3442    0.6361 H       1  UNL1        0.0527
     49 H          -0.4853   -4.2081    0.4970 H       1  UNL1        0.0332
     50 H          -0.0586   -4.4409   -1.1989 H       1  UNL1        0.0332
     51 H           1.2247   -4.8567    2.2545 H       1  UNL1        0.0620
     52 H           2.9793   -6.5039    2.8183 H       1  UNL1        0.0618
     53 H           4.2147   -7.7121    1.0884 H       1  UNL1        0.0618
     54 H           3.6757   -7.2569   -1.2837 H       1  UNL1        0.0618
     55 H           1.8990   -5.5891   -1.8662 H       1  UNL1        0.0620
     56 H           1.3442   -3.0294   -2.3106 H       1  UNL1        0.0624
     57 H           3.1839   -3.2382   -0.2665 H       1  UNL1        0.2099
     58 H           2.3163   -0.9340   -2.8170 H       1  UNL1        0.0450
     59 H           0.7628   -0.6960   -2.0010 H       1  UNL1        0.0450
     60 H           2.1435    0.8638   -1.2023 H       1  UNL1        0.1223
     61 H           4.1305   -1.1122   -0.3022 H       1  UNL1        0.0473
     62 H           4.3097   -0.0558   -1.7912 H       1  UNL1        0.0473
     63 H           4.1911   -0.1266    1.9613 H       1  UNL1        0.0622
     64 H           5.0152    1.7039    3.3632 H       1  UNL1        0.0654
     65 H           6.9691    5.2099    1.3578 H       1  UNL1        0.0660
     66 H           6.5447    5.8941    2.9434 H       1  UNL1        0.0660
     67 H           5.2603    5.8502    1.6382 H       1  UNL1        0.0660
     68 H           5.4543    4.1439   -0.0802 H       1  UNL1        0.0654
     69 H           4.6439    2.3580   -1.5015 H       1  UNL1        0.0622
     70 H          -1.9961    0.9337    1.6379 H       1  UNL1        0.0644
     71 H          -5.7918    1.4706    2.1814 H       1  UNL1        0.0469
     72 H          -4.5608    1.9868    3.4464 H       1  UNL1        0.0469
     73 H          -6.3713    3.6648    3.5606 H       1  UNL1        0.0285
     74 H          -6.4622    3.6354    1.7272 H       1  UNL1        0.0285
     75 H          -4.2288    4.8731    3.4212 H       1  UNL1        0.0359
     76 H          -5.0989    5.4773    1.9025 H       1  UNL1        0.0359
     77 H          -5.2394    1.9369   -0.8701 H       1  UNL1        0.0655
@<TRIPOS>BOND
     1     1     2    1
     2     2     3    1
     3     3     4    1
     4     4     5   ar
     5     5     6   ar
     6     6     7    1
     7     7     8    2
     8     7     9   am
     9     9    10    1
    10    10    11    1
    11    11    12    1
    12    12    13   ar
    13    13    14   ar
    14    14    15   ar
    15    15    16   ar
    16    16    17   ar
    17    10    18    1
    18    18    19    1
    19    18    20    1
    20    20    21    1
    21    21    22    1
    22    22    23    1
    23    23    24   ar
    24    24    25   ar
    25    25    26   ar
    26    26    27    1
    27    27    28    1
    28    26    29   ar
    29    29    30   ar
    30     6    31   ar
    31    31    32   ar
    32    32    33    1
    33    33    34    1
    34    34    35    1
    35    35    36    1
    36    36    37    1
    37    37    38    2
    38    32    39   ar
    39    39     4   ar
    40    17    12   ar
    41    30    23   ar
    42    37    33   am
    43     1    40    1
    44     1    41    1
    45     1    42    1
    46     2    43    1
    47     2    44    1
    48     3    45    1
    49     5    46    1
    50     9    47    1
    51    10    48    1
    52    11    49    1
    53    11    50    1
    54    13    51    1
    55    14    52    1
    56    15    53    1
    57    16    54    1
    58    17    55    1
    59    18    56    1
    60    19    57    1
    61    20    58    1
    62    20    59    1
    63    21    60    1
    64    22    61    1
    65    22    62    1
    66    24    63    1
    67    25    64    1
    68    28    65    1
    69    28    66    1
    70    28    67    1
    71    29    68    1
    72    30    69    1
    73    31    70    1
    74    34    71    1
    75    34    72    1
    76    35    73    1
    77    35    74    1
    78    36    75    1
    79    36    76    1
    80    39    77    1
