@<TRIPOS>MOLECULE
*****
 18 18 0 0 0
SMALL
GASTEIGER

@<TRIPOS>ATOM
      1 O           3.7103   -0.3962    0.2293 O.3     1  UNL1       -0.4804
      2 C           2.3454   -0.4505    0.5124 C.2     1  UNL1        0.3105
      3 O           2.0106   -1.0688    1.5507 O.2     1  UNL1       -0.2506
      4 C           1.4682    0.2163   -0.4294 C.3     1  UNL1        0.0852
      5 C           0.0547    0.2130   -0.2210 C.ar    1  UNL1        0.0362
      6 C          -0.6713    1.1658    0.4946 C.ar    1  UNL1        0.0227
      7 C          -2.0523    1.0819    0.6467 C.ar    1  UNL1        0.2542
      8 O          -2.6146    1.9941    1.3120 O.2     1  UNL1       -0.2677
      9 N          -2.7142    0.0656    0.0974 N.ar    1  UNL1       -0.2751
     10 C          -2.0104   -0.8611   -0.5982 C.ar    1  UNL1        0.3269
     11 O          -2.6782   -1.7945   -1.0938 O.2     1  UNL1       -0.2467
     12 N          -0.6780   -0.7679   -0.7372 N.ar    1  UNL1       -0.3109
     13 H           4.3970   -1.0253    0.6245 H       1  UNL1        0.2951
     14 H           1.6927   -0.1866   -1.4407 H       1  UNL1        0.0441
     15 H           1.8109    1.2876   -0.4832 H       1  UNL1        0.0441
     16 H          -0.0951    1.9901    0.9342 H       1  UNL1        0.0689
     17 H          -3.7396    0.0558    0.2439 H       1  UNL1        0.1734
     18 H          -0.2361   -1.5196   -1.2823 H       1  UNL1        0.1701
@<TRIPOS>BOND
     1     1     2    1
     2     2     3    2
     3     2     4    1
     4     4     5    1
     5     5     6   ar
     6     6     7   ar
     7     7     8    2
     8     7     9   ar
     9     9    10   ar
    10    10    11    2
    11    10    12   ar
    12    12     5   ar
    13     1    13    1
    14     4    14    1
    15     4    15    1
    16     6    16    1
    17     9    17    1
    18    12    18    1
