@<TRIPOS>MOLECULE
*****
 44 46 0 0 0
SMALL
GASTEIGER

@<TRIPOS>ATOM
      1 C          -5.1206   -2.5495    1.3035 C.3     1  UNL1        0.0788
      2 O          -4.7880   -1.2003    0.9450 O.3     1  UNL1       -0.4951
      3 C          -3.4605   -0.9456    0.6118 C.ar    1  UNL1        0.1208
      4 C          -2.4994   -1.9206    0.6186 C.ar    1  UNL1       -0.0180
      5 C          -1.1847   -1.6119    0.2769 C.ar    1  UNL1       -0.0337
      6 C          -0.8134   -0.3527   -0.0682 C.ar    1  UNL1        0.0574
      7 C          -1.8153    0.6155   -0.0674 C.ar    1  UNL1        0.0069
      8 C          -3.1353    0.3434    0.2674 C.ar    1  UNL1       -0.0105
      9 C          -1.2490    1.7866   -0.4724 C.ar    1  UNL1       -0.0214
     10 C          -1.9605    3.0833   -0.6143 C.3     1  UNL1       -0.0374
     11 C           0.1042    1.5221   -0.7170 C.ar    1  UNL1        0.0312
     12 C           0.9844    2.6058   -1.1587 C.3     1  UNL1       -0.0015
     13 C           1.3865    3.5202    0.0004 C.3     1  UNL1        0.0501
     14 C           2.2734    4.6062   -0.4790 C.2     1  UNL1        0.3051
     15 O           1.8228    5.6101   -1.0871 O.2     1  UNL1       -0.2510
     16 O           3.6459    4.5073   -0.2463 O.3     1  UNL1       -0.4806
     17 N           0.3715    0.2151   -0.4672 N.ar    1  UNL1       -0.2799
     18 C           1.6179   -0.4101   -0.6678 C.2     1  UNL1        0.2631
     19 O           2.4660    0.2791   -1.3857 O.2     1  UNL1       -0.2667
     20 C           2.1067   -1.6696   -0.2096 C.ar    1  UNL1        0.0399
     21 C           2.9589   -2.3996   -1.0477 C.ar    1  UNL1       -0.0480
     22 C           3.5614   -3.5669   -0.6662 C.ar    1  UNL1       -0.0427
     23 C           3.3437   -4.0765    0.5887 C.ar    1  UNL1        0.0410
     24 CL          4.1212   -5.5762    1.0703 Cl      1  UNL1       -0.0835
     25 C           2.5081   -3.3920    1.4574 C.ar    1  UNL1       -0.0427
     26 C           1.9229   -2.2192    1.0293 C.ar    1  UNL1       -0.0480
     27 H          -4.6085   -2.8034    2.2445 H       1  UNL1        0.0660
     28 H          -6.2005   -2.6199    1.4106 H       1  UNL1        0.0660
     29 H          -4.8071   -3.2097    0.4557 H       1  UNL1        0.0660
     30 H          -2.7559   -2.9287    0.8870 H       1  UNL1        0.0655
     31 H          -0.4593   -2.4073    0.2491 H       1  UNL1        0.0640
     32 H          -3.8824    1.1235    0.2566 H       1  UNL1        0.0661
     33 H          -1.4538    3.7481   -1.3475 H       1  UNL1        0.0278
     34 H          -2.0652    3.5754    0.3816 H       1  UNL1        0.0278
     35 H          -2.9999    2.9417   -0.9924 H       1  UNL1        0.0278
     36 H           0.4418    3.2272   -1.9330 H       1  UNL1        0.0333
     37 H           1.8935    2.2836   -1.6488 H       1  UNL1        0.0333
     38 H           1.9206    2.9346    0.7753 H       1  UNL1        0.0381
     39 H           0.5031    3.9574    0.4900 H       1  UNL1        0.0381
     40 H           4.3079    5.0069   -0.8124 H       1  UNL1        0.2951
     41 H           3.1534   -2.0219   -2.0531 H       1  UNL1        0.0626
     42 H           4.2085   -4.0791   -1.3665 H       1  UNL1        0.0632
     43 H           2.3573   -3.8209    2.4389 H       1  UNL1        0.0632
     44 H           1.2775   -1.7113    1.7500 H       1  UNL1        0.0626
@<TRIPOS>BOND
     1     1     2    1
     2     2     3    1
     3     3     4   ar
     4     4     5   ar
     5     5     6   ar
     6     6     7   ar
     7     7     8   ar
     8     7     9   ar
     9     9    10    1
    10     9    11   ar
    11    11    12    1
    12    12    13    1
    13    13    14    1
    14    14    15    2
    15    14    16    1
    16    11    17   ar
    17    17    18   am
    18    18    19    2
    19    18    20    1
    20    20    21   ar
    21    21    22   ar
    22    22    23   ar
    23    23    24    1
    24    23    25   ar
    25    25    26   ar
    26     8     3   ar
    27    26    20   ar
    28    17     6   ar
    29     1    27    1
    30     1    28    1
    31     1    29    1
    32     4    30    1
    33     5    31    1
    34     8    32    1
    35    10    33    1
    36    10    34    1
    37    10    35    1
    38    12    36    1
    39    12    37    1
    40    13    38    1
    41    13    39    1
    42    16    40    1
    43    21    41    1
    44    22    42    1
    45    25    43    1
    46    26    44    1
