
     RDKit          3D

 44 46  0  0  0  0  0  0  0  0999 V2000
   -5.1206   -2.5495    1.3035 C   0  0  0  0  0  0  0  0  0  0  0  0
   -4.7880   -1.2003    0.9450 O   0  0  0  0  0  0  0  0  0  0  0  0
   -3.4605   -0.9456    0.6118 C   0  0  0  0  0  0  0  0  0  0  0  0
   -2.4994   -1.9206    0.6186 C   0  0  0  0  0  0  0  0  0  0  0  0
   -1.1847   -1.6119    0.2769 C   0  0  0  0  0  0  0  0  0  0  0  0
   -0.8134   -0.3527   -0.0682 C   0  0  0  0  0  0  0  0  0  0  0  0
   -1.8153    0.6155   -0.0674 C   0  0  0  0  0  0  0  0  0  0  0  0
   -3.1353    0.3434    0.2674 C   0  0  0  0  0  0  0  0  0  0  0  0
   -1.2490    1.7866   -0.4724 C   0  0  0  0  0  0  0  0  0  0  0  0
   -1.9605    3.0833   -0.6143 C   0  0  0  0  0  0  0  0  0  0  0  0
    0.1042    1.5221   -0.7170 C   0  0  0  0  0  0  0  0  0  0  0  0
    0.9844    2.6058   -1.1587 C   0  0  0  0  0  0  0  0  0  0  0  0
    1.3865    3.5202    0.0004 C   0  0  0  0  0  0  0  0  0  0  0  0
    2.2734    4.6062   -0.4790 C   0  0  0  0  0  0  0  0  0  0  0  0
    1.8228    5.6101   -1.0871 O   0  0  0  0  0  0  0  0  0  0  0  0
    3.6459    4.5073   -0.2463 O   0  0  0  0  0  0  0  0  0  0  0  0
    0.3715    0.2151   -0.4672 N   0  0  0  0  0  0  0  0  0  0  0  0
    1.6179   -0.4101   -0.6678 C   0  0  0  0  0  0  0  0  0  0  0  0
    2.4660    0.2791   -1.3857 O   0  0  0  0  0  0  0  0  0  0  0  0
    2.1067   -1.6696   -0.2096 C   0  0  0  0  0  0  0  0  0  0  0  0
    2.9589   -2.3996   -1.0477 C   0  0  0  0  0  0  0  0  0  0  0  0
    3.5614   -3.5669   -0.6662 C   0  0  0  0  0  0  0  0  0  0  0  0
    3.3437   -4.0765    0.5887 C   0  0  0  0  0  0  0  0  0  0  0  0
    4.1212   -5.5762    1.0703 Cl  0  0  0  0  0  0  0  0  0  0  0  0
    2.5081   -3.3920    1.4574 C   0  0  0  0  0  0  0  0  0  0  0  0
    1.9229   -2.2192    1.0293 C   0  0  0  0  0  0  0  0  0  0  0  0
   -4.6085   -2.8034    2.2445 H   0  0  0  0  0  0  0  0  0  0  0  0
   -6.2005   -2.6199    1.4106 H   0  0  0  0  0  0  0  0  0  0  0  0
   -4.8071   -3.2097    0.4557 H   0  0  0  0  0  0  0  0  0  0  0  0
   -2.7559   -2.9287    0.8870 H   0  0  0  0  0  0  0  0  0  0  0  0
   -0.4593   -2.4073    0.2491 H   0  0  0  0  0  0  0  0  0  0  0  0
   -3.8824    1.1235    0.2566 H   0  0  0  0  0  0  0  0  0  0  0  0
   -1.4538    3.7481   -1.3475 H   0  0  0  0  0  0  0  0  0  0  0  0
   -2.0652    3.5754    0.3816 H   0  0  0  0  0  0  0  0  0  0  0  0
   -2.9999    2.9417   -0.9924 H   0  0  0  0  0  0  0  0  0  0  0  0
    0.4418    3.2272   -1.9330 H   0  0  0  0  0  0  0  0  0  0  0  0
    1.8935    2.2836   -1.6488 H   0  0  0  0  0  0  0  0  0  0  0  0
    1.9206    2.9346    0.7753 H   0  0  0  0  0  0  0  0  0  0  0  0
    0.5031    3.9574    0.4900 H   0  0  0  0  0  0  0  0  0  0  0  0
    4.3079    5.0069   -0.8124 H   0  0  0  0  0  0  0  0  0  0  0  0
    3.1534   -2.0219   -2.0531 H   0  0  0  0  0  0  0  0  0  0  0  0
    4.2085   -4.0791   -1.3665 H   0  0  0  0  0  0  0  0  0  0  0  0
    2.3573   -3.8209    2.4389 H   0  0  0  0  0  0  0  0  0  0  0  0
    1.2775   -1.7113    1.7500 H   0  0  0  0  0  0  0  0  0  0  0  0
  1  2  1  0
  2  3  1  0
  3  4  2  0
  4  5  1  0
  5  6  2  0
  6  7  1  0
  7  8  2  0
  7  9  1  0
  9 10  1  0
  9 11  2  0
 11 12  1  0
 12 13  1  0
 13 14  1  0
 14 15  2  0
 14 16  1  0
 11 17  1  0
 17 18  1  0
 18 19  2  0
 18 20  1  0
 20 21  2  0
 21 22  1  0
 22 23  2  0
 23 24  1  0
 23 25  1  0
 25 26  2  0
  8  3  1  0
 26 20  1  0
 17  6  1  0
  1 27  1  0
  1 28  1  0
  1 29  1  0
  4 30  1  0
  5 31  1  0
  8 32  1  0
 10 33  1  0
 10 34  1  0
 10 35  1  0
 12 36  1  0
 12 37  1  0
 13 38  1  0
 13 39  1  0
 16 40  1  0
 21 41  1  0
 22 42  1  0
 25 43  1  0
 26 44  1  0
M  END
$$$$
