@<TRIPOS>MOLECULE
*****
 30 31 0 0 0
SMALL
GASTEIGER

@<TRIPOS>ATOM
      1 C          -3.6066   -1.9207    0.0942 C.3     1  UNL1       -0.0482
      2 C          -3.1524   -0.8045   -0.8200 C.3     1  UNL1        0.0784
      3 C          -4.1439    0.3031   -0.7411 C.2     1  UNL1        0.3119
      4 O          -4.8201    1.2795   -0.0563 O.3     1  UNL1       -0.4802
      5 O          -4.7945    0.6453   -1.7847 O.2     1  UNL1       -0.2503
      6 C          -1.7989   -0.3504   -0.4662 C.ar    1  UNL1       -0.0339
      7 C          -0.6989   -0.5245   -1.2940 C.ar    1  UNL1       -0.0571
      8 C           0.5293   -0.0627   -0.8779 C.ar    1  UNL1       -0.0506
      9 C           0.7859    0.5717    0.3091 C.ar    1  UNL1        0.0228
     10 C          -0.3237    0.7540    1.1533 C.ar    1  UNL1       -0.0506
     11 C          -1.5660    0.2881    0.7346 C.ar    1  UNL1       -0.0571
     12 C           2.0132    1.0814    0.8714 C.2     1  UNL1        0.1997
     13 O           2.0353    1.9894    1.7485 O.2     1  UNL1       -0.2861
     14 C           3.2798    0.5984    0.4816 C.ar    1  UNL1        0.0594
     15 C           4.4872    1.0200    0.8692 C.ar    1  UNL1       -0.0438
     16 C           5.6811    0.5493    0.5061 C.ar    1  UNL1       -0.0540
     17 C           5.5118   -0.5880   -0.4557 C.ar    1  UNL1       -0.0236
     18 S           3.6416   -0.7627   -0.6538 S.2     1  UNL1       -0.0934
     19 H          -3.0784   -2.8704   -0.1017 H       1  UNL1        0.0241
     20 H          -3.4740   -1.6794    1.1690 H       1  UNL1        0.0241
     21 H          -4.6861   -2.1229   -0.0337 H       1  UNL1        0.0241
     22 H          -3.1347   -1.2072   -1.8426 H       1  UNL1        0.0459
     23 H          -4.3310    2.1222    0.2649 H       1  UNL1        0.2951
     24 H          -0.8016   -1.0124   -2.2478 H       1  UNL1        0.0621
     25 H           1.3816   -0.1870   -1.5142 H       1  UNL1        0.0625
     26 H          -0.2775    1.2408    2.1253 H       1  UNL1        0.0625
     27 H          -2.4367    0.4234    1.3848 H       1  UNL1        0.0621
     28 H           4.6939    1.8497    1.5697 H       1  UNL1        0.0630
     29 H           6.7349    0.6545    0.6237 H       1  UNL1        0.0623
     30 H           6.3496   -1.2782   -1.0155 H       1  UNL1        0.0693
@<TRIPOS>BOND
     1     1     2    1
     2     2     3    1
     3     3     4    1
     4     3     5    2
     5     2     6    1
     6     6     7   ar
     7     7     8   ar
     8     8     9   ar
     9     9    10   ar
    10    10    11   ar
    11     9    12    1
    12    12    13    2
    13    12    14    1
    14    14    15   ar
    15    15    16   ar
    16    16    17   ar
    17    17    18   ar
    18    11     6   ar
    19    18    14   ar
    20     1    19    1
    21     1    20    1
    22     1    21    1
    23     2    22    1
    24     4    23    1
    25     7    24    1
    26     8    25    1
    27    10    26    1
    28    11    27    1
    29    15    28    1
    30    16    29    1
    31    17    30    1
