
     RDKit          3D

 55 56  0  0  0  0  0  0  0  0999 V2000
   -7.3136   -2.0890    0.4213 C   0  0  0  0  0  0  0  0  0  0  0  0
   -6.9050   -1.8669   -1.0171 C   0  0  0  0  0  0  0  0  0  0  0  0
   -5.5256   -1.7225   -1.0817 O   0  0  0  0  0  0  0  0  0  0  0  0
   -4.7628   -0.7505   -0.4616 C   0  0  0  0  0  0  0  0  0  0  0  0
   -5.3339    0.2272    0.3220 C   0  0  0  0  0  0  0  0  0  0  0  0
   -4.4934    1.1528    0.8995 C   0  0  0  0  0  0  0  0  0  0  0  0
   -3.1291    1.1239    0.7158 C   0  0  0  0  0  0  0  0  0  0  0  0
   -2.3309    2.0830    1.3229 O   0  0  0  0  0  0  0  0  0  0  0  0
   -2.9237    3.0735    2.1186 C   0  0  0  0  0  0  0  0  0  0  0  0
   -1.8813    4.0279    2.6932 C   0  0  0  0  0  0  0  0  0  0  0  0
   -2.5278    0.1581   -0.0629 C   0  0  0  0  0  0  0  0  0  0  0  0
   -1.1254    0.1705   -0.2208 N   0  0  0  0  0  0  0  0  0  0  0  0
   -0.2612   -0.6686   -0.9381 C   0  0  0  0  0  0  0  0  0  0  0  0
   -0.7700   -1.6162   -1.5712 O   0  0  0  0  0  0  0  0  0  0  0  0
    1.1744   -0.5406   -1.0154 C   0  0  0  0  0  0  0  0  0  0  0  0
    1.9334   -1.4227   -1.7515 C   0  0  0  0  0  0  0  0  0  0  0  0
    3.3212   -1.3183   -1.8400 C   0  0  0  0  0  0  0  0  0  0  0  0
    3.9471   -2.3858   -2.6962 C   0  0  0  0  0  0  0  0  0  0  0  0
    4.0226   -0.2975   -1.1758 C   0  0  0  0  0  0  0  0  0  0  0  0
    5.3698   -0.4336   -1.4365 O   0  0  0  0  0  0  0  0  0  0  0  0
    6.2391   -1.2176   -0.6892 C   0  0  0  0  0  0  0  0  0  0  0  0
    6.4042   -0.8460    0.7482 C   0  0  0  0  0  0  0  0  0  0  0  0
    6.9220    0.4812    0.9214 N   0  0  0  0  0  0  0  0  0  0  0  0
    3.2559    0.5649   -0.4537 C   0  0  0  0  0  0  0  0  0  0  0  0
    4.0030    1.6388    0.2253 C   0  0  0  0  0  0  0  0  0  0  0  0
    1.8887    0.4396   -0.3827 C   0  0  0  0  0  0  0  0  0  0  0  0
   -3.3960   -0.7488   -0.6233 C   0  0  0  0  0  0  0  0  0  0  0  0
   -6.4634   -2.0099    1.1213 H   0  0  0  0  0  0  0  0  0  0  0  0
   -8.0943   -1.3670    0.7533 H   0  0  0  0  0  0  0  0  0  0  0  0
   -7.7161   -3.1149    0.5627 H   0  0  0  0  0  0  0  0  0  0  0  0
   -7.4429   -1.0007   -1.4688 H   0  0  0  0  0  0  0  0  0  0  0  0
   -7.1615   -2.7995   -1.5927 H   0  0  0  0  0  0  0  0  0  0  0  0
   -6.3966    0.2937    0.4940 H   0  0  0  0  0  0  0  0  0  0  0  0
   -4.8853    1.9448    1.5260 H   0  0  0  0  0  0  0  0  0  0  0  0
   -3.6175    3.6808    1.4720 H   0  0  0  0  0  0  0  0  0  0  0  0
   -3.5452    2.6460    2.9237 H   0  0  0  0  0  0  0  0  0  0  0  0
   -0.9585    4.0639    2.0672 H   0  0  0  0  0  0  0  0  0  0  0  0
   -2.3550    5.0460    2.7575 H   0  0  0  0  0  0  0  0  0  0  0  0
   -1.5712    3.7637    3.7125 H   0  0  0  0  0  0  0  0  0  0  0  0
   -0.5789    0.9305    0.2704 H   0  0  0  0  0  0  0  0  0  0  0  0
    1.3936   -2.2262   -2.2758 H   0  0  0  0  0  0  0  0  0  0  0  0
    4.0010   -3.3514   -2.1655 H   0  0  0  0  0  0  0  0  0  0  0  0
    4.9750   -2.0068   -2.9531 H   0  0  0  0  0  0  0  0  0  0  0  0
    3.4380   -2.4620   -3.6835 H   0  0  0  0  0  0  0  0  0  0  0  0
    5.8563   -2.2847   -0.7001 H   0  0  0  0  0  0  0  0  0  0  0  0
    7.2515   -1.2195   -1.1699 H   0  0  0  0  0  0  0  0  0  0  0  0
    5.4205   -0.9469    1.2871 H   0  0  0  0  0  0  0  0  0  0  0  0
    7.1259   -1.5642    1.2022 H   0  0  0  0  0  0  0  0  0  0  0  0
    7.9469    0.5515    0.8427 H   0  0  0  0  0  0  0  0  0  0  0  0
    6.7045    0.8067    1.9086 H   0  0  0  0  0  0  0  0  0  0  0  0
    3.3243    2.5340    0.2842 H   0  0  0  0  0  0  0  0  0  0  0  0
    4.8693    1.9446   -0.3706 H   0  0  0  0  0  0  0  0  0  0  0  0
    4.2640    1.2824    1.2517 H   0  0  0  0  0  0  0  0  0  0  0  0
    1.4172    1.1847    0.2189 H   0  0  0  0  0  0  0  0  0  0  0  0
   -3.0029   -1.5361   -1.2465 H   0  0  0  0  0  0  0  0  0  0  0  0
  1  2  1  0
  2  3  1  0
  3  4  1  0
  4  5  2  0
  5  6  1  0
  6  7  2  0
  7  8  1  0
  8  9  1  0
  9 10  1  0
  7 11  1  0
 11 12  1  0
 12 13  1  0
 13 14  2  0
 13 15  1  0
 15 16  2  0
 16 17  1  0
 17 18  1  0
 17 19  2  0
 19 20  1  0
 20 21  1  0
 21 22  1  0
 22 23  1  0
 19 24  1  0
 24 25  1  0
 24 26  2  0
 11 27  2  0
 27  4  1  0
 26 15  1  0
  1 28  1  0
  1 29  1  0
  1 30  1  0
  2 31  1  0
  2 32  1  0
  5 33  1  0
  6 34  1  0
  9 35  1  0
  9 36  1  0
 10 37  1  0
 10 38  1  0
 10 39  1  0
 12 40  1  0
 16 41  1  0
 18 42  1  0
 18 43  1  0
 18 44  1  0
 21 45  1  0
 21 46  1  0
 22 47  1  0
 22 48  1  0
 23 49  1  0
 23 50  1  0
 25 51  1  0
 25 52  1  0
 25 53  1  0
 26 54  1  0
 27 55  1  0
M  END
$$$$
