@<TRIPOS>MOLECULE
*****
 55 56 0 0 0
SMALL
GASTEIGER

@<TRIPOS>ATOM
      1 C          -7.3136   -2.0890    0.4213 C.3     1  UNL1       -0.0307
      2 C          -6.9050   -1.8669   -1.0171 C.3     1  UNL1        0.0868
      3 O          -5.5256   -1.7225   -1.0817 O.3     1  UNL1       -0.4922
      4 C          -4.7628   -0.7505   -0.4616 C.ar    1  UNL1        0.1225
      5 C          -5.3339    0.2272    0.3220 C.ar    1  UNL1       -0.0164
      6 C          -4.4934    1.1528    0.8995 C.ar    1  UNL1       -0.0146
      7 C          -3.1291    1.1239    0.7158 C.ar    1  UNL1        0.1418
      8 O          -2.3309    2.0830    1.3229 O.3     1  UNL1       -0.4904
      9 C          -2.9237    3.0735    2.1186 C.3     1  UNL1        0.0869
     10 C          -1.8813    4.0279    2.6932 C.3     1  UNL1       -0.0307
     11 C          -2.5278    0.1581   -0.0629 C.ar    1  UNL1        0.0793
     12 N          -1.1254    0.1705   -0.2208 N.am    1  UNL1       -0.2785
     13 C          -0.2612   -0.6686   -0.9381 C.2     1  UNL1        0.2484
     14 O          -0.7700   -1.6162   -1.5712 O.2     1  UNL1       -0.2699
     15 C           1.1744   -0.5406   -1.0154 C.ar    1  UNL1        0.0377
     16 C           1.9334   -1.4227   -1.7515 C.ar    1  UNL1       -0.0432
     17 C           3.3212   -1.3183   -1.8400 C.ar    1  UNL1       -0.0078
     18 C           3.9471   -2.3858   -2.6962 C.3     1  UNL1       -0.0362
     19 C           4.0226   -0.2975   -1.1758 C.ar    1  UNL1        0.1264
     20 O           5.3698   -0.4336   -1.4365 O.3     1  UNL1       -0.4902
     21 C           6.2391   -1.2176   -0.6892 C.3     1  UNL1        0.1018
     22 C           6.4042   -0.8460    0.7482 C.3     1  UNL1        0.0276
     23 N           6.9220    0.4812    0.9214 N.3     1  UNL1       -0.3270
     24 C           3.2559    0.5649   -0.4537 C.ar    1  UNL1       -0.0078
     25 C           4.0030    1.6388    0.2253 C.3     1  UNL1       -0.0362
     26 C           1.8887    0.4396   -0.3827 C.ar    1  UNL1       -0.0432
     27 C          -3.3960   -0.7488   -0.6233 C.ar    1  UNL1        0.0049
     28 H          -6.4634   -2.0099    1.1213 H       1  UNL1        0.0262
     29 H          -8.0943   -1.3670    0.7533 H       1  UNL1        0.0262
     30 H          -7.7161   -3.1149    0.5627 H       1  UNL1        0.0262
     31 H          -7.4429   -1.0007   -1.4688 H       1  UNL1        0.0694
     32 H          -7.1615   -2.7995   -1.5927 H       1  UNL1        0.0694
     33 H          -6.3966    0.2937    0.4940 H       1  UNL1        0.0655
     34 H          -4.8853    1.9448    1.5260 H       1  UNL1        0.0656
     35 H          -3.6175    3.6808    1.4720 H       1  UNL1        0.0694
     36 H          -3.5452    2.6460    2.9237 H       1  UNL1        0.0694
     37 H          -0.9585    4.0639    2.0672 H       1  UNL1        0.0262
     38 H          -2.3550    5.0460    2.7575 H       1  UNL1        0.0262
     39 H          -1.5712    3.7637    3.7125 H       1  UNL1        0.0262
     40 H          -0.5789    0.9305    0.2704 H       1  UNL1        0.1552
     41 H           1.3936   -2.2262   -2.2758 H       1  UNL1        0.0629
     42 H           4.0010   -3.3514   -2.1655 H       1  UNL1        0.0279
     43 H           4.9750   -2.0068   -2.9531 H       1  UNL1        0.0279
     44 H           3.4380   -2.4620   -3.6835 H       1  UNL1        0.0279
     45 H           5.8563   -2.2847   -0.7001 H       1  UNL1        0.0709
     46 H           7.2515   -1.2195   -1.1699 H       1  UNL1        0.0709
     47 H           5.4205   -0.9469    1.2871 H       1  UNL1        0.0455
     48 H           7.1259   -1.5642    1.2022 H       1  UNL1        0.0455
     49 H           7.9469    0.5515    0.8427 H       1  UNL1        0.1183
     50 H           6.7045    0.8067    1.9086 H       1  UNL1        0.1183
     51 H           3.3243    2.5340    0.2842 H       1  UNL1        0.0279
     52 H           4.8693    1.9446   -0.3706 H       1  UNL1        0.0279
     53 H           4.2640    1.2824    1.2517 H       1  UNL1        0.0279
     54 H           1.4172    1.1847    0.2189 H       1  UNL1        0.0629
     55 H          -3.0029   -1.5361   -1.2465 H       1  UNL1        0.0674
@<TRIPOS>BOND
     1     1     2    1
     2     2     3    1
     3     3     4    1
     4     4     5   ar
     5     5     6   ar
     6     6     7   ar
     7     7     8    1
     8     8     9    1
     9     9    10    1
    10     7    11   ar
    11    11    12    1
    12    12    13   am
    13    13    14    2
    14    13    15    1
    15    15    16   ar
    16    16    17   ar
    17    17    18    1
    18    17    19   ar
    19    19    20    1
    20    20    21    1
    21    21    22    1
    22    22    23    1
    23    19    24   ar
    24    24    25    1
    25    24    26   ar
    26    11    27   ar
    27    27     4   ar
    28    26    15   ar
    29     1    28    1
    30     1    29    1
    31     1    30    1
    32     2    31    1
    33     2    32    1
    34     5    33    1
    35     6    34    1
    36     9    35    1
    37     9    36    1
    38    10    37    1
    39    10    38    1
    40    10    39    1
    41    12    40    1
    42    16    41    1
    43    18    42    1
    44    18    43    1
    45    18    44    1
    46    21    45    1
    47    21    46    1
    48    22    47    1
    49    22    48    1
    50    23    49    1
    51    23    50    1
    52    25    51    1
    53    25    52    1
    54    25    53    1
    55    26    54    1
    56    27    55    1
