@<TRIPOS>MOLECULE
*****
 48 50 0 0 0
SMALL
GASTEIGER

@<TRIPOS>ATOM
      1 O          -1.1793   -1.2026   -2.7095 O.2     1  UNL1       -0.2960
      2 C          -1.0553   -0.3392   -1.8708 C.2     1  UNL1        0.1558
      3 C          -1.7348    0.9530   -2.0540 C.3     1  UNL1        0.0258
      4 C          -2.6817    1.1510   -0.8783 C.3     1  UNL1        0.0338
      5 C          -3.8314    0.2088   -1.0593 C.3     1  UNL1       -0.0088
      6 C          -4.8358    0.2883    0.0102 C.ar    1  UNL1       -0.0456
      7 C          -5.9260    1.1180    0.0009 C.ar    1  UNL1       -0.0585
      8 C          -6.8435    1.1440    1.0515 C.ar    1  UNL1       -0.0615
      9 C          -6.6644    0.3221    2.1323 C.ar    1  UNL1       -0.0617
     10 C          -5.5784   -0.5210    2.1678 C.ar    1  UNL1       -0.0615
     11 C          -4.6690   -0.5369    1.1110 C.ar    1  UNL1       -0.0585
     12 N          -1.9657    0.9166    0.3651 N.am    1  UNL1       -0.3108
     13 C          -0.6845    0.3306    0.4164 C.2     1  UNL1        0.2325
     14 O           0.0512    0.5775    1.3895 O.2     1  UNL1       -0.2745
     15 C          -0.2286   -0.5476   -0.6485 C.3     1  UNL1        0.1692
     16 C           1.1886   -0.4379   -0.9864 C.2     1  UNL1        0.2325
     17 O           1.5126   -0.1989   -2.1758 O.2     1  UNL1       -0.2745
     18 N           2.2505   -0.5834   -0.0552 N.am    1  UNL1       -0.3115
     19 C           3.6446   -0.4751   -0.3885 C.3     1  UNL1        0.0231
     20 C           4.3217    0.6835    0.2956 C.3     1  UNL1       -0.0345
     21 C           5.7348    0.7754   -0.2533 C.3     1  UNL1       -0.0514
     22 C           6.5285   -0.3938    0.2861 C.3     1  UNL1       -0.0529
     23 C           5.6309   -1.5057    0.7706 C.3     1  UNL1       -0.0514
     24 C           4.4293   -1.7110   -0.0888 C.3     1  UNL1       -0.0345
     25 H          -2.3603    0.9596   -2.9601 H       1  UNL1        0.0360
     26 H          -1.0393    1.8126   -2.1288 H       1  UNL1        0.0360
     27 H          -2.9818    2.2107   -0.8889 H       1  UNL1        0.0505
     28 H          -4.3266    0.4531   -2.0105 H       1  UNL1        0.0331
     29 H          -3.4251   -0.8197   -1.0978 H       1  UNL1        0.0331
     30 H          -6.0605    1.7614   -0.8521 H       1  UNL1        0.0620
     31 H          -7.7036    1.8071    1.0306 H       1  UNL1        0.0618
     32 H          -7.3615    0.3272    2.9537 H       1  UNL1        0.0618
     33 H          -5.4551   -1.1639    3.0335 H       1  UNL1        0.0618
     34 H          -3.8176   -1.2127    1.1622 H       1  UNL1        0.0620
     35 H          -2.4866    1.2235    1.2406 H       1  UNL1        0.1490
     36 H          -0.4594   -1.5983   -0.3222 H       1  UNL1        0.0569
     37 H           1.9781   -0.7820    0.9321 H       1  UNL1        0.1490
     38 H           3.6961   -0.2607   -1.4911 H       1  UNL1        0.0498
     39 H           4.3855    0.4273    1.3812 H       1  UNL1        0.0283
     40 H           3.7611    1.6060    0.1102 H       1  UNL1        0.0283
     41 H           5.6798    0.6810   -1.3551 H       1  UNL1        0.0266
     42 H           6.1548    1.7477    0.0025 H       1  UNL1        0.0266
     43 H           7.2777   -0.7311   -0.4575 H       1  UNL1        0.0265
     44 H           7.0846   -0.0220    1.1759 H       1  UNL1        0.0265
     45 H           5.3591   -1.3255    1.8270 H       1  UNL1        0.0266
     46 H           6.2341   -2.4335    0.7565 H       1  UNL1        0.0266
     47 H           3.7448   -2.4085    0.4635 H       1  UNL1        0.0283
     48 H           4.7075   -2.2750   -1.0173 H       1  UNL1        0.0283
@<TRIPOS>BOND
     1     1     2    2
     2     2     3    1
     3     3     4    1
     4     4     5    1
     5     5     6    1
     6     6     7   ar
     7     7     8   ar
     8     8     9   ar
     9     9    10   ar
    10    10    11   ar
    11     4    12    1
    12    12    13   am
    13    13    14    2
    14    13    15    1
    15    15    16    1
    16    16    17    2
    17    16    18   am
    18    18    19    1
    19    19    20    1
    20    20    21    1
    21    21    22    1
    22    22    23    1
    23    23    24    1
    24    15     2    1
    25    24    19    1
    26    11     6   ar
    27     3    25    1
    28     3    26    1
    29     4    27    1
    30     5    28    1
    31     5    29    1
    32     7    30    1
    33     8    31    1
    34     9    32    1
    35    10    33    1
    36    11    34    1
    37    12    35    1
    38    15    36    1
    39    18    37    1
    40    19    38    1
    41    20    39    1
    42    20    40    1
    43    21    41    1
    44    21    42    1
    45    22    43    1
    46    22    44    1
    47    23    45    1
    48    23    46    1
    49    24    47    1
    50    24    48    1
