
     RDKit          3D

 48 50  0  0  0  0  0  0  0  0999 V2000
   -1.1793   -1.2026   -2.7095 O   0  0  0  0  0  0  0  0  0  0  0  0
   -1.0553   -0.3392   -1.8708 C   0  0  0  0  0  0  0  0  0  0  0  0
   -1.7348    0.9530   -2.0540 C   0  0  0  0  0  0  0  0  0  0  0  0
   -2.6817    1.1510   -0.8783 C   0  0  0  0  0  0  0  0  0  0  0  0
   -3.8314    0.2088   -1.0593 C   0  0  0  0  0  0  0  0  0  0  0  0
   -4.8358    0.2883    0.0102 C   0  0  0  0  0  0  0  0  0  0  0  0
   -5.9260    1.1180    0.0009 C   0  0  0  0  0  0  0  0  0  0  0  0
   -6.8435    1.1440    1.0515 C   0  0  0  0  0  0  0  0  0  0  0  0
   -6.6644    0.3221    2.1323 C   0  0  0  0  0  0  0  0  0  0  0  0
   -5.5784   -0.5210    2.1678 C   0  0  0  0  0  0  0  0  0  0  0  0
   -4.6690   -0.5369    1.1110 C   0  0  0  0  0  0  0  0  0  0  0  0
   -1.9657    0.9166    0.3651 N   0  0  0  0  0  0  0  0  0  0  0  0
   -0.6845    0.3306    0.4164 C   0  0  0  0  0  0  0  0  0  0  0  0
    0.0512    0.5775    1.3895 O   0  0  0  0  0  0  0  0  0  0  0  0
   -0.2286   -0.5476   -0.6485 C   0  0  0  0  0  0  0  0  0  0  0  0
    1.1886   -0.4379   -0.9864 C   0  0  0  0  0  0  0  0  0  0  0  0
    1.5126   -0.1989   -2.1758 O   0  0  0  0  0  0  0  0  0  0  0  0
    2.2505   -0.5834   -0.0552 N   0  0  0  0  0  0  0  0  0  0  0  0
    3.6446   -0.4751   -0.3885 C   0  0  0  0  0  0  0  0  0  0  0  0
    4.3217    0.6835    0.2956 C   0  0  0  0  0  0  0  0  0  0  0  0
    5.7348    0.7754   -0.2533 C   0  0  0  0  0  0  0  0  0  0  0  0
    6.5285   -0.3938    0.2861 C   0  0  0  0  0  0  0  0  0  0  0  0
    5.6309   -1.5057    0.7706 C   0  0  0  0  0  0  0  0  0  0  0  0
    4.4293   -1.7110   -0.0888 C   0  0  0  0  0  0  0  0  0  0  0  0
   -2.3603    0.9596   -2.9601 H   0  0  0  0  0  0  0  0  0  0  0  0
   -1.0393    1.8126   -2.1288 H   0  0  0  0  0  0  0  0  0  0  0  0
   -2.9818    2.2107   -0.8889 H   0  0  0  0  0  0  0  0  0  0  0  0
   -4.3266    0.4531   -2.0105 H   0  0  0  0  0  0  0  0  0  0  0  0
   -3.4251   -0.8197   -1.0978 H   0  0  0  0  0  0  0  0  0  0  0  0
   -6.0605    1.7614   -0.8521 H   0  0  0  0  0  0  0  0  0  0  0  0
   -7.7036    1.8071    1.0306 H   0  0  0  0  0  0  0  0  0  0  0  0
   -7.3615    0.3272    2.9537 H   0  0  0  0  0  0  0  0  0  0  0  0
   -5.4551   -1.1639    3.0335 H   0  0  0  0  0  0  0  0  0  0  0  0
   -3.8176   -1.2127    1.1622 H   0  0  0  0  0  0  0  0  0  0  0  0
   -2.4866    1.2235    1.2406 H   0  0  0  0  0  0  0  0  0  0  0  0
   -0.4594   -1.5983   -0.3222 H   0  0  0  0  0  0  0  0  0  0  0  0
    1.9781   -0.7820    0.9321 H   0  0  0  0  0  0  0  0  0  0  0  0
    3.6961   -0.2607   -1.4911 H   0  0  0  0  0  0  0  0  0  0  0  0
    4.3855    0.4273    1.3812 H   0  0  0  0  0  0  0  0  0  0  0  0
    3.7611    1.6060    0.1102 H   0  0  0  0  0  0  0  0  0  0  0  0
    5.6798    0.6810   -1.3551 H   0  0  0  0  0  0  0  0  0  0  0  0
    6.1548    1.7477    0.0025 H   0  0  0  0  0  0  0  0  0  0  0  0
    7.2777   -0.7311   -0.4575 H   0  0  0  0  0  0  0  0  0  0  0  0
    7.0846   -0.0220    1.1759 H   0  0  0  0  0  0  0  0  0  0  0  0
    5.3591   -1.3255    1.8270 H   0  0  0  0  0  0  0  0  0  0  0  0
    6.2341   -2.4335    0.7565 H   0  0  0  0  0  0  0  0  0  0  0  0
    3.7448   -2.4085    0.4635 H   0  0  0  0  0  0  0  0  0  0  0  0
    4.7075   -2.2750   -1.0173 H   0  0  0  0  0  0  0  0  0  0  0  0
  1  2  2  0
  2  3  1  0
  3  4  1  0
  4  5  1  0
  5  6  1  0
  6  7  2  0
  7  8  1  0
  8  9  2  0
  9 10  1  0
 10 11  2  0
  4 12  1  0
 12 13  1  0
 13 14  2  0
 13 15  1  0
 15 16  1  0
 16 17  2  0
 16 18  1  0
 18 19  1  0
 19 20  1  0
 20 21  1  0
 21 22  1  0
 22 23  1  0
 23 24  1  0
 15  2  1  0
 24 19  1  0
 11  6  1  0
  3 25  1  0
  3 26  1  0
  4 27  1  0
  5 28  1  0
  5 29  1  0
  7 30  1  0
  8 31  1  0
  9 32  1  0
 10 33  1  0
 11 34  1  0
 12 35  1  0
 15 36  1  0
 18 37  1  0
 19 38  1  0
 20 39  1  0
 20 40  1  0
 21 41  1  0
 21 42  1  0
 22 43  1  0
 22 44  1  0
 23 45  1  0
 23 46  1  0
 24 47  1  0
 24 48  1  0
M  END
$$$$
