@<TRIPOS>MOLECULE
*****
 74 79 0 0 0
SMALL
GASTEIGER

@<TRIPOS>ATOM
      1 C          -7.6775    2.9757   -0.5391 C.3     1  UNL1       -0.0151
      2 N          -7.4885    3.2437    0.8560 N.3     1  UNL1       -0.3089
      3 C          -6.1159    3.4291    1.2038 C.3     1  UNL1        0.0820
      4 C          -6.0759    3.8366    2.6861 C.3     1  UNL1       -0.0411
      5 C          -5.2978    2.1722    1.0495 C.2     1  UNL1        0.2350
      6 O          -5.8824    1.0821    0.8460 O.2     1  UNL1       -0.2737
      7 N          -3.9004    2.2215    1.1280 N.am    1  UNL1       -0.2691
      8 C          -3.0273    1.1132    1.0106 C.ar    1  UNL1        0.1263
      9 C          -3.3463   -0.2068    1.0760 C.ar    1  UNL1       -0.0208
     10 C          -2.4161   -1.2407    0.8669 C.ar    1  UNL1       -0.0466
     11 C          -1.0858   -0.8990    0.5734 C.ar    1  UNL1        0.0349
     12 C          -0.1153   -1.9618    0.3201 C.ar    1  UNL1        0.0837
     13 C          -0.2338   -2.8999   -0.7246 C.ar    1  UNL1        0.0994
     14 C          -1.3845   -2.9068   -1.6504 C.ar    1  UNL1        0.0235
     15 C          -1.7149   -1.8584   -2.4633 C.ar    1  UNL1       -0.0494
     16 C          -2.8122   -1.9628   -3.2771 C.ar    1  UNL1       -0.0430
     17 C          -3.5943   -3.1039   -3.2947 C.ar    1  UNL1        0.0279
     18 N          -3.2410   -4.1101   -2.4864 N.ar    1  UNL1       -0.2595
     19 C          -2.1678   -4.0424   -1.6727 C.ar    1  UNL1        0.0474
     20 C          -1.8242   -5.2215   -0.7973 C.3     1  UNL1       -0.0217
     21 N           0.8231   -3.6823   -0.6467 N.ar    1  UNL1       -0.2271
     22 C           1.5838   -3.2740    0.3909 C.ar    1  UNL1        0.1390
     23 C           2.7768   -3.8210    0.8228 C.ar    1  UNL1       -0.0158
     24 C           3.4090   -3.2407    1.9329 C.ar    1  UNL1       -0.0456
     25 C           4.6870   -3.8427    2.3825 C.3     1  UNL1       -0.0395
     26 C           2.7964   -2.1751    2.5064 C.ar    1  UNL1       -0.0421
     27 C           1.5951   -1.6166    2.0791 C.ar    1  UNL1        0.0120
     28 N           1.0182   -2.2224    0.9900 N.ar    1  UNL1       -0.2986
     29 C          -0.8224    0.4218    0.5207 C.ar    1  UNL1        0.1250
     30 C           0.5580    0.8459    0.1521 C.1     1  UNL1       -0.0404
     31 C           1.6307    1.1554   -0.1265 C.1     1  UNL1       -0.0595
     32 C           2.9819    1.5227   -0.4676 C.ar    1  UNL1        0.0259
     33 C           3.3636    1.4119   -1.7883 C.ar    1  UNL1       -0.0457
     34 C           4.6291    1.7510   -2.1703 C.ar    1  UNL1       -0.0512
     35 C           5.5354    2.2069   -1.2471 C.ar    1  UNL1        0.0032
     36 C           6.8381    2.5621   -1.6107 C.ar    1  UNL1        0.0459
     37 C           7.1954    2.4274   -3.0424 C.3     1  UNL1       -0.0218
     38 N           7.7049    3.0061   -0.6803 N.ar    1  UNL1       -0.2595
     39 C           7.3769    3.1267    0.5983 C.ar    1  UNL1        0.0285
     40 C           6.1037    2.7893    1.0129 C.ar    1  UNL1       -0.0358
     41 C           5.2013    2.3345    0.0833 C.ar    1  UNL1       -0.0136
     42 C           3.9145    1.9817    0.4319 C.ar    1  UNL1       -0.0385
     43 N          -1.7146    1.4031    0.7235 N.ar    1  UNL1       -0.2229
     44 H          -7.4890    3.9022   -1.1553 H       1  UNL1        0.0388
     45 H          -8.6947    2.6215   -0.7688 H       1  UNL1        0.0388
     46 H          -6.9294    2.2376   -0.8631 H       1  UNL1        0.0388
     47 H          -8.0687    2.7229    1.5056 H       1  UNL1        0.1223
     48 H          -5.6813    4.2532    0.6434 H       1  UNL1        0.0554
     49 H          -6.0294    2.9228    3.3084 H       1  UNL1        0.0249
     50 H          -6.9956    4.4238    2.9356 H       1  UNL1        0.0249
     51 H          -5.2095    4.4861    2.8893 H       1  UNL1        0.0249
     52 H          -3.4877    3.2049    1.2896 H       1  UNL1        0.1563
     53 H          -4.3418   -0.4886    1.3014 H       1  UNL1        0.0652
     54 H          -2.6626   -2.2695    0.9219 H       1  UNL1        0.0626
     55 H          -1.1064   -0.9637   -2.4528 H       1  UNL1        0.0625
     56 H          -3.1248   -1.1609   -3.9425 H       1  UNL1        0.0633
     57 H          -4.4754   -3.1760   -3.9493 H       1  UNL1        0.0829
     58 H          -1.2079   -5.9674   -1.3481 H       1  UNL1        0.0293
     59 H          -1.2172   -4.8843    0.0729 H       1  UNL1        0.0293
     60 H          -2.7680   -5.6953   -0.4771 H       1  UNL1        0.0293
     61 H           3.2008   -4.6654    0.3184 H       1  UNL1        0.0657
     62 H           4.8525   -4.8211    1.8746 H       1  UNL1        0.0278
     63 H           4.6894   -4.0872    3.4762 H       1  UNL1        0.0278
     64 H           5.5681   -3.2066    2.1106 H       1  UNL1        0.0278
     65 H           3.2690   -1.7105    3.3702 H       1  UNL1        0.0635
     66 H           1.1096   -0.7853    2.5198 H       1  UNL1        0.0813
     67 H           2.6677    1.0582   -2.5232 H       1  UNL1        0.0630
     68 H           4.9912    1.6798   -3.2062 H       1  UNL1        0.0625
     69 H           7.1546    1.3486   -3.3417 H       1  UNL1        0.0293
     70 H           8.1944    2.8419   -3.2705 H       1  UNL1        0.0293
     71 H           6.4671    3.0005   -3.6827 H       1  UNL1        0.0293
     72 H           8.0642    3.4853    1.3643 H       1  UNL1        0.0830
     73 H           5.8360    2.8840    2.0303 H       1  UNL1        0.0639
     74 H           3.6410    2.0773    1.4909 H       1  UNL1        0.0636
@<TRIPOS>BOND
     1     1     2    1
     2     2     3    1
     3     3     4    1
     4     3     5    1
     5     5     6    2
     6     5     7   am
     7     7     8    1
     8     8     9   ar
     9     9    10   ar
    10    10    11   ar
    11    11    12    1
    12    12    13   ar
    13    13    14    1
    14    14    15   ar
    15    15    16   ar
    16    16    17   ar
    17    17    18   ar
    18    18    19   ar
    19    19    20    1
    20    13    21   ar
    21    21    22   ar
    22    22    23   ar
    23    23    24   ar
    24    24    25    1
    25    24    26   ar
    26    26    27   ar
    27    27    28   ar
    28    11    29   ar
    29    29    30    1
    30    30    31    3
    31    31    32    1
    32    32    33   ar
    33    33    34   ar
    34    34    35   ar
    35    35    36   ar
    36    36    37    1
    37    36    38   ar
    38    38    39   ar
    39    39    40   ar
    40    40    41   ar
    41    41    42   ar
    42    29    43   ar
    43    43     8   ar
    44    28    12   ar
    45    42    32   ar
    46    19    14   ar
    47    28    22   ar
    48    41    35   ar
    49     1    44    1
    50     1    45    1
    51     1    46    1
    52     2    47    1
    53     3    48    1
    54     4    49    1
    55     4    50    1
    56     4    51    1
    57     7    52    1
    58     9    53    1
    59    10    54    1
    60    15    55    1
    61    16    56    1
    62    17    57    1
    63    20    58    1
    64    20    59    1
    65    20    60    1
    66    23    61    1
    67    25    62    1
    68    25    63    1
    69    25    64    1
    70    26    65    1
    71    27    66    1
    72    33    67    1
    73    34    68    1
    74    37    69    1
    75    37    70    1
    76    37    71    1
    77    39    72    1
    78    40    73    1
    79    42    74    1
