
     RDKit          3D

 51 54  0  0  0  0  0  0  0  0999 V2000
    2.0612   -3.0006    0.7684 C   0  0  0  0  0  0  0  0  0  0  0  0
    3.2160   -2.1199    0.3437 C   0  0  0  0  0  0  0  0  0  0  0  0
    2.8539   -0.6652    0.6725 C   0  0  2  0  0  0  0  0  0  0  0  0
    1.6504   -0.3354   -0.0647 N   0  0  0  0  0  0  0  0  0  0  0  0
    0.4721   -0.0684    0.6559 C   0  0  0  0  0  0  0  0  0  0  0  0
    0.5110   -0.1506    1.9429 O   0  0  0  0  0  0  0  0  0  0  0  0
   -0.7857    0.2830    0.0680 C   0  0  0  0  0  0  0  0  0  0  0  0
   -1.9258   -0.3217    0.5728 C   0  0  0  0  0  0  0  0  0  0  0  0
   -1.8814   -1.2548    1.6055 O   0  0  0  0  0  0  0  0  0  0  0  0
   -3.1500   -0.0068    0.0541 C   0  0  0  0  0  0  0  0  0  0  0  0
   -4.4064   -0.6001    0.5290 C   0  0  0  0  0  0  0  0  0  0  0  0
   -5.5168    0.1899    0.7586 C   0  0  0  0  0  0  0  0  0  0  0  0
   -6.7212   -0.3371    1.2078 C   0  0  0  0  0  0  0  0  0  0  0  0
   -6.8386   -1.6925    1.4402 C   0  0  0  0  0  0  0  0  0  0  0  0
   -5.7403   -2.4969    1.2165 C   0  0  0  0  0  0  0  0  0  0  0  0
   -4.5412   -1.9525    0.7664 C   0  0  0  0  0  0  0  0  0  0  0  0
   -3.2216    0.8926   -0.9444 N   0  0  0  0  0  0  0  0  0  0  0  0
   -2.1712    1.5110   -1.4733 C   0  0  0  0  0  0  0  0  0  0  0  0
   -2.3494    2.4387   -2.4741 C   0  0  0  0  0  0  0  0  0  0  0  0
   -1.2774    3.1079   -3.0054 C   0  0  0  0  0  0  0  0  0  0  0  0
   -0.0316    2.8237   -2.5083 C   0  0  0  0  0  0  0  0  0  0  0  0
    0.1469    1.8790   -1.4908 C   0  0  0  0  0  0  0  0  0  0  0  0
   -0.9098    1.1927   -0.9443 C   0  0  0  0  0  0  0  0  0  0  0  0
    3.9988    0.1640    0.2935 C   0  0  0  0  0  0  0  0  0  0  0  0
    4.8018    0.6973    1.2770 C   0  0  0  0  0  0  0  0  0  0  0  0
    5.8888    1.4832    0.9630 C   0  0  0  0  0  0  0  0  0  0  0  0
    6.2081    1.7616   -0.3482 C   0  0  0  0  0  0  0  0  0  0  0  0
    5.4002    1.2245   -1.3192 C   0  0  0  0  0  0  0  0  0  0  0  0
    4.3092    0.4362   -1.0198 C   0  0  0  0  0  0  0  0  0  0  0  0
    2.0359   -3.9289    0.1453 H   0  0  0  0  0  0  0  0  0  0  0  0
    1.1096   -2.4715    0.5946 H   0  0  0  0  0  0  0  0  0  0  0  0
    2.1834   -3.2527    1.8514 H   0  0  0  0  0  0  0  0  0  0  0  0
    4.1189   -2.4073    0.9186 H   0  0  0  0  0  0  0  0  0  0  0  0
    3.4280   -2.2382   -0.7288 H   0  0  0  0  0  0  0  0  0  0  0  0
    2.6335   -0.6510    1.7462 H   0  0  0  0  0  0  0  0  0  0  0  0
    1.7059   -0.3491   -1.1209 H   0  0  0  0  0  0  0  0  0  0  0  0
   -1.8130   -0.9589    2.5834 H   0  0  0  0  0  0  0  0  0  0  0  0
   -5.3949    1.2567    0.5665 H   0  0  0  0  0  0  0  0  0  0  0  0
   -7.5678    0.3178    1.3752 H   0  0  0  0  0  0  0  0  0  0  0  0
   -7.7784   -2.0754    1.7866 H   0  0  0  0  0  0  0  0  0  0  0  0
   -5.8635   -3.5544    1.4076 H   0  0  0  0  0  0  0  0  0  0  0  0
   -3.6917   -2.5976    0.5967 H   0  0  0  0  0  0  0  0  0  0  0  0
   -3.3321    2.6679   -2.8703 H   0  0  0  0  0  0  0  0  0  0  0  0
   -1.3564    3.8395   -3.7859 H   0  0  0  0  0  0  0  0  0  0  0  0
    0.8468    3.3150   -2.8818 H   0  0  0  0  0  0  0  0  0  0  0  0
    1.1274    1.7193   -1.1097 H   0  0  0  0  0  0  0  0  0  0  0  0
    4.6068    0.5168    2.3440 H   0  0  0  0  0  0  0  0  0  0  0  0
    6.4987    1.8856    1.7762 H   0  0  0  0  0  0  0  0  0  0  0  0
    7.0562    2.3735   -0.5571 H   0  0  0  0  0  0  0  0  0  0  0  0
    5.6737    1.4595   -2.3526 H   0  0  0  0  0  0  0  0  0  0  0  0
    3.7229    0.0504   -1.8286 H   0  0  0  0  0  0  0  0  0  0  0  0
  1  2  1  0
  2  3  1  0
  3  4  1  0
  4  5  1  0
  5  6  2  0
  5  7  1  0
  7  8  2  0
  8  9  1  0
  8 10  1  0
 10 11  1  0
 11 12  2  0
 12 13  1  0
 13 14  2  0
 14 15  1  0
 15 16  2  0
 10 17  2  0
 17 18  1  0
 18 19  2  0
 19 20  1  0
 20 21  2  0
 21 22  1  0
 22 23  2  0
  3 24  1  0
 24 25  2  0
 25 26  1  0
 26 27  2  0
 27 28  1  0
 28 29  2  0
 23  7  1  0
 29 24  1  0
 16 11  1  0
 23 18  1  0
  1 30  1  0
  1 31  1  0
  1 32  1  0
  2 33  1  0
  2 34  1  0
  3 35  1  1
  4 36  1  0
  9 37  1  0
 12 38  1  0
 13 39  1  0
 14 40  1  0
 15 41  1  0
 16 42  1  0
 19 43  1  0
 20 44  1  0
 21 45  1  0
 22 46  1  0
 25 47  1  0
 26 48  1  0
 27 49  1  0
 28 50  1  0
 29 51  1  0
M  END
$$$$
