@<TRIPOS>MOLECULE
*****
 51 54 0 0 0
SMALL
GASTEIGER

@<TRIPOS>ATOM
      1 C           2.0612   -3.0006    0.7684 C.3     1  UNL1       -0.0633
      2 C           3.2160   -2.1199    0.3437 C.3     1  UNL1       -0.0332
      3 C           2.8539   -0.6652    0.6725 C.3     1  UNL1        0.0484
      4 N           1.6504   -0.3354   -0.0647 N.am    1  UNL1       -0.3044
      5 C           0.4721   -0.0684    0.6559 C.2     1  UNL1        0.2488
      6 O           0.5110   -0.1506    1.9429 O.2     1  UNL1       -0.2700
      7 C          -0.7857    0.2830    0.0680 C.ar    1  UNL1        0.0893
      8 C          -1.9258   -0.3217    0.5728 C.ar    1  UNL1        0.1554
      9 O          -1.8814   -1.2548    1.6055 O.3     1  UNL1       -0.5039
     10 C          -3.1500   -0.0068    0.0541 C.ar    1  UNL1        0.1137
     11 C          -4.4064   -0.6001    0.5290 C.ar    1  UNL1        0.0040
     12 C          -5.5168    0.1899    0.7586 C.ar    1  UNL1       -0.0524
     13 C          -6.7212   -0.3371    1.2078 C.ar    1  UNL1       -0.0611
     14 C          -6.8386   -1.6925    1.4402 C.ar    1  UNL1       -0.0617
     15 C          -5.7403   -2.4969    1.2165 C.ar    1  UNL1       -0.0611
     16 C          -4.5412   -1.9525    0.7664 C.ar    1  UNL1       -0.0524
     17 N          -3.2216    0.8926   -0.9444 N.ar    1  UNL1       -0.2430
     18 C          -2.1712    1.5110   -1.4733 C.ar    1  UNL1        0.0726
     19 C          -2.3494    2.4387   -2.4741 C.ar    1  UNL1       -0.0357
     20 C          -1.2774    3.1079   -3.0054 C.ar    1  UNL1       -0.0597
     21 C          -0.0316    2.8237   -2.5083 C.ar    1  UNL1       -0.0611
     22 C           0.1469    1.8790   -1.4908 C.ar    1  UNL1       -0.0517
     23 C          -0.9098    1.1927   -0.9443 C.ar    1  UNL1        0.0161
     24 C           3.9988    0.1640    0.2935 C.ar    1  UNL1       -0.0272
     25 C           4.8018    0.6973    1.2770 C.ar    1  UNL1       -0.0568
     26 C           5.8888    1.4832    0.9630 C.ar    1  UNL1       -0.0614
     27 C           6.2081    1.7616   -0.3482 C.ar    1  UNL1       -0.0617
     28 C           5.4002    1.2245   -1.3192 C.ar    1  UNL1       -0.0614
     29 C           4.3092    0.4362   -1.0198 C.ar    1  UNL1       -0.0568
     30 H           2.0359   -3.9289    0.1453 H       1  UNL1        0.0230
     31 H           1.1096   -2.4715    0.5946 H       1  UNL1        0.0230
     32 H           2.1834   -3.2527    1.8514 H       1  UNL1        0.0230
     33 H           4.1189   -2.4073    0.9186 H       1  UNL1        0.0284
     34 H           3.4280   -2.2382   -0.7288 H       1  UNL1        0.0284
     35 H           2.6335   -0.6510    1.7462 H       1  UNL1        0.0548
     36 H           1.7059   -0.3491   -1.1209 H       1  UNL1        0.1496
     37 H          -1.8130   -0.9589    2.5834 H       1  UNL1        0.2923
     38 H          -5.3949    1.2567    0.5665 H       1  UNL1        0.0624
     39 H          -7.5678    0.3178    1.3752 H       1  UNL1        0.0618
     40 H          -7.7784   -2.0754    1.7866 H       1  UNL1        0.0618
     41 H          -5.8635   -3.5544    1.4076 H       1  UNL1        0.0618
     42 H          -3.6917   -2.5976    0.5967 H       1  UNL1        0.0624
     43 H          -3.3321    2.6679   -2.8703 H       1  UNL1        0.0639
     44 H          -1.3564    3.8395   -3.7859 H       1  UNL1        0.0618
     45 H           0.8468    3.3150   -2.8818 H       1  UNL1        0.0618
     46 H           1.1274    1.7193   -1.1097 H       1  UNL1        0.0624
     47 H           4.6068    0.5168    2.3440 H       1  UNL1        0.0621
     48 H           6.4987    1.8856    1.7762 H       1  UNL1        0.0618
     49 H           7.0562    2.3735   -0.5571 H       1  UNL1        0.0618
     50 H           5.6737    1.4595   -2.3526 H       1  UNL1        0.0618
     51 H           3.7229    0.0504   -1.8286 H       1  UNL1        0.0621
@<TRIPOS>BOND
     1     1     2    1
     2     2     3    1
     3     3     4    1
     4     4     5   am
     5     5     6    2
     6     5     7    1
     7     7     8   ar
     8     8     9    1
     9     8    10   ar
    10    10    11    1
    11    11    12   ar
    12    12    13   ar
    13    13    14   ar
    14    14    15   ar
    15    15    16   ar
    16    10    17   ar
    17    17    18   ar
    18    18    19   ar
    19    19    20   ar
    20    20    21   ar
    21    21    22   ar
    22    22    23   ar
    23     3    24    1
    24    24    25   ar
    25    25    26   ar
    26    26    27   ar
    27    27    28   ar
    28    28    29   ar
    29    23     7   ar
    30    29    24   ar
    31    16    11   ar
    32    23    18   ar
    33     1    30    1
    34     1    31    1
    35     1    32    1
    36     2    33    1
    37     2    34    1
    38     3    35    1
    39     4    36    1
    40     9    37    1
    41    12    38    1
    42    13    39    1
    43    14    40    1
    44    15    41    1
    45    16    42    1
    46    19    43    1
    47    20    44    1
    48    21    45    1
    49    22    46    1
    50    25    47    1
    51    26    48    1
    52    27    49    1
    53    28    50    1
    54    29    51    1
