@<TRIPOS>MOLECULE
*****
 60 64 0 0 0
SMALL
GASTEIGER

@<TRIPOS>ATOM
      1 C           2.6235    3.0137    1.9191 C.3     1  UNL1       -0.0259
      2 C           1.6527    2.6585    0.8251 C.2     1  UNL1        0.0191
      3 C           1.9037    1.6962   -0.0140 C.2     1  UNL1        0.0559
      4 C           3.0926    0.8580   -0.0642 C.2     1  UNL1        0.2478
      5 O           3.0241   -0.0131   -1.0170 O.2     1  UNL1       -0.2701
      6 N           4.2474    0.8116    0.6830 N.am    1  UNL1       -0.2816
      7 C           5.3661   -0.0878    0.5323 C.ar    1  UNL1        0.0344
      8 C           6.4662    0.0538    1.3819 C.ar    1  UNL1       -0.0384
      9 C           7.5432   -0.7896    1.2675 C.ar    1  UNL1       -0.0345
     10 C           7.6018   -1.7991    0.3329 C.ar    1  UNL1        0.0658
     11 N           8.5043   -2.7370    0.0153 N.ar    1  UNL1       -0.2770
     12 N           8.0533   -3.4800   -0.9920 N.ar    1  UNL1       -0.1812
     13 C           6.8399   -3.0005   -1.3172 C.ar    1  UNL1        0.0569
     14 C           6.5219   -1.9448   -0.5073 C.ar    1  UNL1        0.0212
     15 C           5.4179   -1.0857   -0.3954 C.ar    1  UNL1       -0.0298
     16 C           0.7805    1.2749   -0.9480 C.3     1  UNL1        0.0815
     17 C          -0.1088    0.3100   -0.2320 C.ar    1  UNL1       -0.0217
     18 C           0.2359   -0.2930    0.9376 C.ar    1  UNL1       -0.0537
     19 C          -0.6545   -1.1699    1.5246 C.ar    1  UNL1       -0.0254
     20 C          -1.8907   -1.4318    0.9234 C.ar    1  UNL1        0.1355
     21 F          -2.6947   -2.2892    1.5669 F       1  UNL1       -0.2047
     22 C          -2.2557   -0.8430   -0.2418 C.ar    1  UNL1        0.0721
     23 C          -3.5045   -1.0882   -0.8990 C.2     1  UNL1        0.2471
     24 O          -3.7732   -0.3353   -1.9142 O.2     1  UNL1       -0.2701
     25 N          -4.4695   -2.0422   -0.5791 N.am    1  UNL1       -0.3072
     26 C          -5.6939   -2.1563   -1.3409 C.3     1  UNL1        0.0372
     27 C          -6.6415   -1.0942   -0.8917 C.ar    1  UNL1       -0.0276
     28 C          -7.4183   -1.3132    0.2505 C.ar    1  UNL1       -0.0569
     29 C          -8.3085   -0.3731    0.6774 C.ar    1  UNL1       -0.0587
     30 C          -8.4850    0.8304    0.0085 C.ar    1  UNL1       -0.0264
     31 C          -7.7221    1.0557   -1.1218 C.ar    1  UNL1        0.1237
     32 F          -7.8856    2.2353   -1.7891 F       1  UNL1       -0.2055
     33 C          -6.8246    0.0959   -1.5439 C.ar    1  UNL1       -0.0218
     34 C          -1.3285    0.0382   -0.8058 C.ar    1  UNL1       -0.0416
     35 N           0.0070    2.3562   -1.3732 N.am    1  UNL1       -0.2881
     36 C          -0.3054    3.3940   -0.4545 C.2     1  UNL1        0.3043
     37 O          -1.3136    4.1190   -0.6813 O.2     1  UNL1       -0.2525
     38 N           0.5300    3.5598    0.6654 N.am    1  UNL1       -0.2729
     39 H           2.1001    3.8259    2.5338 H       1  UNL1        0.0290
     40 H           2.7802    2.1708    2.5738 H       1  UNL1        0.0290
     41 H           3.5505    3.4332    1.5205 H       1  UNL1        0.0290
     42 H           4.3987    1.4870    1.4626 H       1  UNL1        0.1551
     43 H           6.4774    0.8305    2.1372 H       1  UNL1        0.0637
     44 H           8.4155   -0.6923    1.9261 H       1  UNL1        0.0639
     45 H           9.4135   -2.8594    0.4868 H       1  UNL1        0.1889
     46 H           6.2280   -3.4056   -2.1036 H       1  UNL1        0.0854
     47 H           4.6370   -1.2989   -1.1036 H       1  UNL1        0.0643
     48 H           1.2383    0.6747   -1.7715 H       1  UNL1        0.0601
     49 H           1.2028   -0.0588    1.3655 H       1  UNL1        0.0622
     50 H          -0.4097   -1.6530    2.4366 H       1  UNL1        0.0646
     51 H          -4.3032   -2.6959    0.2284 H       1  UNL1        0.1493
     52 H          -6.1234   -3.1604   -1.2097 H       1  UNL1        0.0512
     53 H          -5.4564   -1.9276   -2.4062 H       1  UNL1        0.0512
     54 H          -7.2880   -2.2444    0.7763 H       1  UNL1        0.0621
     55 H          -8.9297   -0.5257    1.5732 H       1  UNL1        0.0619
     56 H          -9.2015    1.5456    0.3839 H       1  UNL1        0.0646
     57 H          -6.2777    0.3252   -2.4325 H       1  UNL1        0.0649
     58 H          -1.5956    0.5322   -1.7528 H       1  UNL1        0.0629
     59 H          -0.3367    2.3935   -2.3736 H       1  UNL1        0.1512
     60 H           0.3465    4.3091    1.3610 H       1  UNL1        0.1561
@<TRIPOS>BOND
     1     1     2    1
     2     2     3    2
     3     3     4    1
     4     4     5    2
     5     4     6   am
     6     6     7    1
     7     7     8   ar
     8     8     9   ar
     9     9    10   ar
    10    10    11   ar
    11    11    12   ar
    12    12    13   ar
    13    13    14   ar
    14    14    15   ar
    15     3    16    1
    16    16    17    1
    17    17    18   ar
    18    18    19   ar
    19    19    20   ar
    20    20    21    1
    21    20    22   ar
    22    22    23    1
    23    23    24    2
    24    23    25   am
    25    25    26    1
    26    26    27    1
    27    27    28   ar
    28    28    29   ar
    29    29    30   ar
    30    30    31   ar
    31    31    32    1
    32    31    33   ar
    33    22    34   ar
    34    16    35    1
    35    35    36   am
    36    36    37    2
    37    36    38   am
    38    38     2    1
    39    15     7   ar
    40    34    17   ar
    41    14    10   ar
    42    33    27   ar
    43     1    39    1
    44     1    40    1
    45     1    41    1
    46     6    42    1
    47     8    43    1
    48     9    44    1
    49    11    45    1
    50    13    46    1
    51    15    47    1
    52    16    48    1
    53    18    49    1
    54    19    50    1
    55    25    51    1
    56    26    52    1
    57    26    53    1
    58    28    54    1
    59    29    55    1
    60    30    56    1
    61    33    57    1
    62    34    58    1
    63    35    59    1
    64    38    60    1
