
     RDKit          3D

 60 64  0  0  0  0  0  0  0  0999 V2000
    2.6235    3.0137    1.9191 C   0  0  0  0  0  0  0  0  0  0  0  0
    1.6527    2.6585    0.8251 C   0  0  0  0  0  0  0  0  0  0  0  0
    1.9037    1.6962   -0.0140 C   0  0  0  0  0  0  0  0  0  0  0  0
    3.0926    0.8580   -0.0642 C   0  0  0  0  0  0  0  0  0  0  0  0
    3.0241   -0.0131   -1.0170 O   0  0  0  0  0  0  0  0  0  0  0  0
    4.2474    0.8116    0.6830 N   0  0  0  0  0  0  0  0  0  0  0  0
    5.3661   -0.0878    0.5323 C   0  0  0  0  0  0  0  0  0  0  0  0
    6.4662    0.0538    1.3819 C   0  0  0  0  0  0  0  0  0  0  0  0
    7.5432   -0.7896    1.2675 C   0  0  0  0  0  0  0  0  0  0  0  0
    7.6018   -1.7991    0.3329 C   0  0  0  0  0  0  0  0  0  0  0  0
    8.5043   -2.7370    0.0153 N   0  0  0  0  0  0  0  0  0  0  0  0
    8.0533   -3.4800   -0.9920 N   0  0  0  0  0  0  0  0  0  0  0  0
    6.8399   -3.0005   -1.3172 C   0  0  0  0  0  0  0  0  0  0  0  0
    6.5219   -1.9448   -0.5073 C   0  0  0  0  0  0  0  0  0  0  0  0
    5.4179   -1.0857   -0.3954 C   0  0  0  0  0  0  0  0  0  0  0  0
    0.7805    1.2749   -0.9480 C   0  0  0  0  0  0  0  0  0  0  0  0
   -0.1088    0.3100   -0.2320 C   0  0  0  0  0  0  0  0  0  0  0  0
    0.2359   -0.2930    0.9376 C   0  0  0  0  0  0  0  0  0  0  0  0
   -0.6545   -1.1699    1.5246 C   0  0  0  0  0  0  0  0  0  0  0  0
   -1.8907   -1.4318    0.9234 C   0  0  0  0  0  0  0  0  0  0  0  0
   -2.6947   -2.2892    1.5669 F   0  0  0  0  0  0  0  0  0  0  0  0
   -2.2557   -0.8430   -0.2418 C   0  0  0  0  0  0  0  0  0  0  0  0
   -3.5045   -1.0882   -0.8990 C   0  0  0  0  0  0  0  0  0  0  0  0
   -3.7732   -0.3353   -1.9142 O   0  0  0  0  0  0  0  0  0  0  0  0
   -4.4695   -2.0422   -0.5791 N   0  0  0  0  0  0  0  0  0  0  0  0
   -5.6939   -2.1563   -1.3409 C   0  0  0  0  0  0  0  0  0  0  0  0
   -6.6415   -1.0942   -0.8917 C   0  0  0  0  0  0  0  0  0  0  0  0
   -7.4183   -1.3132    0.2505 C   0  0  0  0  0  0  0  0  0  0  0  0
   -8.3085   -0.3731    0.6774 C   0  0  0  0  0  0  0  0  0  0  0  0
   -8.4850    0.8304    0.0085 C   0  0  0  0  0  0  0  0  0  0  0  0
   -7.7221    1.0557   -1.1218 C   0  0  0  0  0  0  0  0  0  0  0  0
   -7.8856    2.2353   -1.7891 F   0  0  0  0  0  0  0  0  0  0  0  0
   -6.8246    0.0959   -1.5439 C   0  0  0  0  0  0  0  0  0  0  0  0
   -1.3285    0.0382   -0.8058 C   0  0  0  0  0  0  0  0  0  0  0  0
    0.0070    2.3562   -1.3732 N   0  0  0  0  0  0  0  0  0  0  0  0
   -0.3054    3.3940   -0.4545 C   0  0  0  0  0  0  0  0  0  0  0  0
   -1.3136    4.1190   -0.6813 O   0  0  0  0  0  0  0  0  0  0  0  0
    0.5300    3.5598    0.6654 N   0  0  0  0  0  0  0  0  0  0  0  0
    2.1001    3.8259    2.5338 H   0  0  0  0  0  0  0  0  0  0  0  0
    2.7802    2.1708    2.5738 H   0  0  0  0  0  0  0  0  0  0  0  0
    3.5505    3.4332    1.5205 H   0  0  0  0  0  0  0  0  0  0  0  0
    4.3987    1.4870    1.4626 H   0  0  0  0  0  0  0  0  0  0  0  0
    6.4774    0.8305    2.1372 H   0  0  0  0  0  0  0  0  0  0  0  0
    8.4155   -0.6923    1.9261 H   0  0  0  0  0  0  0  0  0  0  0  0
    9.4135   -2.8594    0.4868 H   0  0  0  0  0  0  0  0  0  0  0  0
    6.2280   -3.4056   -2.1036 H   0  0  0  0  0  0  0  0  0  0  0  0
    4.6370   -1.2989   -1.1036 H   0  0  0  0  0  0  0  0  0  0  0  0
    1.2383    0.6747   -1.7715 H   0  0  0  0  0  0  0  0  0  0  0  0
    1.2028   -0.0588    1.3655 H   0  0  0  0  0  0  0  0  0  0  0  0
   -0.4097   -1.6530    2.4366 H   0  0  0  0  0  0  0  0  0  0  0  0
   -4.3032   -2.6959    0.2284 H   0  0  0  0  0  0  0  0  0  0  0  0
   -6.1234   -3.1604   -1.2097 H   0  0  0  0  0  0  0  0  0  0  0  0
   -5.4564   -1.9276   -2.4062 H   0  0  0  0  0  0  0  0  0  0  0  0
   -7.2880   -2.2444    0.7763 H   0  0  0  0  0  0  0  0  0  0  0  0
   -8.9297   -0.5257    1.5732 H   0  0  0  0  0  0  0  0  0  0  0  0
   -9.2015    1.5456    0.3839 H   0  0  0  0  0  0  0  0  0  0  0  0
   -6.2777    0.3252   -2.4325 H   0  0  0  0  0  0  0  0  0  0  0  0
   -1.5956    0.5322   -1.7528 H   0  0  0  0  0  0  0  0  0  0  0  0
   -0.3367    2.3935   -2.3736 H   0  0  0  0  0  0  0  0  0  0  0  0
    0.3465    4.3091    1.3610 H   0  0  0  0  0  0  0  0  0  0  0  0
  1  2  1  0
  2  3  2  0
  3  4  1  0
  4  5  2  0
  4  6  1  0
  6  7  1  0
  7  8  2  0
  8  9  1  0
  9 10  2  0
 10 11  1  0
 11 12  1  0
 12 13  2  0
 13 14  1  0
 14 15  2  0
  3 16  1  0
 16 17  1  0
 17 18  2  0
 18 19  1  0
 19 20  2  0
 20 21  1  0
 20 22  1  0
 22 23  1  0
 23 24  2  0
 23 25  1  0
 25 26  1  0
 26 27  1  0
 27 28  2  0
 28 29  1  0
 29 30  2  0
 30 31  1  0
 31 32  1  0
 31 33  2  0
 22 34  2  0
 16 35  1  0
 35 36  1  0
 36 37  2  0
 36 38  1  0
 38  2  1  0
 15  7  1  0
 34 17  1  0
 14 10  1  0
 33 27  1  0
  1 39  1  0
  1 40  1  0
  1 41  1  0
  6 42  1  0
  8 43  1  0
  9 44  1  0
 11 45  1  0
 13 46  1  0
 15 47  1  0
 16 48  1  0
 18 49  1  0
 19 50  1  0
 25 51  1  0
 26 52  1  0
 26 53  1  0
 28 54  1  0
 29 55  1  0
 30 56  1  0
 33 57  1  0
 34 58  1  0
 35 59  1  0
 38 60  1  0
M  END
$$$$
