@<TRIPOS>MOLECULE
*****
 59 61 0 0 0
SMALL
GASTEIGER

@<TRIPOS>ATOM
      1 C          -8.3525    1.2463    0.3808 C.3     1  UNL1       -0.0524
      2 C          -7.3458    0.2792    1.0390 C.3     1  UNL1       -0.0042
      3 N          -6.9653   -0.6567    0.1056 N.3     1  UNL1       -0.3056
      4 C          -7.9861   -1.6020   -0.3000 C.3     1  UNL1       -0.0128
      5 C          -5.6928   -0.9171   -0.3670 C.3     1  UNL1       -0.0010
      6 C          -5.0983    0.1217   -1.2436 C.3     1  UNL1       -0.0332
      7 C          -4.7887    1.4512   -0.6584 C.3     1  UNL1        0.0116
      8 C          -3.7705    1.3518    0.4294 C.2     1  UNL1        0.1632
      9 O          -4.0768    1.4057    1.6604 O.2     1  UNL1       -0.2921
     10 C          -2.3471    1.1800    0.1581 C.ar    1  UNL1        0.0176
     11 C          -1.8689    1.2074   -1.1335 C.ar    1  UNL1       -0.0478
     12 C          -0.5360    1.0001   -1.3846 C.ar    1  UNL1       -0.0192
     13 C           0.3887    0.7543   -0.3783 C.ar    1  UNL1        0.1216
     14 O           1.7158    0.5503   -0.6769 O.3     1  UNL1       -0.4807
     15 C           2.7367    0.2153    0.1916 C.3     1  UNL1        0.1661
     16 C           3.8713    1.1860    0.2753 C.3     1  UNL1        0.0177
     17 C           5.1208    0.3796    0.2916 C.ar    1  UNL1       -0.0292
     18 C           6.4302    0.8093    0.5295 C.ar    1  UNL1       -0.0123
     19 C           7.4522   -0.1060    0.4999 C.ar    1  UNL1        0.1618
     20 O           8.7755    0.1863    0.7161 O.3     1  UNL1       -0.4914
     21 C           9.3349    1.4328    1.0046 C.3     1  UNL1        0.0790
     22 C           7.1356   -1.4481    0.2300 C.ar    1  UNL1        0.1622
     23 O           8.1570   -2.3922    0.1945 O.3     1  UNL1       -0.4914
     24 C           7.8543   -3.7395   -0.0783 C.3     1  UNL1        0.0790
     25 C           5.8516   -1.8646   -0.0026 C.ar    1  UNL1       -0.0054
     26 C           4.8089   -0.9190    0.0291 C.ar    1  UNL1        0.0282
     27 C           3.3813   -1.0753   -0.1715 C.2     1  UNL1        0.2040
     28 O           2.8065   -2.1066   -0.5754 O.2     1  UNL1       -0.2881
     29 C          -0.1015    0.7304    0.9109 C.ar    1  UNL1       -0.0192
     30 C          -1.4587    0.9414    1.1804 C.ar    1  UNL1       -0.0478
     31 H          -8.2799    1.2094   -0.7238 H       1  UNL1        0.0242
     32 H          -9.3917    0.8873    0.6177 H       1  UNL1        0.0242
     33 H          -8.1688    2.2751    0.6929 H       1  UNL1        0.0242
     34 H          -6.5689    0.8910    1.5134 H       1  UNL1        0.0424
     35 H          -7.9066   -0.1523    1.9310 H       1  UNL1        0.0424
     36 H          -8.7917   -1.0186   -0.8003 H       1  UNL1        0.0391
     37 H          -7.4875   -2.2267   -1.1022 H       1  UNL1        0.0391
     38 H          -8.4017   -2.2022    0.5135 H       1  UNL1        0.0391
     39 H          -5.5849   -1.9250   -0.8747 H       1  UNL1        0.0426
     40 H          -4.9252   -1.0343    0.4919 H       1  UNL1        0.0426
     41 H          -4.1937   -0.2606   -1.7970 H       1  UNL1        0.0282
     42 H          -5.8469    0.3251   -2.0805 H       1  UNL1        0.0282
     43 H          -5.6249    2.0393   -0.2935 H       1  UNL1        0.0345
     44 H          -4.3199    2.0952   -1.4701 H       1  UNL1        0.0345
     45 H          -2.5032    1.3993   -2.0086 H       1  UNL1        0.0626
     46 H          -0.1751    1.0268   -2.4073 H       1  UNL1        0.0654
     47 H           2.3072    0.0583    1.2189 H       1  UNL1        0.0821
     48 H           3.8681    1.9086   -0.5620 H       1  UNL1        0.0354
     49 H           3.8109    1.7249    1.2667 H       1  UNL1        0.0354
     50 H           6.6661    1.8567    0.7375 H       1  UNL1        0.0658
     51 H           8.8070    1.9533    1.8478 H       1  UNL1        0.0660
     52 H           9.3402    2.1171    0.1442 H       1  UNL1        0.0660
     53 H          10.4062    1.2625    1.2958 H       1  UNL1        0.0660
     54 H           7.2079   -4.1975    0.7188 H       1  UNL1        0.0660
     55 H           7.2933   -3.8362   -1.0356 H       1  UNL1        0.0660
     56 H           8.7685   -4.3659   -0.1261 H       1  UNL1        0.0660
     57 H           5.5810   -2.8862   -0.2114 H       1  UNL1        0.0662
     58 H           0.5124    0.5534    1.7722 H       1  UNL1        0.0654
     59 H          -1.8308    0.9199    2.1976 H       1  UNL1        0.0626
@<TRIPOS>BOND
     1     1     2    1
     2     2     3    1
     3     3     4    1
     4     3     5    1
     5     5     6    1
     6     6     7    1
     7     7     8    1
     8     8     9    2
     9     8    10    1
    10    10    11   ar
    11    11    12   ar
    12    12    13   ar
    13    13    14    1
    14    14    15    1
    15    15    16    1
    16    16    17    1
    17    17    18   ar
    18    18    19   ar
    19    19    20    1
    20    20    21    1
    21    19    22   ar
    22    22    23    1
    23    23    24    1
    24    22    25   ar
    25    25    26   ar
    26    26    27    1
    27    27    28    2
    28    13    29   ar
    29    29    30   ar
    30    30    10   ar
    31    27    15    1
    32    26    17   ar
    33     1    31    1
    34     1    32    1
    35     1    33    1
    36     2    34    1
    37     2    35    1
    38     4    36    1
    39     4    37    1
    40     4    38    1
    41     5    39    1
    42     5    40    1
    43     6    41    1
    44     6    42    1
    45     7    43    1
    46     7    44    1
    47    11    45    1
    48    12    46    1
    49    15    47    1
    50    16    48    1
    51    16    49    1
    52    18    50    1
    53    21    51    1
    54    21    52    1
    55    21    53    1
    56    24    54    1
    57    24    55    1
    58    24    56    1
    59    25    57    1
    60    29    58    1
    61    30    59    1
