
     RDKit          3D

 59 61  0  0  0  0  0  0  0  0999 V2000
   -8.3525    1.2463    0.3808 C   0  0  0  0  0  0  0  0  0  0  0  0
   -7.3458    0.2792    1.0390 C   0  0  0  0  0  0  0  0  0  0  0  0
   -6.9653   -0.6567    0.1056 N   0  0  0  0  0  0  0  0  0  0  0  0
   -7.9861   -1.6020   -0.3000 C   0  0  0  0  0  0  0  0  0  0  0  0
   -5.6928   -0.9171   -0.3670 C   0  0  0  0  0  0  0  0  0  0  0  0
   -5.0983    0.1217   -1.2436 C   0  0  0  0  0  0  0  0  0  0  0  0
   -4.7887    1.4512   -0.6584 C   0  0  0  0  0  0  0  0  0  0  0  0
   -3.7705    1.3518    0.4294 C   0  0  0  0  0  0  0  0  0  0  0  0
   -4.0768    1.4057    1.6604 O   0  0  0  0  0  0  0  0  0  0  0  0
   -2.3471    1.1800    0.1581 C   0  0  0  0  0  0  0  0  0  0  0  0
   -1.8689    1.2074   -1.1335 C   0  0  0  0  0  0  0  0  0  0  0  0
   -0.5360    1.0001   -1.3846 C   0  0  0  0  0  0  0  0  0  0  0  0
    0.3887    0.7543   -0.3783 C   0  0  0  0  0  0  0  0  0  0  0  0
    1.7158    0.5503   -0.6769 O   0  0  0  0  0  0  0  0  0  0  0  0
    2.7367    0.2153    0.1916 C   0  0  0  0  0  0  0  0  0  0  0  0
    3.8713    1.1860    0.2753 C   0  0  0  0  0  0  0  0  0  0  0  0
    5.1208    0.3796    0.2916 C   0  0  0  0  0  0  0  0  0  0  0  0
    6.4302    0.8093    0.5295 C   0  0  0  0  0  0  0  0  0  0  0  0
    7.4522   -0.1060    0.4999 C   0  0  0  0  0  0  0  0  0  0  0  0
    8.7755    0.1863    0.7161 O   0  0  0  0  0  0  0  0  0  0  0  0
    9.3349    1.4328    1.0046 C   0  0  0  0  0  0  0  0  0  0  0  0
    7.1356   -1.4481    0.2300 C   0  0  0  0  0  0  0  0  0  0  0  0
    8.1570   -2.3922    0.1945 O   0  0  0  0  0  0  0  0  0  0  0  0
    7.8543   -3.7395   -0.0783 C   0  0  0  0  0  0  0  0  0  0  0  0
    5.8516   -1.8646   -0.0026 C   0  0  0  0  0  0  0  0  0  0  0  0
    4.8089   -0.9190    0.0291 C   0  0  0  0  0  0  0  0  0  0  0  0
    3.3813   -1.0753   -0.1715 C   0  0  0  0  0  0  0  0  0  0  0  0
    2.8065   -2.1066   -0.5754 O   0  0  0  0  0  0  0  0  0  0  0  0
   -0.1015    0.7304    0.9109 C   0  0  0  0  0  0  0  0  0  0  0  0
   -1.4587    0.9414    1.1804 C   0  0  0  0  0  0  0  0  0  0  0  0
   -8.2799    1.2094   -0.7238 H   0  0  0  0  0  0  0  0  0  0  0  0
   -9.3917    0.8873    0.6177 H   0  0  0  0  0  0  0  0  0  0  0  0
   -8.1688    2.2751    0.6929 H   0  0  0  0  0  0  0  0  0  0  0  0
   -6.5689    0.8910    1.5134 H   0  0  0  0  0  0  0  0  0  0  0  0
   -7.9066   -0.1523    1.9310 H   0  0  0  0  0  0  0  0  0  0  0  0
   -8.7917   -1.0186   -0.8003 H   0  0  0  0  0  0  0  0  0  0  0  0
   -7.4875   -2.2267   -1.1022 H   0  0  0  0  0  0  0  0  0  0  0  0
   -8.4017   -2.2022    0.5135 H   0  0  0  0  0  0  0  0  0  0  0  0
   -5.5849   -1.9250   -0.8747 H   0  0  0  0  0  0  0  0  0  0  0  0
   -4.9252   -1.0343    0.4919 H   0  0  0  0  0  0  0  0  0  0  0  0
   -4.1937   -0.2606   -1.7970 H   0  0  0  0  0  0  0  0  0  0  0  0
   -5.8469    0.3251   -2.0805 H   0  0  0  0  0  0  0  0  0  0  0  0
   -5.6249    2.0393   -0.2935 H   0  0  0  0  0  0  0  0  0  0  0  0
   -4.3199    2.0952   -1.4701 H   0  0  0  0  0  0  0  0  0  0  0  0
   -2.5032    1.3993   -2.0086 H   0  0  0  0  0  0  0  0  0  0  0  0
   -0.1751    1.0268   -2.4073 H   0  0  0  0  0  0  0  0  0  0  0  0
    2.3072    0.0583    1.2189 H   0  0  0  0  0  0  0  0  0  0  0  0
    3.8681    1.9086   -0.5620 H   0  0  0  0  0  0  0  0  0  0  0  0
    3.8109    1.7249    1.2667 H   0  0  0  0  0  0  0  0  0  0  0  0
    6.6661    1.8567    0.7375 H   0  0  0  0  0  0  0  0  0  0  0  0
    8.8070    1.9533    1.8478 H   0  0  0  0  0  0  0  0  0  0  0  0
    9.3402    2.1171    0.1442 H   0  0  0  0  0  0  0  0  0  0  0  0
   10.4062    1.2625    1.2958 H   0  0  0  0  0  0  0  0  0  0  0  0
    7.2079   -4.1975    0.7188 H   0  0  0  0  0  0  0  0  0  0  0  0
    7.2933   -3.8362   -1.0356 H   0  0  0  0  0  0  0  0  0  0  0  0
    8.7685   -4.3659   -0.1261 H   0  0  0  0  0  0  0  0  0  0  0  0
    5.5810   -2.8862   -0.2114 H   0  0  0  0  0  0  0  0  0  0  0  0
    0.5124    0.5534    1.7722 H   0  0  0  0  0  0  0  0  0  0  0  0
   -1.8308    0.9199    2.1976 H   0  0  0  0  0  0  0  0  0  0  0  0
  1  2  1  0
  2  3  1  0
  3  4  1  0
  3  5  1  0
  5  6  1  0
  6  7  1  0
  7  8  1  0
  8  9  2  0
  8 10  1  0
 10 11  2  0
 11 12  1  0
 12 13  2  0
 13 14  1  0
 14 15  1  0
 15 16  1  0
 16 17  1  0
 17 18  2  0
 18 19  1  0
 19 20  1  0
 20 21  1  0
 19 22  2  0
 22 23  1  0
 23 24  1  0
 22 25  1  0
 25 26  2  0
 26 27  1  0
 27 28  2  0
 13 29  1  0
 29 30  2  0
 30 10  1  0
 27 15  1  0
 26 17  1  0
  1 31  1  0
  1 32  1  0
  1 33  1  0
  2 34  1  0
  2 35  1  0
  4 36  1  0
  4 37  1  0
  4 38  1  0
  5 39  1  0
  5 40  1  0
  6 41  1  0
  6 42  1  0
  7 43  1  0
  7 44  1  0
 11 45  1  0
 12 46  1  0
 15 47  1  0
 16 48  1  0
 16 49  1  0
 18 50  1  0
 21 51  1  0
 21 52  1  0
 21 53  1  0
 24 54  1  0
 24 55  1  0
 24 56  1  0
 25 57  1  0
 29 58  1  0
 30 59  1  0
M  END
$$$$
