
     RDKit          3D

 26 27  0  0  0  0  0  0  0  0999 V2000
    1.7487    0.9999    0.5103 C   0  0  1  0  0  0  0  0  0  0  0  0
    0.8164    1.4123   -0.5959 C   0  0  0  0  0  0  0  0  0  0  0  0
   -0.4219    0.5933   -0.4422 C   0  0  0  0  0  0  0  0  0  0  0  0
   -1.4634    1.0714    0.3464 C   0  0  0  0  0  0  0  0  0  0  0  0
   -2.6538    0.4193    0.5705 C   0  0  0  0  0  0  0  0  0  0  0  0
   -2.7960   -0.8055   -0.0507 C   0  0  0  0  0  0  0  0  0  0  0  0
   -1.8021   -1.3436   -0.8495 C   0  0  0  0  0  0  0  0  0  0  0  0
   -0.6326   -0.6371   -1.0325 C   0  0  0  0  0  0  0  0  0  0  0  0
   -4.0799   -1.5405    0.1730 C   0  0  0  0  0  0  0  0  0  0  0  0
   -3.9924   -2.4644    1.1876 F   0  0  0  0  0  0  0  0  0  0  0  0
   -4.4659   -2.1312   -1.0195 F   0  0  0  0  0  0  0  0  0  0  0  0
   -5.0802   -0.6152    0.4872 F   0  0  0  0  0  0  0  0  0  0  0  0
    2.1618   -0.7702    0.4113 S   0  0  0  0  0  0  0  0  0  0  0  0
    3.8834   -0.5468   -0.0439 C   0  0  0  0  0  0  0  0  0  0  0  0
    5.0945   -1.7981   -0.4764 S   0  0  0  0  0  0  0  0  0  0  0  0
    4.2075    0.7230   -0.0317 N   0  0  0  0  0  0  0  0  0  0  0  0
    3.1277    1.5311    0.3294 C   0  0  0  0  0  0  0  0  0  0  0  0
    3.2688    2.7682    0.5230 O   0  0  0  0  0  0  0  0  0  0  0  0
    1.3814    1.2349    1.5085 H   0  0  0  0  0  0  0  0  0  0  0  0
    1.2811    1.2482   -1.5653 H   0  0  0  0  0  0  0  0  0  0  0  0
    0.5216    2.4681   -0.4368 H   0  0  0  0  0  0  0  0  0  0  0  0
   -1.3249    2.0454    0.8278 H   0  0  0  0  0  0  0  0  0  0  0  0
   -3.4100    0.8673    1.2001 H   0  0  0  0  0  0  0  0  0  0  0  0
   -1.9277   -2.3048   -1.3300 H   0  0  0  0  0  0  0  0  0  0  0  0
    0.1686   -1.0320   -1.6544 H   0  0  0  0  0  0  0  0  0  0  0  0
    6.3893   -1.3928   -0.1776 H   0  0  0  0  0  0  0  0  0  0  0  0
  1  2  1  0
  2  3  1  0
  3  4  2  0
  4  5  1  0
  5  6  2  0
  6  7  1  0
  7  8  2  0
  6  9  1  0
  9 10  1  0
  9 11  1  0
  9 12  1  0
  1 13  1  0
 13 14  1  0
 14 15  1  0
 14 16  2  0
 16 17  1  0
 17 18  2  0
 17  1  1  0
  8  3  1  0
  1 19  1  1
  2 20  1  0
  2 21  1  0
  4 22  1  0
  5 23  1  0
  7 24  1  0
  8 25  1  0
 15 26  1  0
M  END
$$$$
