@<TRIPOS>MOLECULE
*****
 26 27 0 0 0
SMALL
GASTEIGER

@<TRIPOS>ATOM
      1 C           1.7487    0.9999    0.5103 C.3     1  UNL1        0.0936
      2 C           0.8164    1.4123   -0.5959 C.3     1  UNL1       -0.0069
      3 C          -0.4219    0.5933   -0.4422 C.ar    1  UNL1       -0.0458
      4 C          -1.4634    1.0714    0.3464 C.ar    1  UNL1       -0.0580
      5 C          -2.6538    0.4193    0.5705 C.ar    1  UNL1       -0.0499
      6 C          -2.7960   -0.8055   -0.0507 C.ar    1  UNL1        0.0548
      7 C          -1.8021   -1.3436   -0.8495 C.ar    1  UNL1       -0.0499
      8 C          -0.6326   -0.6371   -1.0325 C.ar    1  UNL1       -0.0580
      9 C          -4.0799   -1.5405    0.1730 C.3     1  UNL1        0.4174
     10 F          -3.9924   -2.4644    1.1876 F       1  UNL1       -0.1659
     11 F          -4.4659   -2.1312   -1.0195 F       1  UNL1       -0.1659
     12 F          -5.0802   -0.6152    0.4872 F       1  UNL1       -0.1659
     13 S           2.1618   -0.7702    0.4113 S.3     1  UNL1       -0.0886
     14 C           3.8834   -0.5468   -0.0439 C.2     1  UNL1        0.1208
     15 S           5.0945   -1.7981   -0.4764 S.3     1  UNL1       -0.1190
     16 N           4.2075    0.7230   -0.0317 N.am    1  UNL1       -0.1664
     17 C           3.1277    1.5311    0.3294 C.2     1  UNL1        0.2512
     18 O           3.2688    2.7682    0.5230 O.2     1  UNL1       -0.2724
     19 H           1.3814    1.2349    1.5085 H       1  UNL1        0.0515
     20 H           1.2811    1.2482   -1.5653 H       1  UNL1        0.0329
     21 H           0.5216    2.4681   -0.4368 H       1  UNL1        0.0329
     22 H          -1.3249    2.0454    0.8278 H       1  UNL1        0.0620
     23 H          -3.4100    0.8673    1.2001 H       1  UNL1        0.0623
     24 H          -1.9277   -2.3048   -1.3300 H       1  UNL1        0.0623
     25 H           0.1686   -1.0320   -1.6544 H       1  UNL1        0.0620
     26 H           6.3893   -1.3928   -0.1776 H       1  UNL1        0.1089
@<TRIPOS>BOND
     1     1     2    1
     2     2     3    1
     3     3     4   ar
     4     4     5   ar
     5     5     6   ar
     6     6     7   ar
     7     7     8   ar
     8     6     9    1
     9     9    10    1
    10     9    11    1
    11     9    12    1
    12     1    13    1
    13    13    14    1
    14    14    15    1
    15    14    16    2
    16    16    17    1
    17    17    18    2
    18    17     1    1
    19     8     3   ar
    20     1    19    1
    21     2    20    1
    22     2    21    1
    23     4    22    1
    24     5    23    1
    25     7    24    1
    26     8    25    1
    27    15    26    1
