@<TRIPOS>MOLECULE
*****
 55 57 0 0 0
SMALL
GASTEIGER

@<TRIPOS>ATOM
      1 C          -0.7211   -1.3834   -3.5530 C.3     0  UNK0       -0.0585
      2 C          -0.9749   -1.7202   -2.0877 C.3     0  UNK0       -0.0183
      3 C          -1.4818   -3.1302   -1.9877 C.3     0  UNK0       -0.0585
      4 C          -1.7523   -0.7159   -1.3930 C.ar    0  UNK0       -0.0056
      5 C          -3.1122   -0.5515   -1.7179 C.ar    0  UNK0        0.0334
      6 N          -3.8536    0.4157   -1.1494 N.ar    0  UNK0       -0.2545
      7 C          -3.3702    1.2910   -0.2404 C.ar    0  UNK0        0.0755
      8 C          -4.2468    2.3094    0.3233 C.ar    0  UNK0        0.0369
      9 C          -3.8391    3.2369    1.2510 C.ar    0  UNK0       -0.0314
     10 C          -4.7144    4.1969    1.7649 C.ar    0  UNK0        0.0418
     11 CL         -4.1820    5.3709    2.9447 Cl      0  UNK0       -0.0835
     12 C          -6.0221    4.2164    1.3316 C.ar    0  UNK0       -0.0406
     13 C          -6.4467    3.3052    0.4120 C.ar    0  UNK0       -0.0244
     14 C          -5.5699    2.3731   -0.0777 C.ar    0  UNK0        0.1326
     15 F          -5.9876    1.4744   -0.9841 F       0  UNK0       -0.2048
     16 C          -2.0449    1.1612    0.1042 C.ar    0  UNK0       -0.0141
     17 C          -1.2710    0.1569   -0.4830 C.ar    0  UNK0        0.0383
     18 N           0.1212    0.0656   -0.0922 N.pl3   0  UNK0       -0.3135
     19 C           0.5570   -1.0537    0.6401 C.ar    0  UNK0        0.0465
     20 C          -0.4264   -1.9809    1.0305 C.ar    0  UNK0       -0.0217
     21 C          -0.0148   -3.0740    1.7428 C.ar    0  UNK0        0.0293
     22 N           1.2655   -3.2861    2.0737 N.ar    0  UNK0       -0.2624
     23 C           2.1955   -2.3644    1.6779 C.ar    0  UNK0        0.0415
     24 C           1.8722   -1.2317    0.9560 C.ar    0  UNK0        0.0758
     25 C           2.9047   -0.2969    0.5571 C.2     0  UNK0        0.2476
     26 O           2.7260    0.7485   -0.1240 O.2     0  UNK0       -0.2701
     27 N           4.2847   -0.4835    0.9167 N.am    1  ALA1       -0.3065
     28 CA          5.2824    0.4952    0.4839 C.3     1  ALA1        0.0437
     29 CB          5.8467    1.1015    1.7669 C.3     1  ALA1       -0.0445
     30 C           6.4018   -0.1392   -0.2731 C.3     1  ALA1        0.0623
     31 O           7.0763   -1.0930    0.5003 O.3     1  ALA1       -0.3932
     32 H          -1.6683   -1.6152   -4.0830 H       0  UNK0        0.0235
     33 H           0.0516   -2.0363   -3.9646 H       0  UNK0        0.0235
     34 H          -0.5340   -0.3045   -3.7054 H       0  UNK0        0.0235
     35 H           0.0741   -1.7218   -1.6595 H       0  UNK0        0.0344
     36 H          -2.1779   -3.3989   -2.8154 H       0  UNK0        0.0235
     37 H          -0.6379   -3.8456   -1.9023 H       0  UNK0        0.0235
     38 H          -2.0796   -3.2661   -1.0514 H       0  UNK0        0.0235
     39 H          -3.5496   -1.2298   -2.4437 H       0  UNK0        0.0833
     40 H          -2.8222    3.2334    1.5980 H       0  UNK0        0.0639
     41 H          -6.6877    4.9703    1.7428 H       0  UNK0        0.0633
     42 H          -7.4852    3.3086    0.0577 H       0  UNK0        0.0647
     43 H          -1.5980    1.8224    0.8191 H       0  UNK0        0.0658
     44 H           0.6623    0.8700   -0.4040 H       0  UNK0        0.1522
     45 H          -1.4775   -1.8289    0.7737 H       0  UNK0        0.0651
     46 H          -0.7737   -3.8120    2.0575 H       0  UNK0        0.0830
     47 H           3.2312   -2.5292    1.9408 H       0  UNK0        0.0838
     48 H           4.5794   -1.2961    1.4754 H       1  ALA1        0.1494
     49 HA          4.8565    1.3113   -0.1020 H       1  ALA1        0.0518
     50 HB1         5.0060    1.1654    2.4983 H       1  ALA1        0.0248
     51 HB2         6.5614    0.3561    2.1731 H       1  ALA1        0.0248
     52 HB3         6.2785    2.0873    1.5932 H       1  ALA1        0.0248
     53 H1          6.0893   -0.5386   -1.2474 H       1  ALA1        0.0575
     54 H2          7.1494    0.6578   -0.4835 H       1  ALA1        0.0575
     55 H           6.4500   -1.7737    0.8183 H       1  ALA1        0.2095
@<TRIPOS>BOND
     1     1     2    1
     2     2     3    1
     3     2     4    1
     4     4     5   ar
     5     5     6   ar
     6     6     7   ar
     7     7     8    1
     8     8     9   ar
     9     9    10   ar
    10    10    11    1
    11    10    12   ar
    12    12    13   ar
    13    13    14   ar
    14    14    15    1
    15     7    16   ar
    16    16    17   ar
    17    17    18    1
    18    18    19    1
    19    19    20   ar
    20    20    21   ar
    21    21    22   ar
    22    22    23   ar
    23    23    24   ar
    24    24    25    1
    25    25    26    2
    26    25    27   am
    27    27    28    1
    28    28    29    1
    29    28    30    1
    30    30    31    1
    31    17     4   ar
    32    24    19   ar
    33    14     8   ar
    34     1    32    1
    35     1    33    1
    36     1    34    1
    37     2    35    1
    38     3    36    1
    39     3    37    1
    40     3    38    1
    41     5    39    1
    42     9    40    1
    43    12    41    1
    44    13    42    1
    45    16    43    1
    46    18    44    1
    47    20    45    1
    48    21    46    1
    49    23    47    1
    50    27    48    1
    51    28    49    1
    52    29    50    1
    53    29    51    1
    54    29    52    1
    55    30    53    1
    56    30    54    1
    57    31    55    1
