
     RDKit          3D

 55 57  0  0  0  0  0  0  0  0999 V2000
   -0.7211   -1.3834   -3.5530 C   0  0  0  0  0  0  0  0  0  0  0  0
   -0.9749   -1.7202   -2.0877 C   0  0  0  0  0  0  0  0  0  0  0  0
   -1.4818   -3.1302   -1.9877 C   0  0  0  0  0  0  0  0  0  0  0  0
   -1.7523   -0.7159   -1.3930 C   0  0  0  0  0  0  0  0  0  0  0  0
   -3.1122   -0.5515   -1.7179 C   0  0  0  0  0  0  0  0  0  0  0  0
   -3.8536    0.4157   -1.1494 N   0  0  0  0  0  0  0  0  0  0  0  0
   -3.3702    1.2910   -0.2404 C   0  0  0  0  0  0  0  0  0  0  0  0
   -4.2468    2.3094    0.3233 C   0  0  0  0  0  0  0  0  0  0  0  0
   -3.8391    3.2369    1.2510 C   0  0  0  0  0  0  0  0  0  0  0  0
   -4.7144    4.1969    1.7649 C   0  0  0  0  0  0  0  0  0  0  0  0
   -4.1820    5.3709    2.9447 Cl  0  0  0  0  0  0  0  0  0  0  0  0
   -6.0221    4.2164    1.3316 C   0  0  0  0  0  0  0  0  0  0  0  0
   -6.4467    3.3052    0.4120 C   0  0  0  0  0  0  0  0  0  0  0  0
   -5.5699    2.3731   -0.0777 C   0  0  0  0  0  0  0  0  0  0  0  0
   -5.9876    1.4744   -0.9841 F   0  0  0  0  0  0  0  0  0  0  0  0
   -2.0449    1.1612    0.1042 C   0  0  0  0  0  0  0  0  0  0  0  0
   -1.2710    0.1569   -0.4830 C   0  0  0  0  0  0  0  0  0  0  0  0
    0.1212    0.0656   -0.0922 N   0  0  0  0  0  0  0  0  0  0  0  0
    0.5570   -1.0537    0.6401 C   0  0  0  0  0  0  0  0  0  0  0  0
   -0.4264   -1.9809    1.0305 C   0  0  0  0  0  0  0  0  0  0  0  0
   -0.0148   -3.0740    1.7428 C   0  0  0  0  0  0  0  0  0  0  0  0
    1.2655   -3.2861    2.0737 N   0  0  0  0  0  0  0  0  0  0  0  0
    2.1955   -2.3644    1.6779 C   0  0  0  0  0  0  0  0  0  0  0  0
    1.8722   -1.2317    0.9560 C   0  0  0  0  0  0  0  0  0  0  0  0
    2.9047   -0.2969    0.5571 C   0  0  0  0  0  0  0  0  0  0  0  0
    2.7260    0.7485   -0.1240 O   0  0  0  0  0  0  0  0  0  0  0  0
    4.2847   -0.4835    0.9167 N   0  0  0  0  0  0  0  0  0  0  0  0
    5.2824    0.4952    0.4839 C   0  0  1  0  0  0  0  0  0  0  0  0
    5.8467    1.1015    1.7669 C   0  0  0  0  0  0  0  0  0  0  0  0
    6.4018   -0.1392   -0.2731 C   0  0  0  0  0  0  0  0  0  0  0  0
    7.0763   -1.0930    0.5003 O   0  0  0  0  0  0  0  0  0  0  0  0
   -1.6683   -1.6152   -4.0830 H   0  0  0  0  0  0  0  0  0  0  0  0
    0.0516   -2.0363   -3.9646 H   0  0  0  0  0  0  0  0  0  0  0  0
   -0.5340   -0.3045   -3.7054 H   0  0  0  0  0  0  0  0  0  0  0  0
    0.0741   -1.7218   -1.6595 H   0  0  0  0  0  0  0  0  0  0  0  0
   -2.1779   -3.3989   -2.8154 H   0  0  0  0  0  0  0  0  0  0  0  0
   -0.6379   -3.8456   -1.9023 H   0  0  0  0  0  0  0  0  0  0  0  0
   -2.0796   -3.2661   -1.0514 H   0  0  0  0  0  0  0  0  0  0  0  0
   -3.5496   -1.2298   -2.4437 H   0  0  0  0  0  0  0  0  0  0  0  0
   -2.8222    3.2334    1.5980 H   0  0  0  0  0  0  0  0  0  0  0  0
   -6.6877    4.9703    1.7428 H   0  0  0  0  0  0  0  0  0  0  0  0
   -7.4852    3.3086    0.0577 H   0  0  0  0  0  0  0  0  0  0  0  0
   -1.5980    1.8224    0.8191 H   0  0  0  0  0  0  0  0  0  0  0  0
    0.6623    0.8700   -0.4040 H   0  0  0  0  0  0  0  0  0  0  0  0
   -1.4775   -1.8289    0.7737 H   0  0  0  0  0  0  0  0  0  0  0  0
   -0.7737   -3.8120    2.0575 H   0  0  0  0  0  0  0  0  0  0  0  0
    3.2312   -2.5292    1.9408 H   0  0  0  0  0  0  0  0  0  0  0  0
    4.5794   -1.2961    1.4754 H   0  0  0  0  0  0  0  0  0  0  0  0
    4.8565    1.3113   -0.1020 H   0  0  0  0  0  0  0  0  0  0  0  0
    5.0060    1.1654    2.4983 H   0  0  0  0  0  0  0  0  0  0  0  0
    6.5614    0.3561    2.1731 H   0  0  0  0  0  0  0  0  0  0  0  0
    6.2785    2.0873    1.5932 H   0  0  0  0  0  0  0  0  0  0  0  0
    6.0893   -0.5386   -1.2474 H   0  0  0  0  0  0  0  0  0  0  0  0
    7.1494    0.6578   -0.4835 H   0  0  0  0  0  0  0  0  0  0  0  0
    6.4500   -1.7737    0.8183 H   0  0  0  0  0  0  0  0  0  0  0  0
  1  2  1  0
  2  3  1  0
  2  4  1  0
  4  5  2  0
  5  6  1  0
  6  7  2  0
  7  8  1  0
  8  9  2  0
  9 10  1  0
 10 11  1  0
 10 12  2  0
 12 13  1  0
 13 14  2  0
 14 15  1  0
  7 16  1  0
 16 17  2  0
 17 18  1  0
 18 19  1  0
 19 20  2  0
 20 21  1  0
 21 22  2  0
 22 23  1  0
 23 24  2  0
 24 25  1  0
 25 26  2  0
 25 27  1  0
 27 28  1  0
 28 29  1  0
 28 30  1  0
 30 31  1  0
 17  4  1  0
 24 19  1  0
 14  8  1  0
  1 32  1  0
  1 33  1  0
  1 34  1  0
  2 35  1  0
  3 36  1  0
  3 37  1  0
  3 38  1  0
  5 39  1  0
  9 40  1  0
 12 41  1  0
 13 42  1  0
 16 43  1  0
 18 44  1  0
 20 45  1  0
 21 46  1  0
 23 47  1  0
 27 48  1  0
 28 49  1  6
 29 50  1  0
 29 51  1  0
 29 52  1  0
 30 53  1  0
 30 54  1  0
 31 55  1  0
M  END
$$$$
