@<TRIPOS>MOLECULE
*****
 49 51 0 0 0
SMALL
GASTEIGER

@<TRIPOS>ATOM
      1 C          -7.1241   -0.9138    0.7183 C.3     1  UNL1       -0.0629
      2 C          -6.2136    0.1905    1.1424 C.3     1  UNL1       -0.0261
      3 C          -5.0199    0.3589    0.2022 C.3     1  UNL1        0.1081
      4 C          -5.5506    0.6748   -1.1898 C.3     1  UNL1       -0.0351
      5 N          -4.3032   -0.8781    0.1818 N.am    1  UNL1       -0.2976
      6 C          -2.9177   -1.1560   -0.0554 C.2     1  UNL1        0.2467
      7 O          -2.5652   -2.3683   -0.1003 O.2     1  UNL1       -0.2701
      8 C          -1.8242   -0.2129   -0.2585 C.ar    1  UNL1        0.0597
      9 C          -0.6675   -0.7737   -0.7831 C.ar    1  UNL1       -0.0212
     10 C           0.4512   -0.0256   -1.0346 C.ar    1  UNL1        0.1093
     11 S           1.8561   -0.7883   -1.6952 S.O2    1  UNL1        0.0724
     12 O           1.4329   -1.9858   -2.5388 O.2     1  UNL1       -0.1500
     13 O           2.6489    0.1428   -2.5708 O.2     1  UNL1       -0.1500
     14 N           2.8053   -1.4229   -0.4157 N.pl3   1  UNL1       -0.2163
     15 C           4.0810   -0.8412   -0.1561 C.ar    1  UNL1        0.0483
     16 C           4.2564    0.5147   -0.1157 C.ar    1  UNL1       -0.0359
     17 C           5.5091    1.0043    0.1398 C.ar    1  UNL1       -0.0179
     18 C           6.5916    0.1457    0.3561 C.ar    1  UNL1        0.1270
     19 O           7.7902    0.7201    0.6009 O.3     1  UNL1       -0.4342
     20 C           8.9853    0.0574    0.8407 C.3     1  UNL1        0.3893
     21 F           9.5561    0.4670    2.0382 F       1  UNL1       -0.1663
     22 F           9.8497    0.3406   -0.2204 F       1  UNL1       -0.1663
     23 C           6.3823   -1.1972    0.3089 C.ar    1  UNL1       -0.0179
     24 C           5.1143   -1.7228    0.0501 C.ar    1  UNL1       -0.0359
     25 C           0.4420    1.3111   -0.7664 C.ar    1  UNL1       -0.0333
     26 C          -0.6947    1.9269   -0.2379 C.ar    1  UNL1       -0.0379
     27 C          -1.8038    1.1473    0.0039 C.ar    1  UNL1        0.0457
     28 N          -2.8911    1.8985    0.5423 N.am    1  UNL1       -0.2831
     29 C          -4.2561    1.5199    0.6635 C.2     1  UNL1        0.2404
     30 O          -4.9301    2.3818    1.3079 O.2     1  UNL1       -0.2731
     31 H          -8.1320   -0.4576    0.4913 H       1  UNL1        0.0231
     32 H          -7.3222   -1.6327    1.5455 H       1  UNL1        0.0231
     33 H          -6.8253   -1.4345   -0.2001 H       1  UNL1        0.0231
     34 H          -6.7234    1.1783    1.2012 H       1  UNL1        0.0288
     35 H          -5.7880   -0.0615    2.1347 H       1  UNL1        0.0288
     36 H          -6.0700   -0.1695   -1.6480 H       1  UNL1        0.0255
     37 H          -4.7122    1.0178   -1.8211 H       1  UNL1        0.0255
     38 H          -6.2560    1.5197   -1.0749 H       1  UNL1        0.0255
     39 H          -4.8875   -1.7176    0.3709 H       1  UNL1        0.1500
     40 H          -0.7179   -1.8454   -0.9776 H       1  UNL1        0.0645
     41 H           2.4216   -2.2150    0.1343 H       1  UNL1        0.1737
     42 H           3.4472    1.2069   -0.2766 H       1  UNL1        0.0638
     43 H           5.6408    2.0750    0.1703 H       1  UNL1        0.0655
     44 H           8.8403   -1.0306    0.8068 H       1  UNL1        0.1520
     45 H           7.1533   -1.9408    0.4625 H       1  UNL1        0.0655
     46 H           4.9538   -2.7979    0.0138 H       1  UNL1        0.0638
     47 H           1.3008    1.9691   -0.9465 H       1  UNL1        0.0638
     48 H          -0.6991    2.9648   -0.0305 H       1  UNL1        0.0637
     49 H          -2.6149    2.8561    0.8875 H       1  UNL1        0.1549
@<TRIPOS>BOND
     1     1     2    1
     2     3     2    1
     3     3     4    1
     4     3     5    1
     5     5     6   am
     6     6     7    2
     7     6     8    1
     8     8     9   ar
     9     9    10   ar
    10    10    11    1
    11    11    12    2
    12    11    13    2
    13    11    14    1
    14    14    15    1
    15    15    16   ar
    16    16    17   ar
    17    17    18   ar
    18    18    19    1
    19    19    20    1
    20    20    21    1
    21    20    22    1
    22    18    23   ar
    23    23    24   ar
    24    10    25   ar
    25    25    26   ar
    26    26    27   ar
    27    27    28    1
    28    28    29   am
    29    29    30    2
    30    29     3    1
    31    27     8   ar
    32    24    15   ar
    33     1    31    1
    34     1    32    1
    35     1    33    1
    36     2    34    1
    37     2    35    1
    38     4    36    1
    39     4    37    1
    40     4    38    1
    41     5    39    1
    42     9    40    1
    43    14    41    1
    44    16    42    1
    45    17    43    1
    46    20    44    1
    47    23    45    1
    48    24    46    1
    49    25    47    1
    50    26    48    1
    51    28    49    1
