
     RDKit          3D

 49 51  0  0  0  0  0  0  0  0999 V2000
   -7.1241   -0.9138    0.7183 C   0  0  0  0  0  0  0  0  0  0  0  0
   -6.2136    0.1905    1.1424 C   0  0  0  0  0  0  0  0  0  0  0  0
   -5.0199    0.3589    0.2022 C   0  0  2  0  0  0  0  0  0  0  0  0
   -5.5506    0.6748   -1.1898 C   0  0  0  0  0  0  0  0  0  0  0  0
   -4.3032   -0.8781    0.1818 N   0  0  0  0  0  0  0  0  0  0  0  0
   -2.9177   -1.1560   -0.0554 C   0  0  0  0  0  0  0  0  0  0  0  0
   -2.5652   -2.3683   -0.1003 O   0  0  0  0  0  0  0  0  0  0  0  0
   -1.8242   -0.2129   -0.2585 C   0  0  0  0  0  0  0  0  0  0  0  0
   -0.6675   -0.7737   -0.7831 C   0  0  0  0  0  0  0  0  0  0  0  0
    0.4512   -0.0256   -1.0346 C   0  0  0  0  0  0  0  0  0  0  0  0
    1.8561   -0.7883   -1.6952 S   0  0  0  0  0  6  0  0  0  0  0  0
    1.4329   -1.9858   -2.5388 O   0  0  0  0  0  0  0  0  0  0  0  0
    2.6489    0.1428   -2.5708 O   0  0  0  0  0  0  0  0  0  0  0  0
    2.8053   -1.4229   -0.4157 N   0  0  0  0  0  0  0  0  0  0  0  0
    4.0810   -0.8412   -0.1561 C   0  0  0  0  0  0  0  0  0  0  0  0
    4.2564    0.5147   -0.1157 C   0  0  0  0  0  0  0  0  0  0  0  0
    5.5091    1.0043    0.1398 C   0  0  0  0  0  0  0  0  0  0  0  0
    6.5916    0.1457    0.3561 C   0  0  0  0  0  0  0  0  0  0  0  0
    7.7902    0.7201    0.6009 O   0  0  0  0  0  0  0  0  0  0  0  0
    8.9853    0.0574    0.8407 C   0  0  0  0  0  0  0  0  0  0  0  0
    9.5561    0.4670    2.0382 F   0  0  0  0  0  0  0  0  0  0  0  0
    9.8497    0.3406   -0.2204 F   0  0  0  0  0  0  0  0  0  0  0  0
    6.3823   -1.1972    0.3089 C   0  0  0  0  0  0  0  0  0  0  0  0
    5.1143   -1.7228    0.0501 C   0  0  0  0  0  0  0  0  0  0  0  0
    0.4420    1.3111   -0.7664 C   0  0  0  0  0  0  0  0  0  0  0  0
   -0.6947    1.9269   -0.2379 C   0  0  0  0  0  0  0  0  0  0  0  0
   -1.8038    1.1473    0.0039 C   0  0  0  0  0  0  0  0  0  0  0  0
   -2.8911    1.8985    0.5423 N   0  0  0  0  0  0  0  0  0  0  0  0
   -4.2561    1.5199    0.6635 C   0  0  0  0  0  0  0  0  0  0  0  0
   -4.9301    2.3818    1.3079 O   0  0  0  0  0  0  0  0  0  0  0  0
   -8.1320   -0.4576    0.4913 H   0  0  0  0  0  0  0  0  0  0  0  0
   -7.3222   -1.6327    1.5455 H   0  0  0  0  0  0  0  0  0  0  0  0
   -6.8253   -1.4345   -0.2001 H   0  0  0  0  0  0  0  0  0  0  0  0
   -6.7234    1.1783    1.2012 H   0  0  0  0  0  0  0  0  0  0  0  0
   -5.7880   -0.0615    2.1347 H   0  0  0  0  0  0  0  0  0  0  0  0
   -6.0700   -0.1695   -1.6480 H   0  0  0  0  0  0  0  0  0  0  0  0
   -4.7122    1.0178   -1.8211 H   0  0  0  0  0  0  0  0  0  0  0  0
   -6.2560    1.5197   -1.0749 H   0  0  0  0  0  0  0  0  0  0  0  0
   -4.8875   -1.7176    0.3709 H   0  0  0  0  0  0  0  0  0  0  0  0
   -0.7179   -1.8454   -0.9776 H   0  0  0  0  0  0  0  0  0  0  0  0
    2.4216   -2.2150    0.1343 H   0  0  0  0  0  0  0  0  0  0  0  0
    3.4472    1.2069   -0.2766 H   0  0  0  0  0  0  0  0  0  0  0  0
    5.6408    2.0750    0.1703 H   0  0  0  0  0  0  0  0  0  0  0  0
    8.8403   -1.0306    0.8068 H   0  0  0  0  0  0  0  0  0  0  0  0
    7.1533   -1.9408    0.4625 H   0  0  0  0  0  0  0  0  0  0  0  0
    4.9538   -2.7979    0.0138 H   0  0  0  0  0  0  0  0  0  0  0  0
    1.3008    1.9691   -0.9465 H   0  0  0  0  0  0  0  0  0  0  0  0
   -0.6991    2.9648   -0.0305 H   0  0  0  0  0  0  0  0  0  0  0  0
   -2.6149    2.8561    0.8875 H   0  0  0  0  0  0  0  0  0  0  0  0
  1  2  1  0
  3  2  1  1
  3  4  1  0
  3  5  1  0
  5  6  1  0
  6  7  2  0
  6  8  1  0
  8  9  2  0
  9 10  1  0
 10 11  1  0
 11 12  2  0
 11 13  2  0
 11 14  1  0
 14 15  1  0
 15 16  2  0
 16 17  1  0
 17 18  2  0
 18 19  1  0
 19 20  1  0
 20 21  1  0
 20 22  1  0
 18 23  1  0
 23 24  2  0
 10 25  2  0
 25 26  1  0
 26 27  2  0
 27 28  1  0
 28 29  1  0
 29 30  2  0
 29  3  1  0
 27  8  1  0
 24 15  1  0
  1 31  1  0
  1 32  1  0
  1 33  1  0
  2 34  1  0
  2 35  1  0
  4 36  1  0
  4 37  1  0
  4 38  1  0
  5 39  1  0
  9 40  1  0
 14 41  1  0
 16 42  1  0
 17 43  1  0
 20 44  1  0
 23 45  1  0
 24 46  1  0
 25 47  1  0
 26 48  1  0
 28 49  1  0
M  END
$$$$
