
     RDKit          3D

 59 63  0  0  0  0  0  0  0  0999 V2000
   -5.1042    3.4226    3.5441 C   0  0  0  0  0  0  0  0  0  0  0  0
   -4.5856    2.2387    3.0205 O   0  0  0  0  0  0  0  0  0  0  0  0
   -4.4877    2.4091    1.6439 C   0  0  0  0  0  0  0  0  0  0  0  0
   -3.9389    1.1898    0.9791 C   0  0  0  0  0  0  0  0  0  0  0  0
   -2.6233    1.0552    0.8079 N   0  0  0  0  0  0  0  0  0  0  0  0
   -2.0404   -0.0337    0.2071 C   0  0  0  0  0  0  0  0  0  0  0  0
   -0.6466   -0.1260    0.0986 N   0  0  0  0  0  0  0  0  0  0  0  0
    0.1154   -0.9979    0.9514 C   0  0  0  0  0  0  0  0  0  0  0  0
    1.5102   -1.0928    0.3376 C   0  0  0  0  0  0  0  0  0  0  0  0
    2.0968    0.2291    0.4117 N   0  0  0  0  0  0  0  0  0  0  0  0
    3.5011    0.2392    0.2114 C   0  0  0  0  0  0  0  0  0  0  0  0
    4.1392    1.5821    0.2895 C   0  0  0  0  0  0  0  0  0  0  0  0
    5.6168    1.4006    0.0557 C   0  0  0  0  0  0  0  0  0  0  0  0
    6.4931    1.1687    1.0977 C   0  0  0  0  0  0  0  0  0  0  0  0
    7.8548    1.0041    0.8596 C   0  0  0  0  0  0  0  0  0  0  0  0
    8.3639    1.0675   -0.4143 C   0  0  0  0  0  0  0  0  0  0  0  0
    9.7070    0.8998   -0.5974 F   0  0  0  0  0  0  0  0  0  0  0  0
    7.5069    1.2964   -1.4537 C   0  0  0  0  0  0  0  0  0  0  0  0
    7.9824    1.3626   -2.7098 F   0  0  0  0  0  0  0  0  0  0  0  0
    6.1434    1.4613   -1.2158 C   0  0  0  0  0  0  0  0  0  0  0  0
    1.3410    1.2467   -0.2188 C   0  0  0  0  0  0  0  0  0  0  0  0
    0.0818    0.6635   -0.8634 C   0  0  0  0  0  0  0  0  0  0  0  0
   -2.8320   -1.0612   -0.2568 C   0  0  0  0  0  0  0  0  0  0  0  0
   -4.2039   -0.9034   -0.0688 C   0  0  0  0  0  0  0  0  0  0  0  0
   -4.7246    0.2008    0.5359 N   0  0  0  0  0  0  0  0  0  0  0  0
   -4.7972   -2.0256   -0.6064 C   0  0  0  0  0  0  0  0  0  0  0  0
   -6.1347   -2.3685   -0.6799 C   0  0  0  0  0  0  0  0  0  0  0  0
   -7.3368   -1.3021   -0.0303 Cl  0  0  0  0  0  0  0  0  0  0  0  0
   -6.4418   -3.5555   -1.2738 N   0  0  0  0  0  0  0  0  0  0  0  0
   -5.4713   -4.3508   -1.7640 C   0  0  0  0  0  0  0  0  0  0  0  0
   -4.1347   -4.0068   -1.6899 C   0  0  0  0  0  0  0  0  0  0  0  0
   -3.7943   -2.8146   -1.0960 C   0  0  0  0  0  0  0  0  0  0  0  0
   -2.5912   -2.2319   -0.8868 N   0  0  0  0  0  0  0  0  0  0  0  0
   -1.3100   -2.7751   -1.2927 C   0  0  0  0  0  0  0  0  0  0  0  0
   -6.0965    3.5864    3.0848 H   0  0  0  0  0  0  0  0  0  0  0  0
   -5.1291    3.4020    4.6496 H   0  0  0  0  0  0  0  0  0  0  0  0
   -4.4330    4.2470    3.1747 H   0  0  0  0  0  0  0  0  0  0  0  0
   -5.5110    2.6083    1.2680 H   0  0  0  0  0  0  0  0  0  0  0  0
   -3.8864    3.3065    1.4532 H   0  0  0  0  0  0  0  0  0  0  0  0
   -0.3285   -1.9415    1.2252 H   0  0  0  0  0  0  0  0  0  0  0  0
    0.2241   -0.4452    1.9512 H   0  0  0  0  0  0  0  0  0  0  0  0
    2.1261   -1.8657    0.7917 H   0  0  0  0  0  0  0  0  0  0  0  0
    1.4029   -1.3186   -0.7393 H   0  0  0  0  0  0  0  0  0  0  0  0
    3.7298   -0.1908   -0.7853 H   0  0  0  0  0  0  0  0  0  0  0  0
    3.9625   -0.4204    0.9942 H   0  0  0  0  0  0  0  0  0  0  0  0
    3.8026    2.2419   -0.5370 H   0  0  0  0  0  0  0  0  0  0  0  0
    4.0351    2.0759    1.2728 H   0  0  0  0  0  0  0  0  0  0  0  0
    6.1133    1.1155    2.1042 H   0  0  0  0  0  0  0  0  0  0  0  0
    8.5572    0.8204    1.6749 H   0  0  0  0  0  0  0  0  0  0  0  0
    5.4534    1.6428   -2.0265 H   0  0  0  0  0  0  0  0  0  0  0  0
    1.9397    1.6407   -1.0855 H   0  0  0  0  0  0  0  0  0  0  0  0
    1.0810    2.1133    0.3894 H   0  0  0  0  0  0  0  0  0  0  0  0
   -0.5268    1.5831   -1.1259 H   0  0  0  0  0  0  0  0  0  0  0  0
    0.3333    0.1382   -1.7822 H   0  0  0  0  0  0  0  0  0  0  0  0
   -5.7171   -5.2896   -2.2335 H   0  0  0  0  0  0  0  0  0  0  0  0
   -3.3435   -4.6319   -2.0774 H   0  0  0  0  0  0  0  0  0  0  0  0
   -1.5370   -3.4568   -2.1731 H   0  0  0  0  0  0  0  0  0  0  0  0
   -0.6446   -2.0132   -1.6996 H   0  0  0  0  0  0  0  0  0  0  0  0
   -0.8626   -3.4401   -0.5271 H   0  0  0  0  0  0  0  0  0  0  0  0
  1  2  1  0
  2  3  1  0
  3  4  1  0
  4  5  2  0
  5  6  1  0
  6  7  1  0
  7  8  1  0
  8  9  1  0
  9 10  1  0
 10 11  1  0
 11 12  1  0
 12 13  1  0
 13 14  2  0
 14 15  1  0
 15 16  2  0
 16 17  1  0
 16 18  1  0
 18 19  1  0
 18 20  2  0
 10 21  1  0
 21 22  1  0
  6 23  2  0
 23 24  1  0
 24 25  2  0
 24 26  1  0
 26 27  2  0
 27 28  1  0
 27 29  1  0
 29 30  2  0
 30 31  1  0
 31 32  2  0
 32 33  1  0
 33 34  1  0
 25  4  1  0
 32 26  1  0
 22  7  1  0
 33 23  1  0
 20 13  1  0
  1 35  1  0
  1 36  1  0
  1 37  1  0
  3 38  1  0
  3 39  1  0
  8 40  1  0
  8 41  1  0
  9 42  1  0
  9 43  1  0
 11 44  1  0
 11 45  1  0
 12 46  1  0
 12 47  1  0
 14 48  1  0
 15 49  1  0
 20 50  1  0
 21 51  1  0
 21 52  1  0
 22 53  1  0
 22 54  1  0
 30 55  1  0
 31 56  1  0
 34 57  1  0
 34 58  1  0
 34 59  1  0
M  END
$$$$
