@<TRIPOS>MOLECULE
*****
 59 63 0 0 0
SMALL
GASTEIGER

@<TRIPOS>ATOM
      1 C          -5.1042    3.4226    3.5441 C.3     1  UNL1        0.0370
      2 O          -4.5856    2.2387    3.0205 O.3     1  UNL1       -0.3753
      3 C          -4.4877    2.4091    1.6439 C.3     1  UNL1        0.1068
      4 C          -3.9389    1.1898    0.9791 C.ar    1  UNL1        0.1573
      5 N          -2.6233    1.0552    0.8079 N.ar    1  UNL1       -0.2128
      6 C          -2.0404   -0.0337    0.2071 C.ar    1  UNL1        0.1493
      7 N          -0.6466   -0.1260    0.0986 N.pl3   1  UNL1       -0.3110
      8 C           0.1154   -0.9979    0.9514 C.3     1  UNL1        0.0264
      9 C           1.5102   -1.0928    0.3376 C.3     1  UNL1        0.0147
     10 N           2.0968    0.2291    0.4117 N.3     1  UNL1       -0.2990
     11 C           3.5011    0.2392    0.2114 C.3     1  UNL1        0.0030
     12 C           4.1392    1.5821    0.2895 C.3     1  UNL1       -0.0148
     13 C           5.6168    1.4006    0.0557 C.ar    1  UNL1       -0.0433
     14 C           6.4931    1.1687    1.0977 C.ar    1  UNL1       -0.0556
     15 C           7.8548    1.0041    0.8596 C.ar    1  UNL1       -0.0233
     16 C           8.3639    1.0675   -0.4143 C.ar    1  UNL1        0.1584
     17 F           9.7070    0.8998   -0.5974 F       1  UNL1       -0.2025
     18 C           7.5069    1.2964   -1.4537 C.ar    1  UNL1        0.1587
     19 F           7.9824    1.3626   -2.7098 F       1  UNL1       -0.2025
     20 C           6.1434    1.4613   -1.2158 C.ar    1  UNL1       -0.0204
     21 C           1.3410    1.2467   -0.2188 C.3     1  UNL1        0.0147
     22 C           0.0818    0.6635   -0.8634 C.3     1  UNL1        0.0264
     23 C          -2.8320   -1.0612   -0.2568 C.ar    1  UNL1        0.1090
     24 C          -4.2039   -0.9034   -0.0688 C.ar    1  UNL1        0.1048
     25 N          -4.7246    0.2008    0.5359 N.ar    1  UNL1       -0.2273
     26 C          -4.7972   -2.0256   -0.6064 C.ar    1  UNL1        0.0628
     27 C          -6.1347   -2.3685   -0.6799 C.ar    1  UNL1        0.1404
     28 CL         -7.3368   -1.3021   -0.0303 Cl      1  UNL1       -0.0613
     29 N          -6.4418   -3.5555   -1.2738 N.ar    1  UNL1       -0.2427
     30 C          -5.4713   -4.3508   -1.7640 C.ar    1  UNL1        0.0312
     31 C          -4.1347   -4.0068   -1.6899 C.ar    1  UNL1       -0.0193
     32 C          -3.7943   -2.8146   -1.0960 C.ar    1  UNL1        0.0558
     33 N          -2.5912   -2.2319   -0.8868 N.ar    1  UNL1       -0.3389
     34 C          -1.3100   -2.7751   -1.2927 C.3     1  UNL1        0.0126
     35 H          -6.0965    3.5864    3.0848 H       1  UNL1        0.0524
     36 H          -5.1291    3.4020    4.6496 H       1  UNL1        0.0524
     37 H          -4.4330    4.2470    3.1747 H       1  UNL1        0.0524
     38 H          -5.5110    2.6083    1.2680 H       1  UNL1        0.0641
     39 H          -3.8864    3.3065    1.4532 H       1  UNL1        0.0641
     40 H          -0.3285   -1.9415    1.2252 H       1  UNL1        0.0477
     41 H           0.2241   -0.4452    1.9512 H       1  UNL1        0.0477
     42 H           2.1261   -1.8657    0.7917 H       1  UNL1        0.0442
     43 H           1.4029   -1.3186   -0.7393 H       1  UNL1        0.0442
     44 H           3.7298   -0.1908   -0.7853 H       1  UNL1        0.0430
     45 H           3.9625   -0.4204    0.9942 H       1  UNL1        0.0430
     46 H           3.8026    2.2419   -0.5370 H       1  UNL1        0.0326
     47 H           4.0351    2.0759    1.2728 H       1  UNL1        0.0326
     48 H           6.1133    1.1155    2.1042 H       1  UNL1        0.0621
     49 H           8.5572    0.8204    1.6749 H       1  UNL1        0.0647
     50 H           5.4534    1.6428   -2.0265 H       1  UNL1        0.0650
     51 H           1.9397    1.6407   -1.0855 H       1  UNL1        0.0442
     52 H           1.0810    2.1133    0.3894 H       1  UNL1        0.0442
     53 H          -0.5268    1.5831   -1.1259 H       1  UNL1        0.0477
     54 H           0.3333    0.1382   -1.7822 H       1  UNL1        0.0477
     55 H          -5.7171   -5.2896   -2.2335 H       1  UNL1        0.0831
     56 H          -3.3435   -4.6319   -2.0774 H       1  UNL1        0.0653
     57 H          -1.5370   -3.4568   -2.1731 H       1  UNL1        0.0456
     58 H          -0.6446   -2.0132   -1.6996 H       1  UNL1        0.0456
     59 H          -0.8626   -3.4401   -0.5271 H       1  UNL1        0.0456
@<TRIPOS>BOND
     1     1     2    1
     2     2     3    1
     3     3     4    1
     4     4     5   ar
     5     5     6   ar
     6     6     7    1
     7     7     8    1
     8     8     9    1
     9     9    10    1
    10    10    11    1
    11    11    12    1
    12    12    13    1
    13    13    14   ar
    14    14    15   ar
    15    15    16   ar
    16    16    17    1
    17    16    18   ar
    18    18    19    1
    19    18    20   ar
    20    10    21    1
    21    21    22    1
    22     6    23   ar
    23    23    24   ar
    24    24    25   ar
    25    24    26   ar
    26    26    27   ar
    27    27    28    1
    28    27    29   ar
    29    29    30   ar
    30    30    31   ar
    31    31    32   ar
    32    32    33   ar
    33    33    34    1
    34    25     4   ar
    35    32    26   ar
    36    22     7    1
    37    33    23   ar
    38    20    13   ar
    39     1    35    1
    40     1    36    1
    41     1    37    1
    42     3    38    1
    43     3    39    1
    44     8    40    1
    45     8    41    1
    46     9    42    1
    47     9    43    1
    48    11    44    1
    49    11    45    1
    50    12    46    1
    51    12    47    1
    52    14    48    1
    53    15    49    1
    54    20    50    1
    55    21    51    1
    56    21    52    1
    57    22    53    1
    58    22    54    1
    59    30    55    1
    60    31    56    1
    61    34    57    1
    62    34    58    1
    63    34    59    1
