
     RDKit          3D

 41 43  0  0  0  0  0  0  0  0999 V2000
   -6.3119    2.6540    1.6922 F   0  0  0  0  0  0  0  0  0  0  0  0
   -6.5798    1.3142    2.0041 C   0  0  0  0  0  0  0  0  0  0  0  0
   -7.9336    1.1165    2.0786 F   0  0  0  0  0  0  0  0  0  0  0  0
   -5.9296    1.0422    3.1773 F   0  0  0  0  0  0  0  0  0  0  0  0
   -6.0087    0.5363    0.8565 C   0  0  0  0  0  0  0  0  0  0  0  0
   -4.7509    0.8488    0.3529 C   0  0  0  0  0  0  0  0  0  0  0  0
   -4.1782    0.1517   -0.7150 C   0  0  0  0  0  0  0  0  0  0  0  0
   -2.8853    0.6239   -1.0817 N   0  0  0  0  0  0  0  0  0  0  0  0
   -1.7557    0.0488   -0.4559 C   0  0  0  0  0  0  0  0  0  0  0  0
   -1.7283   -0.8579    0.4144 O   0  0  0  0  0  0  0  0  0  0  0  0
   -0.4566    0.4833   -0.7860 N   0  0  0  0  0  0  0  0  0  0  0  0
    0.8099    0.0589   -0.2956 C   0  0  0  0  0  0  0  0  0  0  0  0
    1.3477    0.6962    0.8089 C   0  0  0  0  0  0  0  0  0  0  0  0
    2.5773    0.2946    1.2965 C   0  0  0  0  0  0  0  0  0  0  0  0
    3.2673   -0.7339    0.6898 C   0  0  0  0  0  0  0  0  0  0  0  0
    4.5010   -1.2562    1.0481 O   0  0  0  0  0  0  0  0  0  0  0  0
    5.6122   -0.6538    0.4469 C   0  0  0  0  0  0  0  0  0  0  0  0
    6.8546   -1.1214    0.7574 C   0  0  0  0  0  0  0  0  0  0  0  0
    7.9756   -0.5478    0.1802 C   0  0  0  0  0  0  0  0  0  0  0  0
    7.8511    0.4789   -0.6947 N   0  0  0  0  0  0  0  0  0  0  0  0
    6.6359    0.9698   -1.0272 C   0  0  0  0  0  0  0  0  0  0  0  0
    5.5249    0.3979   -0.4523 C   0  0  0  0  0  0  0  0  0  0  0  0
    2.7216   -1.3709   -0.4204 C   0  0  0  0  0  0  0  0  0  0  0  0
    1.4942   -0.9727   -0.9100 C   0  0  0  0  0  0  0  0  0  0  0  0
   -4.8884   -0.8837   -1.2889 C   0  0  0  0  0  0  0  0  0  0  0  0
   -6.1390   -1.2154   -0.8092 C   0  0  0  0  0  0  0  0  0  0  0  0
   -6.6840   -0.5089    0.2502 C   0  0  0  0  0  0  0  0  0  0  0  0
   -4.2479    1.6742    0.8515 H   0  0  0  0  0  0  0  0  0  0  0  0
   -2.7287    1.3850   -1.8003 H   0  0  0  0  0  0  0  0  0  0  0  0
   -0.2816    1.2463   -1.5053 H   0  0  0  0  0  0  0  0  0  0  0  0
    0.8578    1.5135    1.3352 H   0  0  0  0  0  0  0  0  0  0  0  0
    3.0858    0.7219    2.1486 H   0  0  0  0  0  0  0  0  0  0  0  0
    6.9582   -1.9488    1.4621 H   0  0  0  0  0  0  0  0  0  0  0  0
    8.9193   -0.9676    0.4717 H   0  0  0  0  0  0  0  0  0  0  0  0
    6.5102    1.7999   -1.7326 H   0  0  0  0  0  0  0  0  0  0  0  0
    4.5302    0.7734   -0.7018 H   0  0  0  0  0  0  0  0  0  0  0  0
    3.1703   -2.1921   -0.9820 H   0  0  0  0  0  0  0  0  0  0  0  0
    1.0040   -1.4250   -1.7758 H   0  0  0  0  0  0  0  0  0  0  0  0
   -4.3884   -1.3798   -2.1088 H   0  0  0  0  0  0  0  0  0  0  0  0
   -6.6760   -2.0317   -1.2766 H   0  0  0  0  0  0  0  0  0  0  0  0
   -7.6565   -0.7623    0.6277 H   0  0  0  0  0  0  0  0  0  0  0  0
  1  2  1  0
  2  3  1  0
  2  4  1  0
  2  5  1  0
  5  6  2  0
  6  7  1  0
  7  8  1  0
  8  9  1  0
  9 10  2  0
  9 11  1  0
 11 12  1  0
 12 13  2  0
 13 14  1  0
 14 15  2  0
 15 16  1  0
 16 17  1  0
 17 18  2  0
 18 19  1  0
 19 20  2  0
 20 21  1  0
 21 22  2  0
 15 23  1  0
 23 24  2  0
  7 25  2  0
 25 26  1  0
 26 27  2  0
 27  5  1  0
 24 12  1  0
 22 17  1  0
  6 28  1  0
  8 29  1  0
 11 30  1  0
 13 31  1  0
 14 32  1  0
 18 33  1  0
 19 34  1  0
 21 35  1  0
 22 36  1  0
 23 37  1  0
 24 38  1  0
 25 39  1  0
 26 40  1  0
 27 41  1  0
M  END
$$$$
