@<TRIPOS>MOLECULE
*****
 76 80 0 0 0
SMALL
GASTEIGER

@<TRIPOS>ATOM
      1 C          10.4833    2.7548    1.8212 C.3     1  UNL1       -0.0306
      2 C           9.3883    2.0917    1.2141 C.3     1  UNL1        0.0885
      3 O           8.3883    1.4861    0.6612 O.3     1  UNL1       -0.4744
      4 C           7.7797    0.2753    0.6520 C.ar    1  UNL1        0.2555
      5 N           8.1956   -0.7730    1.4153 N.ar    1  UNL1       -0.1317
      6 N           7.3728   -1.7586    1.1516 N.ar    1  UNL1       -0.2692
      7 C           7.4322   -3.0909    1.7766 C.3     1  UNL1        0.0304
      8 C           6.4210   -1.3918    0.2339 C.ar    1  UNL1        0.0503
      9 C           6.6889   -0.0919   -0.0790 C.ar    1  UNL1        0.1152
     10 N           6.0025    0.7470   -0.9825 N.pl3   1  UNL1       -0.2782
     11 C           4.9321    0.4057   -1.8227 C.ar    1  UNL1        0.2202
     12 N           5.1956    0.1278   -3.1384 N.ar    1  UNL1       -0.2224
     13 C           4.1772   -0.1380   -3.9653 C.ar    1  UNL1        0.0361
     14 C           2.8767   -0.1266   -3.4847 C.ar    1  UNL1       -0.0062
     15 C           1.7818   -0.4527   -4.4071 C.3     1  UNL1       -0.0362
     16 C           2.6270    0.1537   -2.1703 C.ar    1  UNL1        0.0809
     17 C           1.2573    0.1733   -1.6767 C.ar    1  UNL1        0.0258
     18 C           0.2900    1.1216   -2.0796 C.ar    1  UNL1        0.0120
     19 N          -0.8417    0.8596   -1.3578 N.ar    1  UNL1       -0.3586
     20 C          -0.6401   -0.1589   -0.5630 C.ar    1  UNL1        0.0686
     21 C          -1.5297   -0.7501    0.3513 C.ar    1  UNL1        0.0576
     22 N          -2.8470   -0.2059    0.4884 N.am    1  UNL1       -0.2825
     23 C          -3.6098   -0.2451    1.6581 C.2     1  UNL1        0.2342
     24 O          -3.0775   -0.8169    2.6745 O.2     1  UNL1       -0.2738
     25 C          -4.9618    0.2896    1.8778 C.3     1  UNL1        0.0850
     26 C          -4.8969    1.3457    2.9593 C.3     1  UNL1       -0.0409
     27 N          -5.6973    0.6806    0.7060 N.3     1  UNL1       -0.2866
     28 C          -6.6951    1.6947    1.0344 C.3     1  UNL1        0.0127
     29 C          -8.0924    1.2386    0.7772 C.3     1  UNL1        0.0115
     30 N          -8.1939    1.0229   -0.6618 N.3     1  UNL1       -0.3027
     31 C          -9.5669    0.7299   -1.0487 C.3     1  UNL1       -0.0127
     32 C          -7.2672   -0.0273   -1.0126 C.3     1  UNL1        0.0140
     33 C          -6.4182   -0.4802    0.1706 C.3     1  UNL1        0.0211
     34 C          -5.5192   -1.5780   -0.3026 C.3     1  UNL1       -0.0483
     35 C          -1.0987   -1.8017    1.0802 C.ar    1  UNL1       -0.0384
     36 C           0.2089   -2.2786    0.9142 C.ar    1  UNL1       -0.0593
     37 C           1.0741   -1.7024    0.0297 C.ar    1  UNL1       -0.0518
     38 C           0.6471   -0.6014   -0.7431 C.ar    1  UNL1        0.0107
     39 N           3.6674    0.4074   -1.3769 N.ar    1  UNL1       -0.2139
     40 H          11.1500    3.3147    1.0617 H       1  UNL1        0.0262
     41 H          10.2105    3.6069    2.5287 H       1  UNL1        0.0262
     42 H          11.2339    2.1671    2.4327 H       1  UNL1        0.0262
     43 H           9.3850    1.1401    2.2260 H       1  UNL1        0.0694
     44 H          10.2638    1.2470    0.5925 H       1  UNL1        0.0694
     45 H           6.5929   -3.7040    1.4236 H       1  UNL1        0.0473
     46 H           7.2478   -2.9609    2.8782 H       1  UNL1        0.0473
     47 H           8.3725   -3.5871    1.5772 H       1  UNL1        0.0473
     48 H           5.6393   -2.0659   -0.1404 H       1  UNL1        0.0846
     49 H           6.3295    1.7659   -1.0401 H       1  UNL1        0.1552
     50 H           4.3465   -0.3502   -5.0206 H       1  UNL1        0.0834
     51 H           1.2447   -1.3352   -3.9383 H       1  UNL1        0.0279
     52 H           1.0541    0.3637   -4.5511 H       1  UNL1        0.0279
     53 H           2.1985   -0.7824   -5.3824 H       1  UNL1        0.0279
     54 H           0.4870    1.8696   -2.8118 H       1  UNL1        0.0814
     55 H          -1.7034    1.4433   -1.4930 H       1  UNL1        0.1654
     56 H          -3.2740    0.2555   -0.3459 H       1  UNL1        0.1549
     57 H          -5.5551   -0.5640    2.3237 H       1  UNL1        0.0556
     58 H          -4.6723    2.3462    2.5376 H       1  UNL1        0.0249
     59 H          -5.7623    1.2978    3.6320 H       1  UNL1        0.0249
     60 H          -3.9906    1.0939    3.5932 H       1  UNL1        0.0249
     61 H          -6.5814    2.1493    2.0183 H       1  UNL1        0.0439
     62 H          -6.5047    2.5350    0.2864 H       1  UNL1        0.0439
     63 H          -8.7958    2.0903    1.0376 H       1  UNL1        0.0439
     64 H          -8.4507    0.4049    1.3872 H       1  UNL1        0.0439
     65 H          -9.9767    1.4999   -1.7601 H       1  UNL1        0.0391
     66 H          -9.5783   -0.2683   -1.4833 H       1  UNL1        0.0391
     67 H         -10.1661    0.7292   -0.0927 H       1  UNL1        0.0391
     68 H          -6.6013    0.2002   -1.8515 H       1  UNL1        0.0442
     69 H          -7.8996   -0.8966   -1.3178 H       1  UNL1        0.0442
     70 H          -7.0351   -0.9252    0.9900 H       1  UNL1        0.0473
     71 H          -4.8754   -1.3132   -1.1577 H       1  UNL1        0.0245
     72 H          -6.2031   -2.4199   -0.6356 H       1  UNL1        0.0245
     73 H          -4.9576   -1.9906    0.5788 H       1  UNL1        0.0245
     74 H          -1.7251   -2.3328    1.8088 H       1  UNL1        0.0637
     75 H           0.5307   -3.1266    1.5153 H       1  UNL1        0.0618
     76 H           2.0873   -2.0337   -0.1183 H       1  UNL1        0.0624
@<TRIPOS>BOND
     1     1     2    1
     2     2     3    1
     3     3     4    1
     4     4     5   ar
     5     5     6   ar
     6     6     7    1
     7     6     8   ar
     8     8     9   ar
     9     9    10    1
    10    10    11    1
    11    11    12   ar
    12    12    13   ar
    13    13    14   ar
    14    14    15    1
    15    14    16   ar
    16    16    17    1
    17    17    18   ar
    18    18    19   ar
    19    19    20   ar
    20    20    21   ar
    21    21    22    1
    22    22    23   am
    23    23    24    2
    24    23    25    1
    25    25    26    1
    26    25    27    1
    27    27    28    1
    28    28    29    1
    29    29    30    1
    30    30    31    1
    31    30    32    1
    32    32    33    1
    33    33    34    1
    34    21    35   ar
    35    35    36   ar
    36    36    37   ar
    37    37    38   ar
    38    16    39   ar
    39     9     4   ar
    40    39    11   ar
    41    38    17   ar
    42    38    20   ar
    43    33    27    1
    44     1    40    1
    45     1    41    1
    46     1    42    1
    47     2    43    1
    48     2    44    1
    49     7    45    1
    50     7    46    1
    51     7    47    1
    52     8    48    1
    53    10    49    1
    54    13    50    1
    55    15    51    1
    56    15    52    1
    57    15    53    1
    58    18    54    1
    59    19    55    1
    60    22    56    1
    61    25    57    1
    62    26    58    1
    63    26    59    1
    64    26    60    1
    65    28    61    1
    66    28    62    1
    67    29    63    1
    68    29    64    1
    69    31    65    1
    70    31    66    1
    71    31    67    1
    72    32    68    1
    73    32    69    1
    74    33    70    1
    75    34    71    1
    76    34    72    1
    77    34    73    1
    78    35    74    1
    79    36    75    1
    80    37    76    1
