@<TRIPOS>MOLECULE
*****
 48 50 0 0 0
SMALL
GASTEIGER

@<TRIPOS>ATOM
      1 N          -7.4046    0.7544    1.3704 N.pl3   1  UNL1       -0.3289
      2 C          -6.3431    0.9492    0.4254 C.ar    1  UNL1        0.1950
      3 N          -5.0780    0.6026    0.7756 N.ar    1  UNL1       -0.1963
      4 C          -4.0510    0.7753   -0.0983 C.ar    1  UNL1        0.1712
      5 C          -4.3854    1.3118   -1.3261 C.ar    1  UNL1        0.1721
      6 N          -3.2491    1.3922   -2.0108 N.ar    1  UNL1       -0.2286
      7 C          -2.2256    0.9301   -1.2638 C.ar    1  UNL1        0.1005
      8 N          -2.7134    0.5430   -0.0702 N.ar    1  UNL1       -0.2854
      9 C          -2.1165   -0.0304    1.1409 C.3     1  UNL1        0.1667
     10 O          -0.7696    0.2153    1.1500 O.3     1  UNL1       -0.3456
     11 C          -0.1074   -0.9860    0.9274 C.3     1  UNL1        0.1134
     12 C           1.1529   -0.6993    0.1622 C.3     1  UNL1        0.0879
     13 O           1.9166   -1.8221   -0.1301 O.3     1  UNL1       -0.2837
     14 P           3.2701   -1.2669   -0.9832 P.3     1  UNL1        0.4835
     15 O           3.8449   -2.4351   -2.0579 O.3     1  UNL1       -0.3022
     16 O           2.8926   -0.0200   -1.7357 O.2     1  UNL1       -0.2269
     17 O           4.4721   -0.9989    0.1630 O.3     1  UNL1       -0.1858
     18 P           5.0108    0.5784    0.2350 P.3     1  UNL1        0.4918
     19 O           5.0555    1.3641   -1.2388 O.3     1  UNL1       -0.3019
     20 O           4.1488    1.4285    1.1706 O.2     1  UNL1       -0.2265
     21 O           6.5434    0.5253    0.9943 O.3     1  UNL1       -0.1859
     22 P           7.7375    1.1864    0.0261 P.3     1  UNL1        0.4808
     23 O           7.7644    0.4150   -1.4778 O.3     1  UNL1       -0.3023
     24 O           7.5683    2.8557   -0.0961 O.3     1  UNL1       -0.3023
     25 O           9.0627    0.8919    0.6867 O.2     1  UNL1       -0.2271
     26 C          -1.0650   -1.9080    0.2434 C.3     1  UNL1        0.1135
     27 O          -0.7981   -3.2411    0.4242 O.3     1  UNL1       -0.3864
     28 C          -2.3355   -1.5282    1.0192 C.3     1  UNL1        0.1285
     29 O          -2.2062   -2.1055    2.2802 O.3     1  UNL1       -0.3847
     30 C          -5.6647    1.6708   -1.7022 C.ar    1  UNL1        0.2803
     31 O          -5.8996    2.1600   -2.8513 O.2     1  UNL1       -0.2654
     32 N          -6.6515    1.4752   -0.7867 N.ar    1  UNL1       -0.2934
     33 H          -7.8979    1.6810    1.5277 H       1  UNL1        0.1451
     34 H          -7.4964   -0.2359    1.7218 H       1  UNL1        0.1451
     35 H          -1.1562    0.8190   -1.4316 H       1  UNL1        0.1030
     36 H          -2.6015    0.3852    2.0389 H       1  UNL1        0.0866
     37 H           0.1139   -1.3944    1.9343 H       1  UNL1        0.0647
     38 H           0.9925   -0.1303   -0.7524 H       1  UNL1        0.0592
     39 H           1.7925   -0.0915    0.8542 H       1  UNL1        0.0592
     40 H           3.4839   -2.3444   -2.9723 H       1  UNL1        0.2220
     41 H           5.9045    1.8302   -1.4260 H       1  UNL1        0.2220
     42 H           7.1762   -0.3930   -1.5096 H       1  UNL1        0.2220
     43 H           6.8849    3.1410    0.5802 H       1  UNL1        0.2220
     44 H          -1.1898   -1.6125   -0.8242 H       1  UNL1        0.0647
     45 H          -1.0254   -3.7659   -0.3720 H       1  UNL1        0.2100
     46 H          -3.2427   -1.8078    0.4842 H       1  UNL1        0.0665
     47 H          -1.4828   -2.7936    2.3065 H       1  UNL1        0.2101
     48 H          -7.6319    1.7292   -1.0209 H       1  UNL1        0.1716
@<TRIPOS>BOND
     1     1     2    1
     2     2     3   ar
     3     3     4   ar
     4     4     5   ar
     5     5     6   ar
     6     6     7   ar
     7     7     8   ar
     8     8     9    1
     9     9    10    1
    10    10    11    1
    11    11    12    1
    12    12    13    1
    13    13    14    1
    14    14    15    1
    15    14    16    2
    16    14    17    1
    17    17    18    1
    18    18    19    1
    19    18    20    2
    20    18    21    1
    21    21    22    1
    22    22    23    1
    23    22    24    1
    24    22    25    2
    25    11    26    1
    26    26    27    1
    27    26    28    1
    28    28    29    1
    29     5    30   ar
    30    30    31    2
    31    30    32   ar
    32    32     2   ar
    33     8     4   ar
    34    28     9    1
    35     1    33    1
    36     1    34    1
    37     7    35    1
    38     9    36    1
    39    11    37    1
    40    12    38    1
    41    12    39    1
    42    15    40    1
    43    19    41    1
    44    23    42    1
    45    24    43    1
    46    26    44    1
    47    27    45    1
    48    28    46    1
    49    29    47    1
    50    32    48    1
