@<TRIPOS>MOLECULE
*****
 37 41 0 0 0
SMALL
GASTEIGER

@<TRIPOS>ATOM
      1 O          -1.0352   -1.8072    0.3859 O.2     1  UNL1       -0.2684
      2 C          -1.5539   -0.7446   -0.0145 C.2     1  UNL1        0.2648
      3 N          -2.9648   -0.7543   -0.1869 N.am    1  UNL1       -0.3072
      4 C          -3.7428   -1.9561    0.0962 C.3     1  UNL1        0.0236
      5 C          -4.8312   -2.2968   -0.8662 C.3     1  UNL1       -0.0328
      6 C          -5.1464   -1.8546    0.5096 C.3     1  UNL1       -0.0328
      7 C          -0.8332    0.4879   -0.3145 C.ar    1  UNL1        0.1536
      8 N          -1.4209    1.6633   -0.6858 N.ar    1  UNL1       -0.2211
      9 C          -0.4754    2.5934   -0.8691 C.ar    1  UNL1        0.1556
     10 C          -0.5031    3.9362   -1.2423 C.ar    1  UNL1       -0.0159
     11 C           0.6423    4.6893   -1.3608 C.ar    1  UNL1       -0.0384
     12 C           1.8440    4.0665   -1.0949 C.ar    1  UNL1        0.0485
     13 N           1.8410    2.7678   -0.7363 N.ar    1  UNL1       -0.1729
     14 N           0.7315    2.0602   -0.6275 N.ar    1  UNL1       -0.2119
     15 C           0.5124    0.7502   -0.2830 C.ar    1  UNL1        0.1053
     16 C           1.5825   -0.1833    0.0257 C.ar    1  UNL1        0.0063
     17 C           1.6992   -1.4149   -0.5724 C.ar    1  UNL1       -0.0503
     18 C           2.7122   -2.3040   -0.2578 C.ar    1  UNL1       -0.0320
     19 C           3.6443   -1.9564    0.6854 C.ar    1  UNL1        0.1093
     20 N           4.7339   -2.5524    1.2255 N.ar    1  UNL1       -0.2161
     21 C           5.2874   -1.7185    2.1374 C.ar    1  UNL1        0.1831
     22 O           4.5570   -0.6363    2.1582 O.2     1  UNL1       -0.4424
     23 C           3.5579   -0.7218    1.3086 C.ar    1  UNL1        0.1557
     24 C           2.5278    0.1541    0.9733 C.ar    1  UNL1       -0.0079
     25 H          -3.5002    0.0937   -0.5215 H       1  UNL1        0.1493
     26 H          -3.1482   -2.8267    0.4454 H       1  UNL1        0.0498
     27 H          -5.0263   -3.3678   -1.1291 H       1  UNL1        0.0284
     28 H          -4.9908   -1.5977   -1.7131 H       1  UNL1        0.0284
     29 H          -5.6708   -0.8877    0.6183 H       1  UNL1        0.0284
     30 H          -5.5180   -2.6105    1.2526 H       1  UNL1        0.0284
     31 H          -1.4421    4.4015   -1.4442 H       1  UNL1        0.0655
     32 H           0.6285    5.7368   -1.6512 H       1  UNL1        0.0634
     33 H           2.7852    4.6173   -1.1735 H       1  UNL1        0.0847
     34 H           1.0166   -1.7334   -1.3201 H       1  UNL1        0.0625
     35 H           2.7945   -3.2614   -0.7287 H       1  UNL1        0.0640
     36 H           6.1782   -1.9324    2.7321 H       1  UNL1        0.1255
     37 H           2.5270    1.1006    1.5035 H       1  UNL1        0.0661
@<TRIPOS>BOND
     1     1     2    2
     2     2     3   am
     3     3     4    1
     4     4     5    1
     5     5     6    1
     6     2     7    1
     7     7     8   ar
     8     8     9   ar
     9     9    10   ar
    10    10    11   ar
    11    11    12   ar
    12    12    13   ar
    13    13    14   ar
    14    14    15   ar
    15    15    16    1
    16    16    17   ar
    17    17    18   ar
    18    18    19   ar
    19    19    20   ar
    20    20    21   ar
    21    21    22   ar
    22    22    23   ar
    23    23    24   ar
    24     6     4    1
    25    15     7   ar
    26    24    16   ar
    27    14     9   ar
    28    23    19   ar
    29     3    25    1
    30     4    26    1
    31     5    27    1
    32     5    28    1
    33     6    29    1
    34     6    30    1
    35    10    31    1
    36    11    32    1
    37    12    33    1
    38    17    34    1
    39    18    35    1
    40    21    36    1
    41    24    37    1
