@<TRIPOS>MOLECULE
*****
 18 17 0 0 0
SMALL
GASTEIGER

@<TRIPOS>ATOM
      1 O           1.5089   -0.3938    1.6876 O.3     1  UNL1       -0.3785
      2 C           1.2676    0.4368    0.5993 C.3     1  UNL1        0.1752
      3 C          -0.0920    0.1066   -0.0317 C.3     1  UNL1        0.0954
      4 O          -1.1008    0.2894    0.9097 O.3     1  UNL1       -0.2836
      5 P          -2.5923   -0.0801    0.1932 P.3     1  UNL1        0.4725
      6 O          -2.8716    1.0616   -1.0220 O.3     1  UNL1       -0.3026
      7 O          -2.4671   -1.6330   -0.4585 O.3     1  UNL1       -0.3026
      8 O          -3.6994   -0.0617    1.1912 O.2     1  UNL1       -0.2275
      9 C           2.3293    0.3076   -0.4089 C.2     1  UNL1        0.3360
     10 O           3.4866   -0.4251   -0.5346 O.3     1  UNL1       -0.4788
     11 O           2.2176    1.0229   -1.4566 O.2     1  UNL1       -0.2480
     12 H           2.4727   -0.5571    1.8434 H       1  UNL1        0.2106
     13 H           1.1884    1.4856    0.9427 H       1  UNL1        0.0734
     14 H          -0.2472    0.8236   -0.8587 H       1  UNL1        0.0597
     15 H          -0.0609   -0.9336   -0.3853 H       1  UNL1        0.0597
     16 H          -2.3790    1.8788   -0.8151 H       1  UNL1        0.2220
     17 H          -2.6034   -2.2805    0.2688 H       1  UNL1        0.2220
     18 H           3.6427   -1.0480   -1.3046 H       1  UNL1        0.2951
@<TRIPOS>BOND
     1     1     2    1
     2     2     3    1
     3     3     4    1
     4     4     5    1
     5     5     6    1
     6     5     7    1
     7     5     8    2
     8     2     9    1
     9     9    10    1
    10     9    11    2
    11     1    12    1
    12     2    13    1
    13     3    14    1
    14     3    15    1
    15     6    16    1
    16     7    17    1
    17    10    18    1
