
     RDKit          3D

 45 48  0  0  0  0  0  0  0  0999 V2000
   -3.1718    3.5064   -2.5304 C   0  0  0  0  0  0  0  0  0  0  0  0
   -1.8304    3.4082   -2.0791 O   0  0  0  0  0  0  0  0  0  0  0  0
   -1.5092    2.3478   -1.2722 C   0  0  0  0  0  0  0  0  0  0  0  0
   -0.1870    2.2802   -0.8470 C   0  0  0  0  0  0  0  0  0  0  0  0
    0.2578    1.2590   -0.0309 C   0  0  0  0  0  0  0  0  0  0  0  0
   -0.6489    0.2952    0.3585 C   0  0  0  0  0  0  0  0  0  0  0  0
   -0.0168   -0.5718    1.1244 O   0  0  0  0  0  0  0  0  0  0  0  0
    1.2461   -0.2504    1.2703 C   0  0  0  0  0  0  0  0  0  0  0  0
    2.2451   -0.9436    2.0244 N   0  0  0  0  0  0  0  0  0  0  0  0
    3.8489   -0.3045    2.0537 S   0  0  0  0  0  0  0  0  0  0  0  0
    4.6422   -1.1937    3.0013 O   0  0  0  0  0  0  0  0  0  0  0  0
    3.8182    1.0498    2.7343 O   0  0  0  0  0  0  0  0  0  0  0  0
    4.5934   -0.2378    0.4979 C   0  0  0  0  0  0  0  0  0  0  0  0
    4.0752   -0.6196   -0.7012 C   0  0  0  0  0  0  0  0  0  0  0  0
    4.7962   -0.5035   -1.8560 C   0  0  0  0  0  0  0  0  0  0  0  0
    4.0243   -1.0276   -3.3390 Cl  0  0  0  0  0  0  0  0  0  0  0  0
    6.0868    0.0032   -1.8903 C   0  0  0  0  0  0  0  0  0  0  0  0
    6.6177    0.3946   -0.6603 C   0  0  0  0  0  0  0  0  0  0  0  0
    5.8936    0.2763    0.4881 C   0  0  0  0  0  0  0  0  0  0  0  0
    6.7056    0.8116    1.9390 Cl  0  0  0  0  0  0  0  0  0  0  0  0
    1.4102    0.8825    0.5537 N   0  0  0  0  0  0  0  0  0  0  0  0
   -1.9749    0.3133   -0.0343 C   0  0  0  0  0  0  0  0  0  0  0  0
   -2.3558    1.3420   -0.8371 C   0  0  0  0  0  0  0  0  0  0  0  0
   -2.8975   -0.7225    0.3991 C   0  0  0  0  0  0  0  0  0  0  0  0
   -4.1770   -0.6208    0.8824 C   0  0  0  0  0  0  0  0  0  0  0  0
   -4.8519   -1.7510    1.2280 C   0  0  0  0  0  0  0  0  0  0  0  0
   -6.1758   -1.5783    1.7229 N   0  0  0  0  0  0  0  0  0  0  0  0
   -4.3032   -3.0098    1.1137 C   0  0  0  0  0  0  0  0  0  0  0  0
   -3.0200   -3.1359    0.6309 C   0  0  0  0  0  0  0  0  0  0  0  0
   -2.3308   -1.9885    0.2785 C   0  0  0  0  0  0  0  0  0  0  0  0
   -3.5794    2.5338   -2.8858 H   0  0  0  0  0  0  0  0  0  0  0  0
   -3.8082    3.8761   -1.7057 H   0  0  0  0  0  0  0  0  0  0  0  0
   -3.1382    4.2076   -3.3901 H   0  0  0  0  0  0  0  0  0  0  0  0
    0.5977    3.0059   -1.1109 H   0  0  0  0  0  0  0  0  0  0  0  0
    1.9565   -1.8111    2.5264 H   0  0  0  0  0  0  0  0  0  0  0  0
    3.0724   -1.0120   -0.6646 H   0  0  0  0  0  0  0  0  0  0  0  0
    6.6596    0.0961   -2.8031 H   0  0  0  0  0  0  0  0  0  0  0  0
    7.6309    0.7888   -0.7116 H   0  0  0  0  0  0  0  0  0  0  0  0
   -3.3903    1.4142   -1.1828 H   0  0  0  0  0  0  0  0  0  0  0  0
   -4.5186    0.4073    0.9348 H   0  0  0  0  0  0  0  0  0  0  0  0
   -6.6754   -2.2310    2.3725 H   0  0  0  0  0  0  0  0  0  0  0  0
   -6.7712   -0.7555    1.4650 H   0  0  0  0  0  0  0  0  0  0  0  0
   -4.8903   -3.8797    1.4057 H   0  0  0  0  0  0  0  0  0  0  0  0
   -2.6324   -4.1377    0.5589 H   0  0  0  0  0  0  0  0  0  0  0  0
   -1.3234   -2.2137   -0.0909 H   0  0  0  0  0  0  0  0  0  0  0  0
  1  2  1  0
  2  3  1  0
  3  4  2  0
  4  5  1  0
  5  6  2  0
  6  7  1  0
  7  8  1  0
  8  9  1  0
  9 10  1  0
 10 11  2  0
 10 12  2  0
 10 13  1  0
 13 14  2  0
 14 15  1  0
 15 16  1  0
 15 17  2  0
 17 18  1  0
 18 19  2  0
 19 20  1  0
  8 21  2  0
  6 22  1  0
 22 23  2  0
 22 24  1  0
 24 25  2  0
 25 26  1  0
 26 27  1  0
 26 28  2  0
 28 29  1  0
 29 30  2  0
 23  3  1  0
 30 24  1  0
 21  5  1  0
 19 13  1  0
  1 31  1  0
  1 32  1  0
  1 33  1  0
  4 34  1  0
  9 35  1  0
 14 36  1  0
 17 37  1  0
 18 38  1  0
 23 39  1  0
 25 40  1  0
 27 41  1  0
 27 42  1  0
 28 43  1  0
 29 44  1  0
 30 45  1  0
M  END
$$$$
