@<TRIPOS>MOLECULE
*****
 58 62 0 0 0
SMALL
GASTEIGER

@<TRIPOS>ATOM
      1 C           1.4252    3.3896    0.9592 C.3     1  UNL1        0.0790
      2 O           0.5667    2.4447    0.3729 O.3     1  UNL1       -0.4914
      3 C           0.9781    1.1375    0.2279 C.ar    1  UNL1        0.1623
      4 C           2.2199    0.7489    0.6591 C.ar    1  UNL1       -0.0038
      5 C           2.7089   -0.5428    0.5510 C.ar    1  UNL1        0.0441
      6 C           3.9548   -0.9286    0.9926 C.ar    1  UNL1        0.1340
      7 N           4.8362    0.0385    1.5692 N.pl3   1  UNL1       -0.2966
      8 C           6.0282    0.4443    0.9360 C.ar    1  UNL1        0.0696
      9 C           7.2320    0.2522    1.5726 C.ar    1  UNL1       -0.0366
     10 C           8.4328    0.6109    0.9947 C.ar    1  UNL1       -0.0444
     11 C           8.4443    1.1867   -0.2703 C.ar    1  UNL1        0.0391
     12 BR         10.1058    1.6870   -1.0998 Br      1  UNL1       -0.0487
     13 C           7.2475    1.3861   -0.9193 C.ar    1  UNL1        0.0918
     14 CL          7.2788    2.1116   -2.5097 Cl      1  UNL1       -0.0794
     15 C           6.0381    1.0144   -0.3146 C.ar    1  UNL1        0.1637
     16 F           4.8911    1.2270   -0.9868 F       1  UNL1       -0.2020
     17 N           4.3107   -2.2037    0.8405 N.ar    1  UNL1       -0.2200
     18 C           3.4965   -3.1143    0.2735 C.ar    1  UNL1        0.1187
     19 N           2.2897   -2.7250   -0.1509 N.ar    1  UNL1       -0.2352
     20 C           1.8401   -1.4683   -0.0429 C.ar    1  UNL1        0.0797
     21 C           0.5889   -1.0981   -0.4835 C.ar    1  UNL1        0.0098
     22 C           0.1252    0.1828   -0.3670 C.ar    1  UNL1        0.1640
     23 O          -1.0980    0.6282   -0.7808 O.3     1  UNL1       -0.4880
     24 C          -2.1540   -0.0199   -1.3723 C.3     1  UNL1        0.0926
     25 C          -2.8177   -1.0641   -0.5227 C.3     1  UNL1       -0.0062
     26 C          -3.3579   -0.3501    0.7029 C.3     1  UNL1       -0.0428
     27 C          -4.6918    0.1721    0.2140 C.3     1  UNL1       -0.0239
     28 C          -5.7324   -0.0650    1.2544 C.3     1  UNL1        0.0017
     29 N          -6.8397   -0.6542    0.5667 N.3     1  UNL1       -0.3048
     30 C          -7.6168    0.3272   -0.1408 C.3     1  UNL1       -0.0127
     31 C          -6.2573   -1.5400   -0.4186 C.3     1  UNL1        0.0017
     32 C          -5.1071   -0.6830   -0.9344 C.3     1  UNL1       -0.0239
     33 C          -3.9934   -1.6273   -1.2721 C.3     1  UNL1       -0.0428
     34 H           0.9067    4.3745    1.0918 H       1  UNL1        0.0660
     35 H           1.8241    2.9814    1.8978 H       1  UNL1        0.0660
     36 H           2.3282    3.5535    0.3069 H       1  UNL1        0.0660
     37 H           2.9002    1.4590    1.1209 H       1  UNL1        0.0663
     38 H           4.6307    0.4887    2.5001 H       1  UNL1        0.1537
     39 H           7.2176   -0.2027    2.5690 H       1  UNL1        0.0637
     40 H           9.3801    0.4646    1.4778 H       1  UNL1        0.0630
     41 H           3.8649   -4.1452    0.1814 H       1  UNL1        0.1048
     42 H          -0.0221   -1.8488   -0.9418 H       1  UNL1        0.0677
     43 H          -2.8830    0.6489   -1.8710 H       1  UNL1        0.0699
     44 H          -1.7130   -0.6062   -2.2465 H       1  UNL1        0.0699
     45 H          -2.1999   -1.9050   -0.2188 H       1  UNL1        0.0334
     46 H          -3.4264   -1.0552    1.5391 H       1  UNL1        0.0272
     47 H          -2.6594    0.4780    0.9490 H       1  UNL1        0.0272
     48 H          -4.5964    1.2388   -0.0920 H       1  UNL1        0.0316
     49 H          -5.3367   -0.8274    1.9818 H       1  UNL1        0.0429
     50 H          -6.0249    0.8622    1.7955 H       1  UNL1        0.0429
     51 H          -8.3934    0.7149    0.5639 H       1  UNL1        0.0391
     52 H          -6.9947    1.1690   -0.5398 H       1  UNL1        0.0391
     53 H          -8.0849   -0.1465   -1.0509 H       1  UNL1        0.0391
     54 H          -5.8756   -2.4308    0.1383 H       1  UNL1        0.0429
     55 H          -6.8975   -1.7852   -1.2649 H       1  UNL1        0.0429
     56 H          -5.4001   -0.1157   -1.8328 H       1  UNL1        0.0316
     57 H          -3.7244   -1.5942   -2.3519 H       1  UNL1        0.0272
     58 H          -4.1937   -2.6761   -0.9403 H       1  UNL1        0.0272
@<TRIPOS>BOND
     1     1     2    1
     2     2     3    1
     3     3     4   ar
     4     4     5   ar
     5     5     6   ar
     6     6     7    1
     7     7     8    1
     8     8     9   ar
     9     9    10   ar
    10    10    11   ar
    11    11    12    1
    12    11    13   ar
    13    13    14    1
    14    13    15   ar
    15    15    16    1
    16     6    17   ar
    17    17    18   ar
    18    18    19   ar
    19    19    20   ar
    20    20    21   ar
    21    21    22   ar
    22    22    23    1
    23    23    24    1
    24    24    25    1
    25    25    26    1
    26    26    27    1
    27    27    28    1
    28    28    29    1
    29    29    30    1
    30    29    31    1
    31    31    32    1
    32    32    33    1
    33    22     3   ar
    34    33    25    1
    35    20     5   ar
    36    32    27    1
    37    15     8   ar
    38     1    34    1
    39     1    35    1
    40     1    36    1
    41     4    37    1
    42     7    38    1
    43     9    39    1
    44    10    40    1
    45    18    41    1
    46    21    42    1
    47    24    43    1
    48    24    44    1
    49    25    45    1
    50    26    46    1
    51    26    47    1
    52    27    48    1
    53    28    49    1
    54    28    50    1
    55    30    51    1
    56    30    52    1
    57    30    53    1
    58    31    54    1
    59    31    55    1
    60    32    56    1
    61    33    57    1
    62    33    58    1
