
     RDKit          3D

122121  0  0  0  0  0  0  0  0999 V2000
    9.8149   -1.8039   -0.5356 C   0  0  0  0  0  0  0  0  0  0  0  0
   11.0235   -1.0278   -0.9131 C   0  0  0  0  0  0  0  0  0  0  0  0
   11.8631   -0.6713    0.2765 C   0  0  0  0  0  0  0  0  0  0  0  0
   13.0945    0.1014   -0.0564 C   0  0  0  0  0  0  0  0  0  0  0  0
   12.8552    1.4082   -0.7350 C   0  0  0  0  0  0  0  0  0  0  0  0
   14.2062    2.0586   -0.9978 C   0  0  0  0  0  0  0  0  0  0  0  0
   15.0448    1.1749   -1.8806 C   0  0  0  0  0  0  0  0  0  0  0  0
    8.5288   -1.5200   -0.7076 C   0  0  0  0  0  0  0  0  0  0  0  0
    7.8795   -0.3543   -1.3224 C   0  0  0  0  0  0  0  0  0  0  0  0
    6.9840    0.3661   -0.3320 C   0  0  0  0  0  0  0  0  0  0  0  0
    5.8915   -0.4875    0.2233 C   0  0  0  0  0  0  0  0  0  0  0  0
    5.0490    0.3384    1.1895 C   0  0  0  0  0  0  0  0  0  0  0  0
    5.7949    0.8987    2.3346 C   0  0  0  0  0  0  0  0  0  0  0  0
    5.0541    1.7327    3.3261 C   0  0  0  0  0  0  0  0  0  0  0  0
    3.9338    1.1232    4.0685 C   0  0  0  0  0  0  0  0  0  0  0  0
    2.8229    0.7183    3.1943 C   0  0  0  0  0  0  0  0  0  0  0  0
    2.2614   -0.3932    3.4920 O   0  0  0  0  0  0  0  0  0  0  0  0
    2.2450    1.3060    2.0931 O   0  0  0  0  0  0  0  0  0  0  0  0
    1.1723    0.7759    1.3772 C   0  0  1  0  0  0  0  0  0  0  0  0
    0.0402    1.7636    1.4251 C   0  0  0  0  0  0  0  0  0  0  0  0
   -1.0768    1.3462    0.7146 O   0  0  0  0  0  0  0  0  0  0  0  0
   -1.7877    0.2010    0.9583 C   0  0  0  0  0  0  0  0  0  0  0  0
   -1.4341   -0.5799    1.9016 O   0  0  0  0  0  0  0  0  0  0  0  0
   -2.8947    0.1476   -0.0280 C   0  0  0  0  0  0  0  0  0  0  0  0
   -3.7449   -1.1043    0.1012 C   0  0  0  0  0  0  0  0  0  0  0  0
   -4.8415   -1.1522   -0.8827 C   0  0  0  0  0  0  0  0  0  0  0  0
   -5.8615   -0.1081   -0.9559 C   0  0  0  0  0  0  0  0  0  0  0  0
   -6.8361    0.1502    0.1176 C   0  0  0  0  0  0  0  0  0  0  0  0
   -6.2634    0.4997    1.4303 C   0  0  0  0  0  0  0  0  0  0  0  0
   -7.3591    0.8255    2.4612 C   0  0  0  0  0  0  0  0  0  0  0  0
   -8.2827   -0.2993    2.6370 C   0  0  0  0  0  0  0  0  0  0  0  0
   -9.5980   -0.1176    2.3879 C   0  0  0  0  0  0  0  0  0  0  0  0
  -10.3559    1.0420    1.9502 C   0  0  0  0  0  0  0  0  0  0  0  0
  -11.1119    0.8463    0.6222 C   0  0  0  0  0  0  0  0  0  0  0  0
  -12.0806   -0.2456    0.6881 C   0  0  0  0  0  0  0  0  0  0  0  0
  -12.9793   -0.5893   -0.4444 C   0  0  0  0  0  0  0  0  0  0  0  0
  -12.4188   -0.9630   -1.7564 C   0  0  0  0  0  0  0  0  0  0  0  0
  -11.7528    0.0129   -2.6306 C   0  0  0  0  0  0  0  0  0  0  0  0
  -12.5835    1.1023   -3.2171 C   0  0  0  0  0  0  0  0  0  0  0  0
  -13.3205    2.0318   -2.3455 C   0  0  0  0  0  0  0  0  0  0  0  0
    1.6199    0.4563   -0.0437 C   0  0  0  0  0  0  0  0  0  0  0  0
    0.5499   -0.0764   -0.7721 O   0  0  0  0  0  0  0  0  0  0  0  0
    1.0807   -0.7719   -2.2341 P   0  0  0  0  0  0  0  0  0  0  0  0
   -0.0796   -1.8737   -2.8114 O   0  0  0  0  0  0  0  0  0  0  0  0
    1.2245    0.3317   -3.2395 O   0  0  0  0  0  0  0  0  0  0  0  0
    2.5792   -1.5107   -2.0187 O   0  0  0  0  0  0  0  0  0  0  0  0
    2.4122   -2.8818   -1.7588 C   0  0  0  0  0  0  0  0  0  0  0  0
    3.7918   -3.4544   -1.4653 C   0  0  0  0  0  0  0  0  0  0  0  0
    4.6156   -3.2678   -2.5577 O   0  0  0  0  0  0  0  0  0  0  0  0
   10.0565   -2.7435   -0.0491 H   0  0  0  0  0  0  0  0  0  0  0  0
   11.6450   -1.7249   -1.5462 H   0  0  0  0  0  0  0  0  0  0  0  0
   10.7959   -0.1825   -1.5763 H   0  0  0  0  0  0  0  0  0  0  0  0
   12.1772   -1.6262    0.7444 H   0  0  0  0  0  0  0  0  0  0  0  0
   11.2681   -0.1244    1.0519 H   0  0  0  0  0  0  0  0  0  0  0  0
   13.8242   -0.5169   -0.6214 H   0  0  0  0  0  0  0  0  0  0  0  0
   13.6099    0.3016    0.9252 H   0  0  0  0  0  0  0  0  0  0  0  0
   12.1959    2.0551   -0.1443 H   0  0  0  0  0  0  0  0  0  0  0  0
   12.3975    1.1637   -1.7368 H   0  0  0  0  0  0  0  0  0  0  0  0
   14.0601    3.0767   -1.4348 H   0  0  0  0  0  0  0  0  0  0  0  0
   14.7640    2.2176   -0.0460 H   0  0  0  0  0  0  0  0  0  0  0  0
   14.3677    0.5313   -2.4787 H   0  0  0  0  0  0  0  0  0  0  0  0
   15.6944    0.5169   -1.2720 H   0  0  0  0  0  0  0  0  0  0  0  0
   15.6549    1.8369   -2.5369 H   0  0  0  0  0  0  0  0  0  0  0  0
    7.7743   -2.2140   -0.3682 H   0  0  0  0  0  0  0  0  0  0  0  0
    8.6577    0.3262   -1.7188 H   0  0  0  0  0  0  0  0  0  0  0  0
    7.2749   -0.6850   -2.2081 H   0  0  0  0  0  0  0  0  0  0  0  0
    6.5382    1.2179   -0.8404 H   0  0  0  0  0  0  0  0  0  0  0  0
    7.6602    0.6465    0.5092 H   0  0  0  0  0  0  0  0  0  0  0  0
    6.2676   -1.3934    0.7332 H   0  0  0  0  0  0  0  0  0  0  0  0
    5.1893   -0.8005   -0.5802 H   0  0  0  0  0  0  0  0  0  0  0  0
    4.5116    1.1310    0.6571 H   0  0  0  0  0  0  0  0  0  0  0  0
    4.2870   -0.3755    1.5948 H   0  0  0  0  0  0  0  0  0  0  0  0
    6.2419    0.0465    2.9214 H   0  0  0  0  0  0  0  0  0  0  0  0
    6.6795    1.5189    2.0287 H   0  0  0  0  0  0  0  0  0  0  0  0
    5.8384    2.1536    4.0305 H   0  0  0  0  0  0  0  0  0  0  0  0
    4.7258    2.6617    2.7687 H   0  0  0  0  0  0  0  0  0  0  0  0
    4.3364    0.2365    4.6370 H   0  0  0  0  0  0  0  0  0  0  0  0
    3.5981    1.8776    4.8357 H   0  0  0  0  0  0  0  0  0  0  0  0
    0.8726   -0.1720    1.8915 H   0  0  0  0  0  0  0  0  0  0  0  0
   -0.2086    1.9111    2.5027 H   0  0  0  0  0  0  0  0  0  0  0  0
    0.3718    2.7654    1.0550 H   0  0  0  0  0  0  0  0  0  0  0  0
   -3.5443    1.0374    0.0019 H   0  0  0  0  0  0  0  0  0  0  0  0
   -2.4453    0.1439   -1.0556 H   0  0  0  0  0  0  0  0  0  0  0  0
   -3.0273   -1.9607   -0.2353 H   0  0  0  0  0  0  0  0  0  0  0  0
   -3.9363   -1.3165    1.1327 H   0  0  0  0  0  0  0  0  0  0  0  0
   -4.3555   -1.2880   -1.9130 H   0  0  0  0  0  0  0  0  0  0  0  0
   -5.3989   -2.1330   -0.6649 H   0  0  0  0  0  0  0  0  0  0  0  0
   -5.3522    0.8886   -1.2333 H   0  0  0  0  0  0  0  0  0  0  0  0
   -6.4776   -0.2707   -1.9123 H   0  0  0  0  0  0  0  0  0  0  0  0
   -7.4809    1.0207   -0.2605 H   0  0  0  0  0  0  0  0  0  0  0  0
   -7.5736   -0.7065    0.1855 H   0  0  0  0  0  0  0  0  0  0  0  0
   -5.5307    1.3101    1.3462 H   0  0  0  0  0  0  0  0  0  0  0  0
   -5.7209   -0.3888    1.8612 H   0  0  0  0  0  0  0  0  0  0  0  0
   -7.7874    1.7809    2.1785 H   0  0  0  0  0  0  0  0  0  0  0  0
   -6.8192    0.9720    3.4412 H   0  0  0  0  0  0  0  0  0  0  0  0
   -7.8857   -1.2501    2.9646 H   0  0  0  0  0  0  0  0  0  0  0  0
  -10.2529   -0.9719    2.5267 H   0  0  0  0  0  0  0  0  0  0  0  0
   -9.7859    1.9720    1.8318 H   0  0  0  0  0  0  0  0  0  0  0  0
  -11.1761    1.2990    2.6796 H   0  0  0  0  0  0  0  0  0  0  0  0
  -11.5765    1.7949    0.3310 H   0  0  0  0  0  0  0  0  0  0  0  0
  -10.3402    0.6000   -0.1578 H   0  0  0  0  0  0  0  0  0  0  0  0
  -11.5447   -1.2414    0.9423 H   0  0  0  0  0  0  0  0  0  0  0  0
  -12.7663   -0.1683    1.5927 H   0  0  0  0  0  0  0  0  0  0  0  0
  -13.7065   -1.4140   -0.1339 H   0  0  0  0  0  0  0  0  0  0  0  0
  -13.7017    0.2935   -0.5285 H   0  0  0  0  0  0  0  0  0  0  0  0
  -11.6258   -1.7695   -1.5190 H   0  0  0  0  0  0  0  0  0  0  0  0
  -13.1655   -1.5789   -2.3606 H   0  0  0  0  0  0  0  0  0  0  0  0
  -11.4479   -0.6231   -3.5687 H   0  0  0  0  0  0  0  0  0  0  0  0
  -10.7871    0.3913   -2.2976 H   0  0  0  0  0  0  0  0  0  0  0  0
  -11.8820    1.7156   -3.8551 H   0  0  0  0  0  0  0  0  0  0  0  0
  -13.3187    0.6618   -3.9641 H   0  0  0  0  0  0  0  0  0  0  0  0
  -14.3993    1.7414   -2.2313 H   0  0  0  0  0  0  0  0  0  0  0  0
  -12.8522    2.3504   -1.4156 H   0  0  0  0  0  0  0  0  0  0  0  0
  -13.4064    3.0163   -2.9376 H   0  0  0  0  0  0  0  0  0  0  0  0
    1.9860    1.3378   -0.5805 H   0  0  0  0  0  0  0  0  0  0  0  0
    2.4510   -0.2867    0.0270 H   0  0  0  0  0  0  0  0  0  0  0  0
   -0.3779   -2.4467   -2.0494 H   0  0  0  0  0  0  0  0  0  0  0  0
    2.0047   -3.3988   -2.6474 H   0  0  0  0  0  0  0  0  0  0  0  0
    1.7341   -3.0642   -0.9115 H   0  0  0  0  0  0  0  0  0  0  0  0
    4.2213   -2.9857   -0.5512 H   0  0  0  0  0  0  0  0  0  0  0  0
    3.6506   -4.5363   -1.2270 H   0  0  0  0  0  0  0  0  0  0  0  0
    5.5035   -3.6669   -2.3944 H   0  0  0  0  0  0  0  0  0  0  0  0
  1  2  1  0
  2  3  1  0
  3  4  1  0
  4  5  1  0
  5  6  1  0
  6  7  1  0
  1  8  2  0
  8  9  1  0
  9 10  1  0
 10 11  1  0
 11 12  1  0
 12 13  1  0
 13 14  1  0
 14 15  1  0
 15 16  1  0
 16 17  2  0
 16 18  1  0
 18 19  1  0
 19 20  1  0
 20 21  1  0
 21 22  1  0
 22 23  2  0
 22 24  1  0
 24 25  1  0
 25 26  1  0
 26 27  1  0
 27 28  1  0
 28 29  1  0
 29 30  1  0
 30 31  1  0
 31 32  2  0
 32 33  1  0
 33 34  1  0
 34 35  1  0
 35 36  1  0
 36 37  1  0
 37 38  1  0
 38 39  1  0
 39 40  1  0
 19 41  1  0
 41 42  1  0
 42 43  1  0
 43 44  1  0
 43 45  2  0
 43 46  1  0
 46 47  1  0
 47 48  1  0
 48 49  1  0
  1 50  1  0
  2 51  1  0
  2 52  1  0
  3 53  1  0
  3 54  1  0
  4 55  1  0
  4 56  1  0
  5 57  1  0
  5 58  1  0
  6 59  1  0
  6 60  1  0
  7 61  1  0
  7 62  1  0
  7 63  1  0
  8 64  1  0
  9 65  1  0
  9 66  1  0
 10 67  1  0
 10 68  1  0
 11 69  1  0
 11 70  1  0
 12 71  1  0
 12 72  1  0
 13 73  1  0
 13 74  1  0
 14 75  1  0
 14 76  1  0
 15 77  1  0
 15 78  1  0
 19 79  1  1
 20 80  1  0
 20 81  1  0
 24 82  1  0
 24 83  1  0
 25 84  1  0
 25 85  1  0
 26 86  1  0
 26 87  1  0
 27 88  1  0
 27 89  1  0
 28 90  1  0
 28 91  1  0
 29 92  1  0
 29 93  1  0
 30 94  1  0
 30 95  1  0
 31 96  1  0
 32 97  1  0
 33 98  1  0
 33 99  1  0
 34100  1  0
 34101  1  0
 35102  1  0
 35103  1  0
 36104  1  0
 36105  1  0
 37106  1  0
 37107  1  0
 38108  1  0
 38109  1  0
 39110  1  0
 39111  1  0
 40112  1  0
 40113  1  0
 40114  1  0
 41115  1  0
 41116  1  0
 44117  1  0
 47118  1  0
 47119  1  0
 48120  1  0
 48121  1  0
 49122  1  0
M  END
$$$$
