
     RDKit          3D

 42 45  0  0  0  0  0  0  0  0999 V2000
   -5.3651    2.9238    1.3913 C   0  0  0  0  0  0  0  0  0  0  0  0
   -4.6587    1.9438    0.5132 C   0  0  0  0  0  0  0  0  0  0  0  0
   -3.3133    1.8847    0.2497 C   0  0  0  0  0  0  0  0  0  0  0  0
   -3.0394    0.8403   -0.6074 C   0  0  0  0  0  0  0  0  0  0  0  0
   -1.8211    0.3917   -1.1659 N   0  0  0  0  0  0  0  0  0  0  0  0
   -0.7946   -0.2739   -0.4518 C   0  0  0  0  0  0  0  0  0  0  0  0
    0.2215    0.4445    0.0766 N   0  0  0  0  0  0  0  0  0  0  0  0
    1.2228   -0.1047    0.7678 N   0  0  0  0  0  0  0  0  0  0  0  0
    2.2615    0.7462    1.2906 C   0  0  0  0  0  0  0  0  0  0  0  0
    3.3928    0.9350    0.3748 C   0  0  0  0  0  0  0  0  0  0  0  0
    3.3190    1.8784   -0.6359 C   0  0  0  0  0  0  0  0  0  0  0  0
    4.3474    2.1072   -1.5195 C   0  0  0  0  0  0  0  0  0  0  0  0
    5.5219    1.3927   -1.4361 C   0  0  0  0  0  0  0  0  0  0  0  0
    5.6187    0.4442   -0.4346 C   0  0  0  0  0  0  0  0  0  0  0  0
    4.5789    0.2238    0.4467 C   0  0  0  0  0  0  0  0  0  0  0  0
    1.2708   -1.4284    0.9774 C   0  0  0  0  0  0  0  0  0  0  0  0
    2.2262   -1.9615    1.6401 O   0  0  0  0  0  0  0  0  0  0  0  0
    0.2730   -2.2393    0.4732 C   0  0  0  0  0  0  0  0  0  0  0  0
    0.3274   -3.5961    0.6965 C   0  0  0  0  0  0  0  0  0  0  0  0
   -0.7045   -4.3454    0.1655 C   0  0  0  0  0  0  0  0  0  0  0  0
   -1.7263   -3.7658   -0.5436 C   0  0  0  0  0  0  0  0  0  0  0  0
   -1.7499   -2.3973   -0.7476 C   0  0  0  0  0  0  0  0  0  0  0  0
   -0.7500   -1.6284   -0.2396 C   0  0  0  0  0  0  0  0  0  0  0  0
   -4.2511    0.2852   -0.8424 N   0  0  0  0  0  0  0  0  0  0  0  0
   -5.2069    0.9256   -0.1893 N   0  0  0  0  0  0  0  0  0  0  0  0
   -6.4734    2.8347    1.1799 H   0  0  0  0  0  0  0  0  0  0  0  0
   -4.9910    3.9285    1.1867 H   0  0  0  0  0  0  0  0  0  0  0  0
   -5.1501    2.6704    2.4393 H   0  0  0  0  0  0  0  0  0  0  0  0
   -2.5394    2.5355    0.6308 H   0  0  0  0  0  0  0  0  0  0  0  0
   -1.7062    0.5908   -2.2090 H   0  0  0  0  0  0  0  0  0  0  0  0
    2.6197    0.2585    2.2399 H   0  0  0  0  0  0  0  0  0  0  0  0
    1.8206    1.7225    1.6344 H   0  0  0  0  0  0  0  0  0  0  0  0
    2.4026    2.4666   -0.7306 H   0  0  0  0  0  0  0  0  0  0  0  0
    4.2898    2.8552   -2.3222 H   0  0  0  0  0  0  0  0  0  0  0  0
    6.3533    1.5567   -2.1211 H   0  0  0  0  0  0  0  0  0  0  0  0
    6.5507   -0.1140   -0.3817 H   0  0  0  0  0  0  0  0  0  0  0  0
    4.7025   -0.5310    1.2155 H   0  0  0  0  0  0  0  0  0  0  0  0
    1.0986   -4.0997    1.2401 H   0  0  0  0  0  0  0  0  0  0  0  0
   -0.6985   -5.4129    0.3162 H   0  0  0  0  0  0  0  0  0  0  0  0
   -2.5241   -4.3676   -0.9464 H   0  0  0  0  0  0  0  0  0  0  0  0
   -2.5534   -1.9812   -1.2986 H   0  0  0  0  0  0  0  0  0  0  0  0
   -4.4029   -0.5392   -1.4657 H   0  0  0  0  0  0  0  0  0  0  0  0
  1  2  1  0
  2  3  1  0
  3  4  2  0
  4  5  1  0
  5  6  1  0
  6  7  2  0
  7  8  1  0
  8  9  1  0
  9 10  1  0
 10 11  2  0
 11 12  1  0
 12 13  2  0
 13 14  1  0
 14 15  2  0
  8 16  1  0
 16 17  2  0
 16 18  1  0
 18 19  2  0
 19 20  1  0
 20 21  2  0
 21 22  1  0
 22 23  2  0
  4 24  1  0
 24 25  1  0
 25  2  2  0
 23  6  1  0
 15 10  1  0
 23 18  1  0
  1 26  1  0
  1 27  1  0
  1 28  1  0
  3 29  1  0
  5 30  1  0
  9 31  1  0
  9 32  1  0
 11 33  1  0
 12 34  1  0
 13 35  1  0
 14 36  1  0
 15 37  1  0
 19 38  1  0
 20 39  1  0
 21 40  1  0
 22 41  1  0
 24 42  1  0
M  END
$$$$
