@<TRIPOS>MOLECULE
*****
 42 45 0 0 0
SMALL
GASTEIGER

@<TRIPOS>ATOM
      1 C          -5.3651    2.9238    1.3913 C.3     1  UNL1       -0.0206
      2 C          -4.6587    1.9438    0.5132 C.ar    1  UNL1        0.0616
      3 C          -3.3133    1.8847    0.2497 C.ar    1  UNL1        0.0006
      4 C          -3.0394    0.8403   -0.6074 C.ar    1  UNL1        0.1196
      5 N          -1.8211    0.3917   -1.1659 N.pl3   1  UNL1       -0.2829
      6 C          -0.7946   -0.2739   -0.4518 C.ar    1  UNL1        0.1525
      7 N           0.2215    0.4445    0.0766 N.ar    1  UNL1       -0.1520
      8 N           1.2228   -0.1047    0.7678 N.ar    1  UNL1       -0.2228
      9 C           2.2615    0.7462    1.2906 C.3     1  UNL1        0.0703
     10 C           3.3928    0.9350    0.3748 C.ar    1  UNL1       -0.0260
     11 C           3.3190    1.8784   -0.6359 C.ar    1  UNL1       -0.0568
     12 C           4.3474    2.1072   -1.5195 C.ar    1  UNL1       -0.0614
     13 C           5.5219    1.3927   -1.4361 C.ar    1  UNL1       -0.0617
     14 C           5.6187    0.4442   -0.4346 C.ar    1  UNL1       -0.0614
     15 C           4.5789    0.2238    0.4467 C.ar    1  UNL1       -0.0568
     16 C           1.2708   -1.4284    0.9774 C.ar    1  UNL1        0.2754
     17 O           2.2262   -1.9615    1.6401 O.2     1  UNL1       -0.2655
     18 C           0.2730   -2.2393    0.4732 C.ar    1  UNL1        0.0514
     19 C           0.3274   -3.5961    0.6965 C.ar    1  UNL1       -0.0487
     20 C          -0.7045   -4.3454    0.1655 C.ar    1  UNL1       -0.0610
     21 C          -1.7263   -3.7658   -0.5436 C.ar    1  UNL1       -0.0611
     22 C          -1.7499   -2.3973   -0.7476 C.ar    1  UNL1       -0.0505
     23 C          -0.7500   -1.6284   -0.2396 C.ar    1  UNL1        0.0291
     24 N          -4.2511    0.2852   -0.8424 N.ar    1  UNL1       -0.2637
     25 N          -5.2069    0.9256   -0.1893 N.ar    1  UNL1       -0.1775
     26 H          -6.4734    2.8347    1.1799 H       1  UNL1        0.0293
     27 H          -4.9910    3.9285    1.1867 H       1  UNL1        0.0293
     28 H          -5.1501    2.6704    2.4393 H       1  UNL1        0.0293
     29 H          -2.5394    2.5355    0.6308 H       1  UNL1        0.0670
     30 H          -1.7062    0.5908   -2.2090 H       1  UNL1        0.1550
     31 H           2.6197    0.2585    2.2399 H       1  UNL1        0.0560
     32 H           1.8206    1.7225    1.6344 H       1  UNL1        0.0560
     33 H           2.4026    2.4666   -0.7306 H       1  UNL1        0.0621
     34 H           4.2898    2.8552   -2.3222 H       1  UNL1        0.0618
     35 H           6.3533    1.5567   -2.1211 H       1  UNL1        0.0618
     36 H           6.5507   -0.1140   -0.3817 H       1  UNL1        0.0618
     37 H           4.7025   -0.5310    1.2155 H       1  UNL1        0.0621
     38 H           1.0986   -4.0997    1.2401 H       1  UNL1        0.0625
     39 H          -0.6985   -5.4129    0.3162 H       1  UNL1        0.0618
     40 H          -2.5241   -4.3676   -0.9464 H       1  UNL1        0.0618
     41 H          -2.5534   -1.9812   -1.2986 H       1  UNL1        0.0625
     42 H          -4.4029   -0.5392   -1.4657 H       1  UNL1        0.1903
@<TRIPOS>BOND
     1     1     2    1
     2     2     3   ar
     3     3     4   ar
     4     4     5    1
     5     5     6    1
     6     6     7   ar
     7     7     8   ar
     8     8     9    1
     9     9    10    1
    10    10    11   ar
    11    11    12   ar
    12    12    13   ar
    13    13    14   ar
    14    14    15   ar
    15     8    16   ar
    16    16    17    2
    17    16    18   ar
    18    18    19   ar
    19    19    20   ar
    20    20    21   ar
    21    21    22   ar
    22    22    23   ar
    23     4    24   ar
    24    24    25   ar
    25    25     2   ar
    26    23     6   ar
    27    15    10   ar
    28    23    18   ar
    29     1    26    1
    30     1    27    1
    31     1    28    1
    32     3    29    1
    33     5    30    1
    34     9    31    1
    35     9    32    1
    36    11    33    1
    37    12    34    1
    38    13    35    1
    39    14    36    1
    40    15    37    1
    41    19    38    1
    42    20    39    1
    43    21    40    1
    44    22    41    1
    45    24    42    1
