
     RDKit          3D

 60 61  0  0  0  0  0  0  0  0999 V2000
   -4.8152   -2.4849    1.6510 C   0  0  0  0  0  0  0  0  0  0  0  0
   -4.5370   -1.0738    1.8907 N   0  0  0  0  0  0  0  0  0  0  0  0
   -3.9925   -0.4780    0.6734 C   0  0  2  0  0  0  0  0  0  0  0  0
   -2.7545   -1.1383    0.2500 C   0  0  0  0  0  0  0  0  0  0  0  0
   -2.2665   -1.9757    1.0952 O   0  0  0  0  0  0  0  0  0  0  0  0
   -2.0680   -0.9472   -0.9730 N   0  0  0  0  0  0  0  0  0  0  0  0
   -2.4976   -0.0575   -2.0244 C   0  0  0  0  0  0  0  0  0  0  0  0
   -1.8936   -0.6702   -3.2924 C   0  0  0  0  0  0  0  0  0  0  0  0
   -0.5482   -1.1282   -2.7458 C   0  0  0  0  0  0  0  0  0  0  0  0
   -0.8783   -1.5942   -1.3857 C   0  0  1  0  0  0  0  0  0  0  0  0
    0.2438   -1.4591   -0.4198 C   0  0  0  0  0  0  0  0  0  0  0  0
    0.0347   -0.8019    0.6233 O   0  0  0  0  0  0  0  0  0  0  0  0
    1.5143   -2.0315   -0.6260 N   0  0  0  0  0  0  0  0  0  0  0  0
    2.6371   -1.9209    0.3051 C   0  0  1  0  0  0  0  0  0  0  0  0
    3.1880   -0.5443    0.3236 C   0  0  0  0  0  0  0  0  0  0  0  0
    4.3436   -0.3995    1.2640 C   0  0  0  0  0  0  0  0  0  0  0  0
    4.9233    1.0110    1.2295 C   0  0  0  0  0  0  0  0  0  0  0  0
    5.3940    1.2833   -0.1034 N   0  0  0  0  0  0  0  0  0  0  0  0
    5.9711    2.5474   -0.4315 C   0  0  0  0  0  0  0  0  0  0  0  0
    6.3257    3.3223    0.5192 N   0  0  0  0  0  0  0  0  0  0  0  0
    6.1413    2.9224   -1.8146 N   0  0  0  0  0  0  0  0  0  0  0  0
    2.3035   -2.4307    1.6236 C   0  0  0  0  0  0  0  0  0  0  0  0
    1.1029   -2.8297    1.8334 O   0  0  0  0  0  0  0  0  0  0  0  0
    3.1406   -2.5461    2.7080 O   0  0  0  0  0  0  0  0  0  0  0  0
   -3.8517    0.9812    0.9240 C   0  0  0  0  0  0  0  0  0  0  0  0
   -2.7057    1.7029    0.7800 C   0  0  0  0  0  0  0  0  0  0  0  0
   -2.6583    3.0711    1.0259 C   0  0  0  0  0  0  0  0  0  0  0  0
   -3.7909    3.7408    1.4286 C   0  0  0  0  0  0  0  0  0  0  0  0
   -4.9597    3.0351    1.5811 C   0  0  0  0  0  0  0  0  0  0  0  0
   -4.9796    1.6631    1.3277 C   0  0  0  0  0  0  0  0  0  0  0  0
   -5.8933   -2.6743    1.6463 H   0  0  0  0  0  0  0  0  0  0  0  0
   -4.3439   -3.0377    2.4918 H   0  0  0  0  0  0  0  0  0  0  0  0
   -4.4124   -2.8299    0.6848 H   0  0  0  0  0  0  0  0  0  0  0  0
   -5.4133   -0.6217    2.1751 H   0  0  0  0  0  0  0  0  0  0  0  0
   -4.7511   -0.6089   -0.1230 H   0  0  0  0  0  0  0  0  0  0  0  0
   -3.5991   -0.1358   -2.1066 H   0  0  0  0  0  0  0  0  0  0  0  0
   -2.1732    0.9859   -1.9049 H   0  0  0  0  0  0  0  0  0  0  0  0
   -2.4567   -1.5775   -3.5889 H   0  0  0  0  0  0  0  0  0  0  0  0
   -1.8172    0.0374   -4.1140 H   0  0  0  0  0  0  0  0  0  0  0  0
   -0.1344   -1.9205   -3.4120 H   0  0  0  0  0  0  0  0  0  0  0  0
    0.1054   -0.2278   -2.7760 H   0  0  0  0  0  0  0  0  0  0  0  0
   -1.1330   -2.6928   -1.4712 H   0  0  0  0  0  0  0  0  0  0  0  0
    1.6341   -2.5649   -1.5128 H   0  0  0  0  0  0  0  0  0  0  0  0
    3.4364   -2.6103   -0.1071 H   0  0  0  0  0  0  0  0  0  0  0  0
    2.3694    0.1207    0.7328 H   0  0  0  0  0  0  0  0  0  0  0  0
    3.4688   -0.1964   -0.7044 H   0  0  0  0  0  0  0  0  0  0  0  0
    3.9907   -0.5653    2.3131 H   0  0  0  0  0  0  0  0  0  0  0  0
    5.1025   -1.1716    1.0536 H   0  0  0  0  0  0  0  0  0  0  0  0
    4.2085    1.7398    1.6133 H   0  0  0  0  0  0  0  0  0  0  0  0
    5.8220    1.0235    1.8947 H   0  0  0  0  0  0  0  0  0  0  0  0
    5.3208    0.5574   -0.8376 H   0  0  0  0  0  0  0  0  0  0  0  0
    6.2004    3.0465    1.4973 H   0  0  0  0  0  0  0  0  0  0  0  0
    6.9227    3.5477   -2.0336 H   0  0  0  0  0  0  0  0  0  0  0  0
    5.4707    2.5445   -2.5144 H   0  0  0  0  0  0  0  0  0  0  0  0
    3.1225   -3.3278    3.3645 H   0  0  0  0  0  0  0  0  0  0  0  0
   -1.8186    1.1979    0.4713 H   0  0  0  0  0  0  0  0  0  0  0  0
   -1.7475    3.6371    0.9100 H   0  0  0  0  0  0  0  0  0  0  0  0
   -3.7684    4.8047    1.6234 H   0  0  0  0  0  0  0  0  0  0  0  0
   -5.8567    3.5635    1.8998 H   0  0  0  0  0  0  0  0  0  0  0  0
   -5.9230    1.1873    1.4648 H   0  0  0  0  0  0  0  0  0  0  0  0
  1  2  1  0
  2  3  1  0
  3  4  1  0
  4  5  2  0
  4  6  1  0
  6  7  1  0
  7  8  1  0
  8  9  1  0
  9 10  1  0
 10 11  1  0
 11 12  2  0
 11 13  1  0
 13 14  1  0
 14 15  1  0
 15 16  1  0
 16 17  1  0
 17 18  1  0
 18 19  1  0
 19 20  2  3
 19 21  1  0
 14 22  1  0
 22 23  2  0
 22 24  1  0
  3 25  1  0
 25 26  2  0
 26 27  1  0
 27 28  2  0
 28 29  1  0
 29 30  2  0
 10  6  1  0
 30 25  1  0
  1 31  1  0
  1 32  1  0
  1 33  1  0
  2 34  1  0
  3 35  1  6
  7 36  1  0
  7 37  1  0
  8 38  1  0
  8 39  1  0
  9 40  1  0
  9 41  1  0
 10 42  1  6
 13 43  1  0
 14 44  1  6
 15 45  1  0
 15 46  1  0
 16 47  1  0
 16 48  1  0
 17 49  1  0
 17 50  1  0
 18 51  1  0
 20 52  1  0
 21 53  1  0
 21 54  1  0
 24 55  1  0
 26 56  1  0
 27 57  1  0
 28 58  1  0
 29 59  1  0
 30 60  1  0
M  END
$$$$
