@<TRIPOS>MOLECULE
*****
 60 61 0 0 0
SMALL
GASTEIGER

@<TRIPOS>ATOM
      1 C          -4.8152   -2.4849    1.6510 C.3     0  UNK0       -0.0148
      2 N          -4.5370   -1.0738    1.8907 N.3     1  UNK1       -0.3051
      3 C          -3.9925   -0.4780    0.6734 C.3     1  UNK1        0.1103
      4 C          -2.7545   -1.1383    0.2500 C.2     1  UNK1        0.2377
      5 O          -2.2665   -1.9757    1.0952 O.2     1  UNK1       -0.2735
      6 N          -2.0680   -0.9472   -0.9730 N.am    2  PRO2       -0.2884
      7 CD         -2.4976   -0.0575   -2.0244 C.3     2  PRO2        0.0156
      8 CG         -1.8936   -0.6702   -3.2924 C.3     2  PRO2       -0.0350
      9 CB         -0.5482   -1.1282   -2.7458 C.3     2  PRO2       -0.0243
     10 CA         -0.8783   -1.5942   -1.3857 C.3     2  PRO2        0.1023
     11 C           0.2438   -1.4591   -0.4198 C.2     2  PRO2        0.2342
     12 O           0.0347   -0.8019    0.6233 O.2     2  PRO2       -0.2738
     13 N           1.5143   -2.0315   -0.6260 N.am    3  ARG3       -0.3008
     14 CA          2.6371   -1.9209    0.3051 C.3     3  ARG3        0.1203
     15 CB          3.1880   -0.5443    0.3236 C.3     3  ARG3       -0.0213
     16 CG          4.3436   -0.3995    1.2640 C.3     3  ARG3       -0.0200
     17 CD          4.9233    1.0110    1.2295 C.3     3  ARG3        0.0647
     18 NE          5.3940    1.2833   -0.1034 N.pl3   3  ARG3       -0.2761
     19 CZ          5.9711    2.5474   -0.4315 C.cat   3  ARG3        0.3762
     20 NH1         6.3257    3.3223    0.5192 N.pl3   3  ARG3       -0.1298
     21 NH2         6.1413    2.9224   -1.8146 N.pl3   3  ARG3       -0.2893
     22 C           2.3035   -2.4307    1.6236 C.2     3  ARG3        0.3253
     23 O           1.1029   -2.8297    1.8334 O.2     3  ARG3       -0.2489
     24 OXT         3.1406   -2.5461    2.7080 O.3     3  ARG3       -0.4793
     25 C          -3.8517    0.9812    0.9240 C.ar    1  UNK1       -0.0217
     26 C          -2.7057    1.7029    0.7800 C.ar    1  UNK1       -0.0566
     27 C          -2.6583    3.0711    1.0259 C.ar    1  UNK1       -0.0614
     28 C          -3.7909    3.7408    1.4286 C.ar    1  UNK1       -0.0617
     29 C          -4.9597    3.0351    1.5811 C.ar    1  UNK1       -0.0614
     30 C          -4.9796    1.6631    1.3277 C.ar    1  UNK1       -0.0566
     31 H          -5.8933   -2.6743    1.6463 H       0  UNK0        0.0388
     32 H          -4.3439   -3.0377    2.4918 H       0  UNK0        0.0388
     33 H          -4.4124   -2.8299    0.6848 H       0  UNK0        0.0388
     34 H          -5.4133   -0.6217    2.1751 H       1  UNK1        0.1226
     35 H          -4.7511   -0.6089   -0.1230 H       1  UNK1        0.0607
     36 HD1        -3.5991   -0.1358   -2.1066 H       2  PRO2        0.0465
     37 HD2        -2.1732    0.9859   -1.9049 H       2  PRO2        0.0465
     38 HG1        -2.4567   -1.5775   -3.5889 H       2  PRO2        0.0281
     39 HG2        -1.8172    0.0374   -4.1140 H       2  PRO2        0.0281
     40 HB1        -0.1344   -1.9205   -3.4120 H       2  PRO2        0.0288
     41 HB2         0.1054   -0.2278   -2.7760 H       2  PRO2        0.0288
     42 HA         -1.1330   -2.6928   -1.4712 H       2  PRO2        0.0597
     43 H           1.6341   -2.5649   -1.5128 H       3  ARG3        0.1496
     44 HA          3.4364   -2.6103   -0.1071 H       3  ARG3        0.0614
     45 HB1         2.3694    0.1207    0.7328 H       3  ARG3        0.0289
     46 HB2         3.4688   -0.1964   -0.7044 H       3  ARG3        0.0289
     47 HG1         3.9907   -0.5653    2.3131 H       3  ARG3        0.0296
     48 HG2         5.1025   -1.1716    1.0536 H       3  ARG3        0.0296
     49 HD1         4.2085    1.7398    1.6133 H       3  ARG3        0.0655
     50 HD2         5.8220    1.0235    1.8947 H       3  ARG3        0.0655
     51 HE          5.3208    0.5574   -0.8376 H       3  ARG3        0.2579
     52 HH1         6.2004    3.0465    1.4973 H       3  ARG3        0.3062
     53 HH21        6.9227    3.5477   -2.0336 H       3  ARG3        0.2546
     54 HH22        5.4707    2.5445   -2.5144 H       3  ARG3        0.2546
     55 HXT         3.1225   -3.3278    3.3645 H       3  ARG3        0.2951
     56 H          -1.8186    1.1979    0.4713 H       1  UNK1        0.0621
     57 H          -1.7475    3.6371    0.9100 H       1  UNK1        0.0618
     58 H          -3.7684    4.8047    1.6234 H       1  UNK1        0.0618
     59 H          -5.8567    3.5635    1.8998 H       1  UNK1        0.0618
     60 H          -5.9230    1.1873    1.4648 H       1  UNK1        0.0621
@<TRIPOS>BOND
     1     1     2    1
     2     2     3    1
     3     3     4    1
     4     4     5    2
     5     4     6   am
     6     6     7    1
     7     7     8    1
     8     8     9    1
     9     9    10    1
    10    10    11    1
    11    11    12    2
    12    11    13   am
    13    13    14    1
    14    14    15    1
    15    15    16    1
    16    16    17    1
    17    17    18    1
    18    18    19    1
    19    19    20    2
    20    19    21    1
    21    14    22    1
    22    22    23    2
    23    22    24    1
    24     3    25    1
    25    25    26   ar
    26    26    27   ar
    27    27    28   ar
    28    28    29   ar
    29    29    30   ar
    30    10     6    1
    31    30    25   ar
    32     1    31    1
    33     1    32    1
    34     1    33    1
    35     2    34    1
    36     3    35    1
    37     7    36    1
    38     7    37    1
    39     8    38    1
    40     8    39    1
    41     9    40    1
    42     9    41    1
    43    10    42    1
    44    13    43    1
    45    14    44    1
    46    15    45    1
    47    15    46    1
    48    16    47    1
    49    16    48    1
    50    17    49    1
    51    17    50    1
    52    18    51    1
    53    20    52    1
    54    21    53    1
    55    21    54    1
    56    24    55    1
    57    26    56    1
    58    27    57    1
    59    28    58    1
    60    29    59    1
    61    30    60    1
