@<TRIPOS>MOLECULE
*****
 56 59 0 0 0
SMALL
GASTEIGER

@<TRIPOS>ATOM
      1 N          -5.7486   -2.6520   -3.8081 N.1     1  UNL1       -0.1908
      2 C          -6.1367   -2.0024   -2.7611 C.1     1  UNL1        0.1007
      3 C          -6.5587   -1.2882   -1.5704 C.ar    1  UNL1        0.0735
      4 C          -5.5440   -0.5304   -1.0004 C.ar    1  UNL1       -0.0011
      5 C          -5.7334   -0.0342    0.3516 C.ar    1  UNL1        0.1222
      6 O          -4.6952    0.6721    0.8066 O.3     1  UNL1       -0.4888
      7 C          -3.5317    1.0460    0.1068 C.3     1  UNL1        0.1003
      8 C          -2.8877    2.2207    0.7298 C.3     1  UNL1       -0.0141
      9 C          -1.3952    2.3335    0.6084 C.3     1  UNL1       -0.0312
     10 C          -0.6811    1.0566    0.9722 C.3     1  UNL1        0.0233
     11 N           0.5941    0.9982    0.3177 N.am    1  UNL1       -0.3124
     12 C           0.8877   -0.0213   -0.7338 C.2     1  UNL1        0.2140
     13 O           0.1894   -0.8196   -1.1440 O.2     1  UNL1       -0.2758
     14 C           2.3895    0.1958   -1.2097 C.3     1  UNL1        0.0334
     15 C           2.4645   -0.7556   -2.3841 C.3     1  UNL1        0.0093
     16 S           4.1792   -0.7396   -3.1273 S.3     1  UNL1       -0.0873
     17 C           5.2172   -0.9658   -1.4253 C.ar    1  UNL1        0.1695
     18 N           5.8179    0.3083   -1.3393 N.ar    1  UNL1       -0.2232
     19 C           6.2017    0.3197    0.0696 C.ar    1  UNL1        0.0790
     20 C           6.8138    1.4825    0.4834 C.ar    1  UNL1       -0.0355
     21 C           7.1868    1.6518    1.7397 C.ar    1  UNL1       -0.0597
     22 C           6.9485    0.6153    2.7311 C.ar    1  UNL1       -0.0609
     23 C           6.3529   -0.5414    2.3216 C.ar    1  UNL1       -0.0474
     24 C           5.9829   -0.7022    0.9613 C.ar    1  UNL1        0.0647
     25 C           5.3832   -1.8311    0.5186 C.ar    1  UNL1        0.2598
     26 O           5.1604   -2.7801    1.2997 O.2     1  UNL1       -0.2671
     27 N           4.9957   -1.8551   -0.8590 N.ar    1  UNL1       -0.3015
     28 C          -1.4909   -0.1569    0.8861 C.3     1  UNL1       -0.0312
     29 C          -2.6267   -0.1543   -0.0522 C.3     1  UNL1       -0.0141
     30 C          -6.8827   -0.3772    0.8800 C.ar    1  UNL1       -0.0185
     31 C          -7.9639   -1.1339    0.3812 C.ar    1  UNL1       -0.0387
     32 C          -7.6339   -1.5860   -1.0481 C.ar    1  UNL1        0.0585
     33 CL         -8.9830   -2.5084   -1.7509 Cl      1  UNL1       -0.0822
     34 H          -4.6686   -0.3078   -1.5188 H       1  UNL1        0.0667
     35 H          -3.8217    1.2790   -0.9923 H       1  UNL1        0.0733
     36 H          -3.2655    2.4195    1.7615 H       1  UNL1        0.0301
     37 H          -3.2744    3.1111    0.1337 H       1  UNL1        0.0301
     38 H          -1.0647    3.0781    1.3570 H       1  UNL1        0.0284
     39 H          -1.0516    2.6810   -0.3645 H       1  UNL1        0.0284
     40 H          -0.3470    1.0965    2.1034 H       1  UNL1        0.0498
     41 H           1.3802    1.6378    0.5291 H       1  UNL1        0.1490
     42 H           3.0272   -0.2200   -0.3715 H       1  UNL1        0.0366
     43 H           2.4992    1.2413   -1.4398 H       1  UNL1        0.0366
     44 H           1.7379   -0.5256   -3.1899 H       1  UNL1        0.0385
     45 H           2.3257   -1.7843   -2.0000 H       1  UNL1        0.0385
     46 H           7.0093    2.2636   -0.2951 H       1  UNL1        0.0639
     47 H           7.7051    2.5406    2.1339 H       1  UNL1        0.0618
     48 H           7.2372    0.7452    3.7438 H       1  UNL1        0.0618
     49 H           6.1388   -1.3572    2.9732 H       1  UNL1        0.0626
     50 H           4.5156   -2.8322   -1.0367 H       1  UNL1        0.1709
     51 H          -0.9209   -1.1399    0.8025 H       1  UNL1        0.0284
     52 H          -1.9815   -0.2732    1.9311 H       1  UNL1        0.0284
     53 H          -3.2564   -1.0708    0.1329 H       1  UNL1        0.0301
     54 H          -2.2994   -0.1915   -1.1159 H       1  UNL1        0.0301
     55 H          -7.0812   -0.0290    1.9659 H       1  UNL1        0.0654
     56 H          -8.8154   -1.4018    0.8047 H       1  UNL1        0.0634
@<TRIPOS>BOND
     1     1     2    3
     2     2     3    1
     3     3     4   ar
     4     4     5   ar
     5     5     6    1
     6     6     7    1
     7     7     8    1
     8     8     9    1
     9     9    10    1
    10    10    11    1
    11    11    12   am
    12    12    13    2
    13    12    14    1
    14    14    15    1
    15    15    16    1
    16    16    17    1
    17    17    18   ar
    18    18    19   ar
    19    19    20   ar
    20    20    21   ar
    21    21    22   ar
    22    22    23   ar
    23    23    24   ar
    24    24    25   ar
    25    25    26    2
    26    25    27   ar
    27    10    28    1
    28    28    29    1
    29     5    30   ar
    30    30    31   ar
    31    31    32   ar
    32    32    33    1
    33    32     3   ar
    34    29     7    1
    35    27    17   ar
    36    24    19   ar
    37     4    34    1
    38     7    35    1
    39     8    36    1
    40     8    37    1
    41     9    38    1
    42     9    39    1
    43    10    40    1
    44    11    41    1
    45    14    42    1
    46    14    43    1
    47    15    44    1
    48    15    45    1
    49    20    46    1
    50    21    47    1
    51    22    48    1
    52    23    49    1
    53    27    50    1
    54    28    51    1
    55    28    52    1
    56    29    53    1
    57    29    54    1
    58    30    55    1
    59    31    56    1
