
     RDKit          3D

 56 59  0  0  0  0  0  0  0  0999 V2000
   -5.7486   -2.6520   -3.8081 N   0  0  0  0  0  0  0  0  0  0  0  0
   -6.1367   -2.0024   -2.7611 C   0  0  0  0  0  0  0  0  0  0  0  0
   -6.5587   -1.2882   -1.5704 C   0  0  0  0  0  0  0  0  0  0  0  0
   -5.5440   -0.5304   -1.0004 C   0  0  0  0  0  0  0  0  0  0  0  0
   -5.7334   -0.0342    0.3516 C   0  0  0  0  0  0  0  0  0  0  0  0
   -4.6952    0.6721    0.8066 O   0  0  0  0  0  0  0  0  0  0  0  0
   -3.5317    1.0460    0.1068 C   0  0  1  0  0  0  0  0  0  0  0  0
   -2.8877    2.2207    0.7298 C   0  0  0  0  0  0  0  0  0  0  0  0
   -1.3952    2.3335    0.6084 C   0  0  0  0  0  0  0  0  0  0  0  0
   -0.6811    1.0566    0.9722 C   0  0  2  0  0  0  0  0  0  0  0  0
    0.5941    0.9982    0.3177 N   0  0  0  0  0  0  0  0  0  0  0  0
    0.8877   -0.0213   -0.7338 C   0  0  0  0  0  0  0  0  0  0  0  0
    0.1894   -0.8196   -1.1440 O   0  0  0  0  0  0  0  0  0  0  0  0
    2.3895    0.1958   -1.2097 C   0  0  0  0  0  0  0  0  0  0  0  0
    2.4645   -0.7556   -2.3841 C   0  0  0  0  0  0  0  0  0  0  0  0
    4.1792   -0.7396   -3.1273 S   0  0  0  0  0  0  0  0  0  0  0  0
    5.2172   -0.9658   -1.4253 C   0  0  0  0  0  0  0  0  0  0  0  0
    5.8179    0.3083   -1.3393 N   0  0  0  0  0  0  0  0  0  0  0  0
    6.2017    0.3197    0.0696 C   0  0  0  0  0  0  0  0  0  0  0  0
    6.8138    1.4825    0.4834 C   0  0  0  0  0  0  0  0  0  0  0  0
    7.1868    1.6518    1.7397 C   0  0  0  0  0  0  0  0  0  0  0  0
    6.9485    0.6153    2.7311 C   0  0  0  0  0  0  0  0  0  0  0  0
    6.3529   -0.5414    2.3216 C   0  0  0  0  0  0  0  0  0  0  0  0
    5.9829   -0.7022    0.9613 C   0  0  0  0  0  0  0  0  0  0  0  0
    5.3832   -1.8311    0.5186 C   0  0  0  0  0  0  0  0  0  0  0  0
    5.1604   -2.7801    1.2997 O   0  0  0  0  0  0  0  0  0  0  0  0
    4.9957   -1.8551   -0.8590 N   0  0  0  0  0  0  0  0  0  0  0  0
   -1.4909   -0.1569    0.8861 C   0  0  0  0  0  0  0  0  0  0  0  0
   -2.6267   -0.1543   -0.0522 C   0  0  0  0  0  0  0  0  0  0  0  0
   -6.8827   -0.3772    0.8800 C   0  0  0  0  0  0  0  0  0  0  0  0
   -7.9639   -1.1339    0.3812 C   0  0  0  0  0  0  0  0  0  0  0  0
   -7.6339   -1.5860   -1.0481 C   0  0  0  0  0  0  0  0  0  0  0  0
   -8.9830   -2.5084   -1.7509 Cl  0  0  0  0  0  0  0  0  0  0  0  0
   -4.6686   -0.3078   -1.5188 H   0  0  0  0  0  0  0  0  0  0  0  0
   -3.8217    1.2790   -0.9923 H   0  0  0  0  0  0  0  0  0  0  0  0
   -3.2655    2.4195    1.7615 H   0  0  0  0  0  0  0  0  0  0  0  0
   -3.2744    3.1111    0.1337 H   0  0  0  0  0  0  0  0  0  0  0  0
   -1.0647    3.0781    1.3570 H   0  0  0  0  0  0  0  0  0  0  0  0
   -1.0516    2.6810   -0.3645 H   0  0  0  0  0  0  0  0  0  0  0  0
   -0.3470    1.0965    2.1034 H   0  0  0  0  0  0  0  0  0  0  0  0
    1.3802    1.6378    0.5291 H   0  0  0  0  0  0  0  0  0  0  0  0
    3.0272   -0.2200   -0.3715 H   0  0  0  0  0  0  0  0  0  0  0  0
    2.4992    1.2413   -1.4398 H   0  0  0  0  0  0  0  0  0  0  0  0
    1.7379   -0.5256   -3.1899 H   0  0  0  0  0  0  0  0  0  0  0  0
    2.3257   -1.7843   -2.0000 H   0  0  0  0  0  0  0  0  0  0  0  0
    7.0093    2.2636   -0.2951 H   0  0  0  0  0  0  0  0  0  0  0  0
    7.7051    2.5406    2.1339 H   0  0  0  0  0  0  0  0  0  0  0  0
    7.2372    0.7452    3.7438 H   0  0  0  0  0  0  0  0  0  0  0  0
    6.1388   -1.3572    2.9732 H   0  0  0  0  0  0  0  0  0  0  0  0
    4.5156   -2.8322   -1.0367 H   0  0  0  0  0  0  0  0  0  0  0  0
   -0.9209   -1.1399    0.8025 H   0  0  0  0  0  0  0  0  0  0  0  0
   -1.9815   -0.2732    1.9311 H   0  0  0  0  0  0  0  0  0  0  0  0
   -3.2564   -1.0708    0.1329 H   0  0  0  0  0  0  0  0  0  0  0  0
   -2.2994   -0.1915   -1.1159 H   0  0  0  0  0  0  0  0  0  0  0  0
   -7.0812   -0.0290    1.9659 H   0  0  0  0  0  0  0  0  0  0  0  0
   -8.8154   -1.4018    0.8047 H   0  0  0  0  0  0  0  0  0  0  0  0
  1  2  3  0
  2  3  1  0
  3  4  2  0
  4  5  1  0
  5  6  1  0
  6  7  1  0
  7  8  1  0
  8  9  1  0
  9 10  1  0
 10 11  1  0
 11 12  1  0
 12 13  2  0
 12 14  1  0
 14 15  1  0
 15 16  1  0
 16 17  1  0
 17 18  2  0
 18 19  1  0
 19 20  2  0
 20 21  1  0
 21 22  2  0
 22 23  1  0
 23 24  2  0
 24 25  1  0
 25 26  2  0
 25 27  1  0
 10 28  1  0
 28 29  1  0
  5 30  2  0
 30 31  1  0
 31 32  2  0
 32 33  1  0
 32  3  1  0
 29  7  1  0
 27 17  1  0
 24 19  1  0
  4 34  1  0
  7 35  1  6
  8 36  1  0
  8 37  1  0
  9 38  1  0
  9 39  1  0
 10 40  1  1
 11 41  1  0
 14 42  1  0
 14 43  1  0
 15 44  1  0
 15 45  1  0
 20 46  1  0
 21 47  1  0
 22 48  1  0
 23 49  1  0
 27 50  1  0
 28 51  1  0
 28 52  1  0
 29 53  1  0
 29 54  1  0
 30 55  1  0
 31 56  1  0
M  END
$$$$
