@<TRIPOS>MOLECULE
*****
 36 37 0 0 0
SMALL
GASTEIGER

@<TRIPOS>ATOM
      1 N          -2.1830    2.2103    0.9242 N.pl3   1  UNL1       -0.3569
      2 C          -2.9594    1.1972    0.3214 C.ar    1  UNL1        0.0432
      3 C          -4.2573    1.4663   -0.0163 C.ar    1  UNL1        0.0398
      4 BR         -5.0468    3.1648    0.3019 Br      1  UNL1       -0.0484
      5 C          -5.0412    0.4991   -0.6051 C.ar    1  UNL1       -0.0320
      6 C          -4.4761   -0.7343   -0.8382 C.ar    1  UNL1        0.0193
      7 BR         -5.4139   -2.1924   -1.6459 Br      1  UNL1       -0.0502
      8 C          -3.1673   -1.0037   -0.4971 C.ar    1  UNL1       -0.0415
      9 C          -2.3587   -0.0368    0.0997 C.ar    1  UNL1       -0.0108
     10 C          -0.9510   -0.3611    0.4551 C.3     1  UNL1        0.0233
     11 N          -0.0756    0.2170   -0.4656 N.3     1  UNL1       -0.3092
     12 C           1.3129    0.0222   -0.3129 C.3     1  UNL1        0.0081
     13 C           1.8892    0.5054    0.9626 C.3     1  UNL1       -0.0352
     14 C           3.3880    0.6080    0.7625 C.3     1  UNL1       -0.0254
     15 C           3.9439   -0.5924    0.0502 C.3     1  UNL1        0.0554
     16 O           4.1653   -0.3310   -1.3047 O.3     1  UNL1       -0.3918
     17 C           3.0100   -1.7585    0.1237 C.3     1  UNL1       -0.0254
     18 C           1.6944   -1.4276   -0.5146 C.3     1  UNL1       -0.0352
     19 H          -1.3237    2.4296    0.3581 H       1  UNL1        0.1424
     20 H          -2.1523    2.8388    1.7511 H       1  UNL1        0.1424
     21 H          -6.0737    0.6344   -0.8995 H       1  UNL1        0.0640
     22 H          -2.6951   -1.9671   -0.6695 H       1  UNL1        0.0632
     23 H          -0.8121    0.0056    1.4898 H       1  UNL1        0.0474
     24 H          -0.8743   -1.4623    0.5112 H       1  UNL1        0.0474
     25 H          -0.3975    0.4981   -1.3895 H       1  UNL1        0.1225
     26 H           1.8207    0.6046   -1.1356 H       1  UNL1        0.0460
     27 H           1.5467    1.5431    1.2009 H       1  UNL1        0.0281
     28 H           1.6745   -0.1316    1.8346 H       1  UNL1        0.0281
     29 H           3.9197    0.8317    1.7074 H       1  UNL1        0.0291
     30 H           3.5508    1.5149    0.1218 H       1  UNL1        0.0291
     31 H           4.9372   -0.8784    0.4766 H       1  UNL1        0.0593
     32 H           4.3305    0.6575   -1.3507 H       1  UNL1        0.2098
     33 H           3.4599   -2.6078   -0.4499 H       1  UNL1        0.0291
     34 H           2.8882   -2.1702    1.1607 H       1  UNL1        0.0291
     35 H           0.9442   -2.1284   -0.1229 H       1  UNL1        0.0281
     36 H           1.7830   -1.6648   -1.6087 H       1  UNL1        0.0281
@<TRIPOS>BOND
     1     1     2    1
     2     2     3   ar
     3     3     4    1
     4     3     5   ar
     5     5     6   ar
     6     6     7    1
     7     6     8   ar
     8     8     9   ar
     9     9    10    1
    10    10    11    1
    11    11    12    1
    12    12    13    1
    13    13    14    1
    14    14    15    1
    15    15    16    1
    16    15    17    1
    17    17    18    1
    18     9     2   ar
    19    18    12    1
    20     1    19    1
    21     1    20    1
    22     5    21    1
    23     8    22    1
    24    10    23    1
    25    10    24    1
    26    11    25    1
    27    12    26    1
    28    13    27    1
    29    13    28    1
    30    14    29    1
    31    14    30    1
    32    15    31    1
    33    16    32    1
    34    17    33    1
    35    17    34    1
    36    18    35    1
    37    18    36    1
