@<TRIPOS>MOLECULE
*****
 57 61 0 0 0
SMALL
GASTEIGER

@<TRIPOS>ATOM
      1 O          -3.0837    1.0217   -3.8615 O.2     1  UNL1       -0.2817
      2 C          -3.3431    0.9637   -2.6380 C.2     1  UNL1        0.2496
      3 C          -4.6281    1.2884   -2.0316 C.2     1  UNL1        0.2915
      4 O          -5.6825    1.6783   -2.6343 O.2     1  UNL1       -0.2661
      5 N          -4.4485    1.0776   -0.6423 N.am    1  UNL1       -0.2598
      6 C          -5.4703    1.2802    0.3519 C.3     1  UNL1        0.0452
      7 C          -6.3017    0.1009    0.6117 C.ar    1  UNL1       -0.0296
      8 C          -7.4513   -0.1094   -0.1258 C.ar    1  UNL1       -0.0560
      9 C          -8.2484   -1.2138    0.1048 C.ar    1  UNL1       -0.0475
     10 C          -7.9298   -2.1417    1.0725 C.ar    1  UNL1        0.0179
     11 BR         -9.0439   -3.6774    1.3889 Br      1  UNL1       -0.0503
     12 C          -6.7816   -1.9229    1.8021 C.ar    1  UNL1       -0.0475
     13 C          -5.9712   -0.8165    1.5805 C.ar    1  UNL1       -0.0560
     14 C          -3.1291    0.6432   -0.3635 C.ar    1  UNL1        0.0481
     15 C          -2.4321    0.3021    0.7870 C.ar    1  UNL1       -0.0377
     16 C          -1.1127   -0.1000    0.7836 C.ar    1  UNL1       -0.0335
     17 C          -0.4297   -0.1750   -0.4104 C.ar    1  UNL1        0.1063
     18 S           1.2350   -0.6849   -0.3920 S.O2    1  UNL1        0.0612
     19 O           1.5506   -1.4756   -1.6301 O.2     1  UNL1       -0.1528
     20 O           1.4328   -1.5782    0.7992 O.2     1  UNL1       -0.1528
     21 N           2.2555    0.6728   -0.2146 N.3     1  UNL1       -0.1703
     22 C           2.1604    1.6275   -1.2734 C.3     1  UNL1        0.0210
     23 C           3.0708    1.2149   -2.3805 C.3     1  UNL1       -0.0370
     24 C           4.0401    0.2918   -1.7182 C.3     1  UNL1       -0.0313
     25 C           3.6580    0.2532   -0.2435 C.3     1  UNL1        0.0659
     26 C           4.4500    1.2515    0.5500 C.3     1  UNL1        0.1068
     27 O           5.7974    1.0154    0.6365 O.3     1  UNL1       -0.4888
     28 C           6.4946   -0.0047    1.1888 C.ar    1  UNL1        0.1386
     29 C           5.9645   -1.0833    1.8433 C.ar    1  UNL1       -0.0170
     30 C           6.7714   -2.0581    2.3593 C.ar    1  UNL1       -0.0401
     31 C           8.1307   -1.9545    2.2204 C.ar    1  UNL1        0.0278
     32 N           8.6708   -0.9042    1.5825 N.ar    1  UNL1       -0.2596
     33 C           7.8890    0.0412    1.0816 C.ar    1  UNL1        0.0692
     34 C          -1.0982    0.1588   -1.5728 C.ar    1  UNL1       -0.0226
     35 C          -2.4190    0.5612   -1.5673 C.ar    1  UNL1        0.0502
     36 H          -6.1107    2.1352    0.0040 H       1  UNL1        0.0518
     37 H          -5.0340    1.6465    1.3204 H       1  UNL1        0.0518
     38 H          -7.6911    0.6239   -0.8811 H       1  UNL1        0.0621
     39 H          -9.1541   -1.3867   -0.4704 H       1  UNL1        0.0629
     40 H          -6.4952   -2.6244    2.5694 H       1  UNL1        0.0629
     41 H          -5.0753   -0.6685    2.1683 H       1  UNL1        0.0621
     42 H          -2.9603    0.3587    1.7355 H       1  UNL1        0.0637
     43 H          -0.6367   -0.3518    1.7372 H       1  UNL1        0.0638
     44 H           1.1355    1.7442   -1.6775 H       1  UNL1        0.0444
     45 H           2.5031    2.6213   -0.8687 H       1  UNL1        0.0444
     46 H           2.4715    0.7004   -3.1645 H       1  UNL1        0.0279
     47 H           3.5678    2.1265   -2.7932 H       1  UNL1        0.0279
     48 H           3.9640   -0.7037   -2.1958 H       1  UNL1        0.0282
     49 H           5.0615    0.7132   -1.8464 H       1  UNL1        0.0282
     50 H           3.7162   -0.7821    0.0837 H       1  UNL1        0.0513
     51 H           4.3205    2.2825    0.0880 H       1  UNL1        0.0713
     52 H           3.9967    1.3734    1.5852 H       1  UNL1        0.0713
     53 H           4.9031   -1.1969    1.9890 H       1  UNL1        0.0655
     54 H           6.3846   -2.9324    2.8868 H       1  UNL1        0.0634
     55 H           8.8072   -2.7234    2.6252 H       1  UNL1        0.0829
     56 H           8.3386    0.8800    0.5710 H       1  UNL1        0.0867
     57 H          -0.5796    0.1055   -2.5112 H       1  UNL1        0.0645
@<TRIPOS>BOND
     1     1     2    2
     2     2     3    1
     3     3     4    2
     4     3     5   am
     5     5     6    1
     6     6     7    1
     7     7     8   ar
     8     8     9   ar
     9     9    10   ar
    10    10    11    1
    11    10    12   ar
    12    12    13   ar
    13     5    14    1
    14    14    15   ar
    15    15    16   ar
    16    16    17   ar
    17    17    18    1
    18    18    19    2
    19    18    20    2
    20    18    21    1
    21    21    22    1
    22    22    23    1
    23    23    24    1
    24    24    25    1
    25    25    26    1
    26    26    27    1
    27    27    28    1
    28    28    29   ar
    29    29    30   ar
    30    30    31   ar
    31    31    32   ar
    32    32    33   ar
    33    17    34   ar
    34    34    35   ar
    35    35     2    1
    36    13     7   ar
    37    35    14   ar
    38    25    21    1
    39    33    28   ar
    40     6    36    1
    41     6    37    1
    42     8    38    1
    43     9    39    1
    44    12    40    1
    45    13    41    1
    46    15    42    1
    47    16    43    1
    48    22    44    1
    49    22    45    1
    50    23    46    1
    51    23    47    1
    52    24    48    1
    53    24    49    1
    54    25    50    1
    55    26    51    1
    56    26    52    1
    57    29    53    1
    58    30    54    1
    59    31    55    1
    60    33    56    1
    61    34    57    1
