
     RDKit          3D

 57 61  0  0  0  0  0  0  0  0999 V2000
   -3.0837    1.0217   -3.8615 O   0  0  0  0  0  0  0  0  0  0  0  0
   -3.3431    0.9637   -2.6380 C   0  0  0  0  0  0  0  0  0  0  0  0
   -4.6281    1.2884   -2.0316 C   0  0  0  0  0  0  0  0  0  0  0  0
   -5.6825    1.6783   -2.6343 O   0  0  0  0  0  0  0  0  0  0  0  0
   -4.4485    1.0776   -0.6423 N   0  0  0  0  0  0  0  0  0  0  0  0
   -5.4703    1.2802    0.3519 C   0  0  0  0  0  0  0  0  0  0  0  0
   -6.3017    0.1009    0.6117 C   0  0  0  0  0  0  0  0  0  0  0  0
   -7.4513   -0.1094   -0.1258 C   0  0  0  0  0  0  0  0  0  0  0  0
   -8.2484   -1.2138    0.1048 C   0  0  0  0  0  0  0  0  0  0  0  0
   -7.9298   -2.1417    1.0725 C   0  0  0  0  0  0  0  0  0  0  0  0
   -9.0439   -3.6774    1.3889 Br  0  0  0  0  0  0  0  0  0  0  0  0
   -6.7816   -1.9229    1.8021 C   0  0  0  0  0  0  0  0  0  0  0  0
   -5.9712   -0.8165    1.5805 C   0  0  0  0  0  0  0  0  0  0  0  0
   -3.1291    0.6432   -0.3635 C   0  0  0  0  0  0  0  0  0  0  0  0
   -2.4321    0.3021    0.7870 C   0  0  0  0  0  0  0  0  0  0  0  0
   -1.1127   -0.1000    0.7836 C   0  0  0  0  0  0  0  0  0  0  0  0
   -0.4297   -0.1750   -0.4104 C   0  0  0  0  0  0  0  0  0  0  0  0
    1.2350   -0.6849   -0.3920 S   0  0  0  0  0  6  0  0  0  0  0  0
    1.5506   -1.4756   -1.6301 O   0  0  0  0  0  0  0  0  0  0  0  0
    1.4328   -1.5782    0.7992 O   0  0  0  0  0  0  0  0  0  0  0  0
    2.2555    0.6728   -0.2146 N   0  0  0  0  0  0  0  0  0  0  0  0
    2.1604    1.6275   -1.2734 C   0  0  0  0  0  0  0  0  0  0  0  0
    3.0708    1.2149   -2.3805 C   0  0  0  0  0  0  0  0  0  0  0  0
    4.0401    0.2918   -1.7182 C   0  0  0  0  0  0  0  0  0  0  0  0
    3.6580    0.2532   -0.2435 C   0  0  1  0  0  0  0  0  0  0  0  0
    4.4500    1.2515    0.5500 C   0  0  0  0  0  0  0  0  0  0  0  0
    5.7974    1.0154    0.6365 O   0  0  0  0  0  0  0  0  0  0  0  0
    6.4946   -0.0047    1.1888 C   0  0  0  0  0  0  0  0  0  0  0  0
    5.9645   -1.0833    1.8433 C   0  0  0  0  0  0  0  0  0  0  0  0
    6.7714   -2.0581    2.3593 C   0  0  0  0  0  0  0  0  0  0  0  0
    8.1307   -1.9545    2.2204 C   0  0  0  0  0  0  0  0  0  0  0  0
    8.6708   -0.9042    1.5825 N   0  0  0  0  0  0  0  0  0  0  0  0
    7.8890    0.0412    1.0816 C   0  0  0  0  0  0  0  0  0  0  0  0
   -1.0982    0.1588   -1.5728 C   0  0  0  0  0  0  0  0  0  0  0  0
   -2.4190    0.5612   -1.5673 C   0  0  0  0  0  0  0  0  0  0  0  0
   -6.1107    2.1352    0.0040 H   0  0  0  0  0  0  0  0  0  0  0  0
   -5.0340    1.6465    1.3204 H   0  0  0  0  0  0  0  0  0  0  0  0
   -7.6911    0.6239   -0.8811 H   0  0  0  0  0  0  0  0  0  0  0  0
   -9.1541   -1.3867   -0.4704 H   0  0  0  0  0  0  0  0  0  0  0  0
   -6.4952   -2.6244    2.5694 H   0  0  0  0  0  0  0  0  0  0  0  0
   -5.0753   -0.6685    2.1683 H   0  0  0  0  0  0  0  0  0  0  0  0
   -2.9603    0.3587    1.7355 H   0  0  0  0  0  0  0  0  0  0  0  0
   -0.6367   -0.3518    1.7372 H   0  0  0  0  0  0  0  0  0  0  0  0
    1.1355    1.7442   -1.6775 H   0  0  0  0  0  0  0  0  0  0  0  0
    2.5031    2.6213   -0.8687 H   0  0  0  0  0  0  0  0  0  0  0  0
    2.4715    0.7004   -3.1645 H   0  0  0  0  0  0  0  0  0  0  0  0
    3.5678    2.1265   -2.7932 H   0  0  0  0  0  0  0  0  0  0  0  0
    3.9640   -0.7037   -2.1958 H   0  0  0  0  0  0  0  0  0  0  0  0
    5.0615    0.7132   -1.8464 H   0  0  0  0  0  0  0  0  0  0  0  0
    3.7162   -0.7821    0.0837 H   0  0  0  0  0  0  0  0  0  0  0  0
    4.3205    2.2825    0.0880 H   0  0  0  0  0  0  0  0  0  0  0  0
    3.9967    1.3734    1.5852 H   0  0  0  0  0  0  0  0  0  0  0  0
    4.9031   -1.1969    1.9890 H   0  0  0  0  0  0  0  0  0  0  0  0
    6.3846   -2.9324    2.8868 H   0  0  0  0  0  0  0  0  0  0  0  0
    8.8072   -2.7234    2.6252 H   0  0  0  0  0  0  0  0  0  0  0  0
    8.3386    0.8800    0.5710 H   0  0  0  0  0  0  0  0  0  0  0  0
   -0.5796    0.1055   -2.5112 H   0  0  0  0  0  0  0  0  0  0  0  0
  1  2  2  0
  2  3  1  0
  3  4  2  0
  3  5  1  0
  5  6  1  0
  6  7  1  0
  7  8  2  0
  8  9  1  0
  9 10  2  0
 10 11  1  0
 10 12  1  0
 12 13  2  0
  5 14  1  0
 14 15  2  0
 15 16  1  0
 16 17  2  0
 17 18  1  0
 18 19  2  0
 18 20  2  0
 18 21  1  0
 21 22  1  0
 22 23  1  0
 23 24  1  0
 24 25  1  0
 25 26  1  0
 26 27  1  0
 27 28  1  0
 28 29  2  0
 29 30  1  0
 30 31  2  0
 31 32  1  0
 32 33  2  0
 17 34  1  0
 34 35  2  0
 35  2  1  0
 13  7  1  0
 35 14  1  0
 25 21  1  0
 33 28  1  0
  6 36  1  0
  6 37  1  0
  8 38  1  0
  9 39  1  0
 12 40  1  0
 13 41  1  0
 15 42  1  0
 16 43  1  0
 22 44  1  0
 22 45  1  0
 23 46  1  0
 23 47  1  0
 24 48  1  0
 24 49  1  0
 25 50  1  1
 26 51  1  0
 26 52  1  0
 29 53  1  0
 30 54  1  0
 31 55  1  0
 33 56  1  0
 34 57  1  0
M  END
$$$$
