@<TRIPOS>MOLECULE
*****
 73 76 0 0 0
SMALL
GASTEIGER

@<TRIPOS>ATOM
      1 C          -3.2615    7.0528    1.4504 C.3     1  UNL1        0.0820
      2 O          -3.7845    6.0691    0.5703 O.3     1  UNL1       -0.4649
      3 C          -3.1958    4.8334    0.4343 C.2     1  UNL1        0.3317
      4 O          -2.2242    4.8824    1.2148 O.2     1  UNL1       -0.2456
      5 C          -3.6481    3.7600   -0.4353 C.2     1  UNL1        0.0230
      6 C          -2.9549    2.6365   -0.4391 C.2     1  UNL1       -0.0478
      7 C          -3.3540    1.5303   -1.2845 C.ar    1  UNL1       -0.0231
      8 C          -2.6160    0.3433   -1.2856 C.ar    1  UNL1       -0.0331
      9 C          -2.8686   -0.7856   -2.0257 C.ar    1  UNL1        0.0372
     10 C          -3.9890   -0.7218   -2.8628 C.ar    1  UNL1       -0.0402
     11 C          -4.7629    0.4217   -2.9104 C.ar    1  UNL1       -0.0594
     12 C          -4.4376    1.5182   -2.1294 C.ar    1  UNL1       -0.0545
     13 N          -2.0016   -1.8996   -1.8920 N.am    1  UNL1       -0.2668
     14 C          -0.8139   -2.2050   -2.6355 C.3     1  UNL1        0.0448
     15 C           0.4171   -1.6278   -2.0300 C.ar    1  UNL1       -0.0297
     16 C           0.8224   -0.3484   -2.4249 C.ar    1  UNL1       -0.0565
     17 C           1.9600    0.2716   -1.9102 C.ar    1  UNL1       -0.0537
     18 C           2.7293   -0.4048   -0.9643 C.ar    1  UNL1       -0.0179
     19 C           2.3218   -1.6607   -0.5842 C.ar    1  UNL1       -0.0537
     20 C           1.1969   -2.2723   -1.0934 C.ar    1  UNL1       -0.0565
     21 C           3.9120    0.2721   -0.4444 C.ar    1  UNL1       -0.0178
     22 C           4.5852    1.1354   -1.2797 C.ar    1  UNL1       -0.0523
     23 C           5.7145    1.8061   -0.8359 C.ar    1  UNL1       -0.0401
     24 C           6.2196    1.6552    0.4310 C.ar    1  UNL1        0.0292
     25 C           5.5133    0.7828    1.2291 C.ar    1  UNL1       -0.0401
     26 C           4.3846    0.0908    0.8378 C.ar    1  UNL1       -0.0523
     27 N           7.3690    2.3264    0.9099 N.pl3   1  UNL1       -0.3360
     28 C           8.1451    3.2470    0.1439 C.3     1  UNL1        0.0004
     29 C           7.8057    2.0740    2.2737 C.3     1  UNL1        0.0004
     30 C          -2.4721   -2.7476   -0.8613 C.2     1  UNL1        0.2232
     31 O          -3.4294   -1.9646   -0.6695 O.2     1  UNL1       -0.2749
     32 C          -2.8174   -3.7267    0.1677 C.3     1  UNL1        0.0361
     33 C          -4.0830   -3.2474    0.8474 C.3     1  UNL1       -0.0419
     34 C          -4.5201   -4.1428    1.9534 C.3     1  UNL1       -0.0524
     35 C          -3.4207   -4.6540    2.8378 C.3     1  UNL1       -0.0530
     36 C          -2.1771   -5.0403    2.0989 C.3     1  UNL1       -0.0524
     37 C          -1.7493   -3.8384    1.2597 C.3     1  UNL1       -0.0419
     38 H          -2.3258    7.5011    1.0297 H       1  UNL1        0.0661
     39 H          -4.0503    7.8060    1.6138 H       1  UNL1        0.0661
     40 H          -3.0071    6.5850    2.4439 H       1  UNL1        0.0661
     41 H          -4.5114    3.9417   -1.0185 H       1  UNL1        0.0689
     42 H          -2.0858    2.5363    0.1889 H       1  UNL1        0.0626
     43 H          -1.7497    0.3302   -0.6227 H       1  UNL1        0.0642
     44 H          -4.1928   -1.6152   -3.4524 H       1  UNL1        0.0636
     45 H          -5.6222    0.4338   -3.5704 H       1  UNL1        0.0618
     46 H          -5.0556    2.3840   -2.1916 H       1  UNL1        0.0623
     47 H          -0.8669   -1.8345   -3.6830 H       1  UNL1        0.0518
     48 H          -0.6398   -3.3154   -2.7011 H       1  UNL1        0.0518
     49 H           0.2020    0.1597   -3.1692 H       1  UNL1        0.0621
     50 H           2.1678    1.2571   -2.2928 H       1  UNL1        0.0624
     51 H           2.9312   -2.1872    0.1635 H       1  UNL1        0.0624
     52 H           0.8917   -3.2693   -0.7776 H       1  UNL1        0.0621
     53 H           4.2239    1.2901   -2.2920 H       1  UNL1        0.0624
     54 H           6.1862    2.4594   -1.5372 H       1  UNL1        0.0636
     55 H           5.8006    0.5677    2.2575 H       1  UNL1        0.0636
     56 H           3.8443   -0.5940    1.4818 H       1  UNL1        0.0624
     57 H           7.6954    3.5914   -0.8018 H       1  UNL1        0.0428
     58 H           9.1241    2.7599   -0.0715 H       1  UNL1        0.0428
     59 H           8.3412    4.1758    0.7313 H       1  UNL1        0.0428
     60 H           7.7960    0.9507    2.3964 H       1  UNL1        0.0428
     61 H           8.7939    2.4949    2.4793 H       1  UNL1        0.0428
     62 H           7.0858    2.5353    3.0091 H       1  UNL1        0.0428
     63 H          -3.0010   -4.7333   -0.2074 H       1  UNL1        0.0394
     64 H          -4.8779   -3.2641    0.0724 H       1  UNL1        0.0272
     65 H          -3.9722   -2.1886    1.1597 H       1  UNL1        0.0272
     66 H          -5.1508   -4.9995    1.5800 H       1  UNL1        0.0265
     67 H          -5.2303   -3.5674    2.6044 H       1  UNL1        0.0265
     68 H          -3.1531   -3.9921    3.6668 H       1  UNL1        0.0265
     69 H          -3.8132   -5.6008    3.3148 H       1  UNL1        0.0265
     70 H          -2.3023   -5.8822    1.4182 H       1  UNL1        0.0265
     71 H          -1.3690   -5.1842    2.8460 H       1  UNL1        0.0265
     72 H          -0.7592   -4.0101    0.8307 H       1  UNL1        0.0272
     73 H          -1.8623   -2.9432    1.8743 H       1  UNL1        0.0272
@<TRIPOS>BOND
     1     1     2    1
     2     2     3    1
     3     3     4    2
     4     3     5    1
     5     5     6    2
     6     6     7    1
     7     7     8   ar
     8     8     9   ar
     9     9    10   ar
    10    10    11   ar
    11    11    12   ar
    12     9    13    1
    13    13    14    1
    14    14    15    1
    15    15    16   ar
    16    16    17   ar
    17    17    18   ar
    18    18    19   ar
    19    19    20   ar
    20    18    21    1
    21    21    22   ar
    22    22    23   ar
    23    23    24   ar
    24    24    25   ar
    25    25    26   ar
    26    24    27    1
    27    27    28    1
    28    27    29    1
    29    13    30   am
    30    30    31    2
    31    30    32    1
    32    32    33    1
    33    33    34    1
    34    34    35    1
    35    35    36    1
    36    36    37    1
    37    12     7   ar
    38    20    15   ar
    39    26    21   ar
    40    37    32    1
    41     1    38    1
    42     1    39    1
    43     1    40    1
    44     5    41    1
    45     6    42    1
    46     8    43    1
    47    10    44    1
    48    11    45    1
    49    12    46    1
    50    14    47    1
    51    14    48    1
    52    16    49    1
    53    17    50    1
    54    19    51    1
    55    20    52    1
    56    22    53    1
    57    23    54    1
    58    25    55    1
    59    26    56    1
    60    28    57    1
    61    28    58    1
    62    28    59    1
    63    29    60    1
    64    29    61    1
    65    29    62    1
    66    32    63    1
    67    33    64    1
    68    33    65    1
    69    34    66    1
    70    34    67    1
    71    35    68    1
    72    35    69    1
    73    36    70    1
    74    36    71    1
    75    37    72    1
    76    37    73    1
