@<TRIPOS>MOLECULE
*****
 92 92 0 0 0
SMALL
GASTEIGER

@<TRIPOS>ATOM
      1 C          -8.7850    3.3890   -1.3275 C.3     1  UNL1        0.0364
      2 O          -7.4978    2.9563   -1.0184 O.3     1  UNL1       -0.3829
      3 C          -7.3613    1.5727   -1.0465 C.3     1  UNL1        0.0504
      4 C          -8.2509    0.8384   -0.1012 C.3     1  UNL1        0.0049
      5 C          -8.0706   -0.6789   -0.1582 C.3     1  UNL1        0.0918
      6 O          -6.8914   -1.1539    0.1333 O.3     1  UNL1       -0.4882
      7 C          -5.7337   -1.6066    0.4021 C.ar    1  UNL1        0.1621
      8 C          -5.6058   -2.4781    1.4691 C.ar    1  UNL1        0.1615
      9 O          -6.7004   -2.8406    2.2163 O.3     1  UNL1       -0.4915
     10 C          -6.5449   -3.7314    3.3038 C.3     1  UNL1        0.0790
     11 C          -4.3903   -3.0397    1.8583 C.ar    1  UNL1       -0.0160
     12 C          -3.2943   -2.6642    1.0950 C.ar    1  UNL1       -0.0549
     13 C          -3.3356   -1.8017    0.0164 C.ar    1  UNL1       -0.0434
     14 C          -2.0728   -1.4809   -0.7423 C.3     1  UNL1       -0.0244
     15 C          -1.3369   -0.3033   -0.1503 C.3     1  UNL1       -0.0332
     16 C          -0.0883    0.0791   -0.8428 C.3     1  UNL1       -0.0320
     17 C           1.0186   -0.8768   -0.9504 C.3     1  UNL1        0.0314
     18 N           0.5825   -2.0595   -1.6726 N.3     1  UNL1       -0.3251
     19 C           1.7416   -1.2457    0.3084 C.3     1  UNL1        0.0710
     20 O           2.8300   -2.0108   -0.0673 O.3     1  UNL1       -0.3902
     21 C           2.1952   -0.0485    1.0968 C.3     1  UNL1       -0.0140
     22 C           3.1458    0.8119    0.2852 C.3     1  UNL1        0.0402
     23 C           3.4882    2.0171    1.1631 C.3     1  UNL1       -0.0355
     24 C           4.1694    1.6338    2.4420 C.3     1  UNL1       -0.0620
     25 C           4.3136    2.9729    0.3743 C.3     1  UNL1       -0.0620
     26 C           4.4086    0.0650    0.0507 C.2     1  UNL1        0.2165
     27 O           4.7304   -0.7886    0.9510 O.2     1  UNL1       -0.2755
     28 N           5.3339    0.1084   -0.9927 N.am    1  UNL1       -0.3141
     29 C           6.5411   -0.4442   -1.4624 C.3     1  UNL1        0.0250
     30 C           7.7289   -0.1961   -0.5963 C.3     1  UNL1        0.0566
     31 C           7.6538   -0.7171    0.7913 C.3     1  UNL1       -0.0500
     32 C           7.9923    1.3032   -0.5513 C.3     1  UNL1       -0.0500
     33 C           8.9019   -0.8615   -1.3183 C.2     1  UNL1        0.2176
     34 N           9.4591   -0.6612   -2.6050 N.am    1  UNL1       -0.3288
     35 O           9.5978   -1.7861   -0.7801 O.2     1  UNL1       -0.2754
     36 C          -2.2340    0.9301   -0.1692 C.3     1  UNL1       -0.0435
     37 C          -1.4965    2.1071    0.4344 C.3     1  UNL1       -0.0624
     38 C          -2.5826    1.3332   -1.5881 C.3     1  UNL1       -0.0624
     39 C          -4.5836   -1.2980   -0.2904 C.ar    1  UNL1       -0.0131
     40 H          -9.5354    3.0010   -0.6098 H       1  UNL1        0.0523
     41 H          -9.0673    3.0910   -2.3618 H       1  UNL1        0.0523
     42 H          -8.7988    4.4885   -1.2270 H       1  UNL1        0.0523
     43 H          -7.5436    1.2678   -2.1202 H       1  UNL1        0.0561
     44 H          -6.2765    1.3664   -0.8626 H       1  UNL1        0.0561
     45 H          -8.1096    1.2248    0.9043 H       1  UNL1        0.0320
     46 H          -9.3108    1.0046   -0.4296 H       1  UNL1        0.0320
     47 H          -8.3338   -0.9188   -1.2462 H       1  UNL1        0.0697
     48 H          -8.9517   -1.1643    0.3784 H       1  UNL1        0.0697
     49 H          -6.0902   -4.6670    2.8875 H       1  UNL1        0.0660
     50 H          -7.5320   -3.9347    3.7848 H       1  UNL1        0.0660
     51 H          -5.8221   -3.3031    4.0027 H       1  UNL1        0.0660
     52 H          -4.2902   -3.7179    2.6905 H       1  UNL1        0.0655
     53 H          -2.3288   -3.0632    1.3453 H       1  UNL1        0.0621
     54 H          -2.2843   -1.4049   -1.8116 H       1  UNL1        0.0316
     55 H          -1.4595   -2.4244   -0.6184 H       1  UNL1        0.0316
     56 H          -1.2123   -0.5578    0.9228 H       1  UNL1        0.0307
     57 H           0.3150    1.0751   -0.4935 H       1  UNL1        0.0284
     58 H          -0.3965    0.3265   -1.9091 H       1  UNL1        0.0284
     59 H           1.7896   -0.4021   -1.6288 H       1  UNL1        0.0484
     60 H          -0.0293   -1.8390   -2.4637 H       1  UNL1        0.1185
     61 H           1.3915   -2.6276   -2.0135 H       1  UNL1        0.1185
     62 H           1.1465   -1.8629    1.0034 H       1  UNL1        0.0609
     63 H           2.8843   -2.8725    0.4053 H       1  UNL1        0.2098
     64 H           1.3280    0.5707    1.3402 H       1  UNL1        0.0298
     65 H           2.7333   -0.4128    2.0191 H       1  UNL1        0.0298
     66 H           2.6951    1.1084   -0.6385 H       1  UNL1        0.0397
     67 H           2.5026    2.4933    1.4840 H       1  UNL1        0.0303
     68 H           4.4682    2.5968    2.9514 H       1  UNL1        0.0233
     69 H           3.5383    1.0420    3.1304 H       1  UNL1        0.0233
     70 H           5.1410    1.0991    2.2295 H       1  UNL1        0.0233
     71 H           3.9375    4.0059    0.6586 H       1  UNL1        0.0233
     72 H           5.3959    2.9167    0.6518 H       1  UNL1        0.0233
     73 H           4.2350    2.8943   -0.7177 H       1  UNL1        0.0233
     74 H           4.9400    0.8485   -1.6608 H       1  UNL1        0.1487
     75 H           6.4044   -1.5771   -1.5945 H       1  UNL1        0.0472
     76 H           6.8075   -0.1096   -2.4945 H       1  UNL1        0.0472
     77 H           7.2333   -1.7191    0.9209 H       1  UNL1        0.0240
     78 H           7.2267    0.0666    1.4508 H       1  UNL1        0.0240
     79 H           8.7205   -0.8110    1.1583 H       1  UNL1        0.0240
     80 H           7.6629    1.8222   -1.4825 H       1  UNL1        0.0240
     81 H           7.4077    1.7296    0.2818 H       1  UNL1        0.0240
     82 H           9.0763    1.4955   -0.3251 H       1  UNL1        0.0240
     83 H          10.2704   -0.0361   -2.7944 H       1  UNL1        0.1449
     84 H           8.9965   -1.1924   -3.3805 H       1  UNL1        0.1449
     85 H          -3.1058    0.7244    0.4667 H       1  UNL1        0.0298
     86 H          -0.9025    2.6881   -0.2644 H       1  UNL1        0.0232
     87 H          -0.8594    1.6766    1.2362 H       1  UNL1        0.0232
     88 H          -2.2719    2.7807    0.8758 H       1  UNL1        0.0232
     89 H          -2.0129    2.2454   -1.9243 H       1  UNL1        0.0232
     90 H          -2.3888    0.5560   -2.3335 H       1  UNL1        0.0232
     91 H          -3.6516    1.6869   -1.5711 H       1  UNL1        0.0232
     92 H          -4.6587   -0.6194   -1.1288 H       1  UNL1        0.0658
@<TRIPOS>BOND
     1     1     2    1
     2     2     3    1
     3     3     4    1
     4     4     5    1
     5     5     6    1
     6     6     7    1
     7     7     8   ar
     8     8     9    1
     9     9    10    1
    10     8    11   ar
    11    11    12   ar
    12    12    13   ar
    13    13    14    1
    14    14    15    1
    15    15    16    1
    16    16    17    1
    17    17    18    1
    18    17    19    1
    19    19    20    1
    20    19    21    1
    21    21    22    1
    22    22    23    1
    23    23    24    1
    24    23    25    1
    25    22    26    1
    26    26    27    2
    27    26    28   am
    28    28    29    1
    29    29    30    1
    30    30    31    1
    31    30    32    1
    32    30    33    1
    33    33    34   am
    34    33    35    2
    35    15    36    1
    36    36    37    1
    37    36    38    1
    38    13    39   ar
    39    39     7   ar
    40     1    40    1
    41     1    41    1
    42     1    42    1
    43     3    43    1
    44     3    44    1
    45     4    45    1
    46     4    46    1
    47     5    47    1
    48     5    48    1
    49    10    49    1
    50    10    50    1
    51    10    51    1
    52    11    52    1
    53    12    53    1
    54    14    54    1
    55    14    55    1
    56    15    56    1
    57    16    57    1
    58    16    58    1
    59    17    59    1
    60    18    60    1
    61    18    61    1
    62    19    62    1
    63    20    63    1
    64    21    64    1
    65    21    65    1
    66    22    66    1
    67    23    67    1
    68    24    68    1
    69    24    69    1
    70    24    70    1
    71    25    71    1
    72    25    72    1
    73    25    73    1
    74    28    74    1
    75    29    75    1
    76    29    76    1
    77    31    77    1
    78    31    78    1
    79    31    79    1
    80    32    80    1
    81    32    81    1
    82    32    82    1
    83    34    83    1
    84    34    84    1
    85    36    85    1
    86    37    86    1
    87    37    87    1
    88    37    88    1
    89    38    89    1
    90    38    90    1
    91    38    91    1
    92    39    92    1
