@<TRIPOS>MOLECULE
*****
 66 69 0 0 0
SMALL
GASTEIGER

@<TRIPOS>ATOM
      1 C          -9.5059   -0.3295   -1.6657 C.3     1  UNL1       -0.0457
      2 C          -8.7804    0.0577   -0.3741 C.3     1  UNL1        0.0316
      3 C          -8.3222   -1.1949    0.2821 C.3     1  UNL1       -0.0457
      4 C          -9.8596    0.6865    0.4966 C.3     1  UNL1       -0.0457
      5 N          -7.7581    1.0005   -0.7272 N.3     1  UNL1       -0.1846
      6 S          -6.7425    1.4717    0.5593 S.O2    1  UNL1        0.0589
      7 O          -6.7522    2.9998    0.5783 O.2     1  UNL1       -0.1530
      8 O          -7.2307    1.0644    1.9138 O.2     1  UNL1       -0.1530
      9 C          -5.0657    1.0039    0.3438 C.ar    1  UNL1        0.1053
     10 C          -4.0689    1.9282    0.0392 C.ar    1  UNL1       -0.0348
     11 C          -2.7393    1.5430   -0.1418 C.ar    1  UNL1       -0.0517
     12 C          -2.3993    0.2169   -0.0186 C.ar    1  UNL1       -0.0112
     13 C          -0.9816   -0.2192   -0.1783 C.ar    1  UNL1        0.0206
     14 C          -0.4858   -1.4514   -0.2092 C.ar    1  UNL1       -0.0359
     15 C           0.8408   -1.6322   -0.3783 C.ar    1  UNL1        0.0300
     16 C           1.5860   -2.8383   -0.4449 C.ar    1  UNL1        0.1245
     17 N           0.9521   -4.1104   -0.3293 N.pl3   1  UNL1       -0.3426
     18 N           2.9031   -2.8252   -0.6195 N.ar    1  UNL1       -0.2393
     19 C           3.6711   -1.7356   -0.7491 C.ar    1  UNL1        0.0429
     20 C           2.9888   -0.5232   -0.6903 C.ar    1  UNL1        0.0691
     21 C           3.6837    0.7515   -0.7782 C.2     1  UNL1        0.2467
     22 O           3.3130    1.6999   -1.5056 O.2     1  UNL1       -0.2701
     23 N           4.8741    0.9718    0.0044 N.am    1  UNL1       -0.3101
     24 C           5.6490    2.1849    0.0029 C.3     1  UNL1        0.0247
     25 C           6.8368    2.0882    0.9412 C.3     1  UNL1        0.0146
     26 N           7.7435    1.0634    0.6280 N.3     1  UNL1       -0.2965
     27 C           8.5211    1.1653   -0.5397 C.3     1  UNL1        0.0225
     28 C           9.4869    0.0160   -0.7321 C.3     1  UNL1        0.0604
     29 O           8.7626   -1.1515   -0.4358 O.3     1  UNL1       -0.3772
     30 C           8.6428   -1.2015    0.9446 C.3     1  UNL1        0.0604
     31 C           7.9668    0.0111    1.5187 C.3     1  UNL1        0.0225
     32 C           1.6184   -0.5158   -0.5104 C.ar    1  UNL1        0.0367
     33 S           0.3886    0.8051   -0.3865 S.2     1  UNL1       -0.0873
     34 C          -3.3857   -0.6692    0.2778 C.ar    1  UNL1       -0.0517
     35 C          -4.7139   -0.3183    0.4640 C.ar    1  UNL1       -0.0348
     36 H         -10.6056   -0.4460   -1.4960 H       1  UNL1        0.0248
     37 H          -9.3707    0.3979   -2.4750 H       1  UNL1        0.0248
     38 H          -9.1327   -1.3229   -2.0317 H       1  UNL1        0.0248
     39 H          -7.7050   -1.8358   -0.4144 H       1  UNL1        0.0248
     40 H          -9.2331   -1.7922    0.5152 H       1  UNL1        0.0248
     41 H          -7.7858   -1.0761    1.2271 H       1  UNL1        0.0248
     42 H          -9.4853    1.1787    1.3894 H       1  UNL1        0.0248
     43 H         -10.5249   -0.1399    0.8199 H       1  UNL1        0.0248
     44 H         -10.4592    1.3624   -0.1574 H       1  UNL1        0.0248
     45 H          -8.2317    1.7984   -1.1927 H       1  UNL1        0.1486
     46 H          -4.3308    2.9651   -0.0572 H       1  UNL1        0.0637
     47 H          -1.9841    2.2960   -0.3776 H       1  UNL1        0.0624
     48 H          -1.1790   -2.3248   -0.0923 H       1  UNL1        0.0636
     49 H           1.4507   -4.8846    0.1902 H       1  UNL1        0.1437
     50 H           0.0241   -4.3351   -0.7220 H       1  UNL1        0.1437
     51 H           4.7285   -1.7015   -0.8884 H       1  UNL1        0.0838
     52 H           5.1706    0.1748    0.6063 H       1  UNL1        0.1491
     53 H           6.0933    2.2455   -1.0345 H       1  UNL1        0.0475
     54 H           5.0322    3.0682    0.1979 H       1  UNL1        0.0475
     55 H           7.3496    3.0710    0.8892 H       1  UNL1        0.0442
     56 H           6.4919    1.9649    1.9944 H       1  UNL1        0.0442
     57 H           9.1703    2.0849   -0.4950 H       1  UNL1        0.0449
     58 H           7.9641    1.2733   -1.4972 H       1  UNL1        0.0449
     59 H           9.8143    0.0285   -1.7882 H       1  UNL1        0.0572
     60 H          10.3184    0.1213   -0.0161 H       1  UNL1        0.0572
     61 H           8.0801   -2.1265    1.1852 H       1  UNL1        0.0572
     62 H           9.6520   -1.3333    1.3766 H       1  UNL1        0.0572
     63 H           7.0246   -0.3044    2.0087 H       1  UNL1        0.0449
     64 H           8.6027    0.3830    2.3779 H       1  UNL1        0.0449
     65 H          -3.1193   -1.7096    0.3740 H       1  UNL1        0.0624
     66 H          -5.4579   -1.0945    0.7051 H       1  UNL1        0.0637
@<TRIPOS>BOND
     1     1     2    1
     2     2     3    1
     3     2     4    1
     4     2     5    1
     5     5     6    1
     6     6     7    2
     7     6     8    2
     8     6     9    1
     9     9    10   ar
    10    10    11   ar
    11    11    12   ar
    12    12    13    1
    13    13    14   ar
    14    14    15   ar
    15    15    16   ar
    16    16    17    1
    17    16    18   ar
    18    18    19   ar
    19    19    20   ar
    20    20    21    1
    21    21    22    2
    22    21    23   am
    23    23    24    1
    24    24    25    1
    25    25    26    1
    26    26    27    1
    27    27    28    1
    28    28    29    1
    29    29    30    1
    30    30    31    1
    31    20    32   ar
    32    32    33   ar
    33    12    34   ar
    34    34    35   ar
    35    35     9   ar
    36    33    13   ar
    37    32    15   ar
    38    31    26    1
    39     1    36    1
    40     1    37    1
    41     1    38    1
    42     3    39    1
    43     3    40    1
    44     3    41    1
    45     4    42    1
    46     4    43    1
    47     4    44    1
    48     5    45    1
    49    10    46    1
    50    11    47    1
    51    14    48    1
    52    17    49    1
    53    17    50    1
    54    19    51    1
    55    23    52    1
    56    24    53    1
    57    24    54    1
    58    25    55    1
    59    25    56    1
    60    27    57    1
    61    27    58    1
    62    28    59    1
    63    28    60    1
    64    30    61    1
    65    30    62    1
    66    31    63    1
    67    31    64    1
    68    34    65    1
    69    35    66    1
