
     RDKit          3D

 66 69  0  0  0  0  0  0  0  0999 V2000
   -9.5059   -0.3295   -1.6657 C   0  0  0  0  0  0  0  0  0  0  0  0
   -8.7804    0.0577   -0.3741 C   0  0  0  0  0  0  0  0  0  0  0  0
   -8.3222   -1.1949    0.2821 C   0  0  0  0  0  0  0  0  0  0  0  0
   -9.8596    0.6865    0.4966 C   0  0  0  0  0  0  0  0  0  0  0  0
   -7.7581    1.0005   -0.7272 N   0  0  0  0  0  0  0  0  0  0  0  0
   -6.7425    1.4717    0.5593 S   0  0  0  0  0  6  0  0  0  0  0  0
   -6.7522    2.9998    0.5783 O   0  0  0  0  0  0  0  0  0  0  0  0
   -7.2307    1.0644    1.9138 O   0  0  0  0  0  0  0  0  0  0  0  0
   -5.0657    1.0039    0.3438 C   0  0  0  0  0  0  0  0  0  0  0  0
   -4.0689    1.9282    0.0392 C   0  0  0  0  0  0  0  0  0  0  0  0
   -2.7393    1.5430   -0.1418 C   0  0  0  0  0  0  0  0  0  0  0  0
   -2.3993    0.2169   -0.0186 C   0  0  0  0  0  0  0  0  0  0  0  0
   -0.9816   -0.2192   -0.1783 C   0  0  0  0  0  0  0  0  0  0  0  0
   -0.4858   -1.4514   -0.2092 C   0  0  0  0  0  0  0  0  0  0  0  0
    0.8408   -1.6322   -0.3783 C   0  0  0  0  0  0  0  0  0  0  0  0
    1.5860   -2.8383   -0.4449 C   0  0  0  0  0  0  0  0  0  0  0  0
    0.9521   -4.1104   -0.3293 N   0  0  0  0  0  0  0  0  0  0  0  0
    2.9031   -2.8252   -0.6195 N   0  0  0  0  0  0  0  0  0  0  0  0
    3.6711   -1.7356   -0.7491 C   0  0  0  0  0  0  0  0  0  0  0  0
    2.9888   -0.5232   -0.6903 C   0  0  0  0  0  0  0  0  0  0  0  0
    3.6837    0.7515   -0.7782 C   0  0  0  0  0  0  0  0  0  0  0  0
    3.3130    1.6999   -1.5056 O   0  0  0  0  0  0  0  0  0  0  0  0
    4.8741    0.9718    0.0044 N   0  0  0  0  0  0  0  0  0  0  0  0
    5.6490    2.1849    0.0029 C   0  0  0  0  0  0  0  0  0  0  0  0
    6.8368    2.0882    0.9412 C   0  0  0  0  0  0  0  0  0  0  0  0
    7.7435    1.0634    0.6280 N   0  0  0  0  0  0  0  0  0  0  0  0
    8.5211    1.1653   -0.5397 C   0  0  0  0  0  0  0  0  0  0  0  0
    9.4869    0.0160   -0.7321 C   0  0  0  0  0  0  0  0  0  0  0  0
    8.7626   -1.1515   -0.4358 O   0  0  0  0  0  0  0  0  0  0  0  0
    8.6428   -1.2015    0.9446 C   0  0  0  0  0  0  0  0  0  0  0  0
    7.9668    0.0111    1.5187 C   0  0  0  0  0  0  0  0  0  0  0  0
    1.6184   -0.5158   -0.5104 C   0  0  0  0  0  0  0  0  0  0  0  0
    0.3886    0.8051   -0.3865 S   0  0  0  0  0  0  0  0  0  0  0  0
   -3.3857   -0.6692    0.2778 C   0  0  0  0  0  0  0  0  0  0  0  0
   -4.7139   -0.3183    0.4640 C   0  0  0  0  0  0  0  0  0  0  0  0
  -10.6056   -0.4460   -1.4960 H   0  0  0  0  0  0  0  0  0  0  0  0
   -9.3707    0.3979   -2.4750 H   0  0  0  0  0  0  0  0  0  0  0  0
   -9.1327   -1.3229   -2.0317 H   0  0  0  0  0  0  0  0  0  0  0  0
   -7.7050   -1.8358   -0.4144 H   0  0  0  0  0  0  0  0  0  0  0  0
   -9.2331   -1.7922    0.5152 H   0  0  0  0  0  0  0  0  0  0  0  0
   -7.7858   -1.0761    1.2271 H   0  0  0  0  0  0  0  0  0  0  0  0
   -9.4853    1.1787    1.3894 H   0  0  0  0  0  0  0  0  0  0  0  0
  -10.5249   -0.1399    0.8199 H   0  0  0  0  0  0  0  0  0  0  0  0
  -10.4592    1.3624   -0.1574 H   0  0  0  0  0  0  0  0  0  0  0  0
   -8.2317    1.7984   -1.1927 H   0  0  0  0  0  0  0  0  0  0  0  0
   -4.3308    2.9651   -0.0572 H   0  0  0  0  0  0  0  0  0  0  0  0
   -1.9841    2.2960   -0.3776 H   0  0  0  0  0  0  0  0  0  0  0  0
   -1.1790   -2.3248   -0.0923 H   0  0  0  0  0  0  0  0  0  0  0  0
    1.4507   -4.8846    0.1902 H   0  0  0  0  0  0  0  0  0  0  0  0
    0.0241   -4.3351   -0.7220 H   0  0  0  0  0  0  0  0  0  0  0  0
    4.7285   -1.7015   -0.8884 H   0  0  0  0  0  0  0  0  0  0  0  0
    5.1706    0.1748    0.6063 H   0  0  0  0  0  0  0  0  0  0  0  0
    6.0933    2.2455   -1.0345 H   0  0  0  0  0  0  0  0  0  0  0  0
    5.0322    3.0682    0.1979 H   0  0  0  0  0  0  0  0  0  0  0  0
    7.3496    3.0710    0.8892 H   0  0  0  0  0  0  0  0  0  0  0  0
    6.4919    1.9649    1.9944 H   0  0  0  0  0  0  0  0  0  0  0  0
    9.1703    2.0849   -0.4950 H   0  0  0  0  0  0  0  0  0  0  0  0
    7.9641    1.2733   -1.4972 H   0  0  0  0  0  0  0  0  0  0  0  0
    9.8143    0.0285   -1.7882 H   0  0  0  0  0  0  0  0  0  0  0  0
   10.3184    0.1213   -0.0161 H   0  0  0  0  0  0  0  0  0  0  0  0
    8.0801   -2.1265    1.1852 H   0  0  0  0  0  0  0  0  0  0  0  0
    9.6520   -1.3333    1.3766 H   0  0  0  0  0  0  0  0  0  0  0  0
    7.0246   -0.3044    2.0087 H   0  0  0  0  0  0  0  0  0  0  0  0
    8.6027    0.3830    2.3779 H   0  0  0  0  0  0  0  0  0  0  0  0
   -3.1193   -1.7096    0.3740 H   0  0  0  0  0  0  0  0  0  0  0  0
   -5.4579   -1.0945    0.7051 H   0  0  0  0  0  0  0  0  0  0  0  0
  1  2  1  0
  2  3  1  0
  2  4  1  0
  2  5  1  0
  5  6  1  0
  6  7  2  0
  6  8  2  0
  6  9  1  0
  9 10  2  0
 10 11  1  0
 11 12  2  0
 12 13  1  0
 13 14  2  0
 14 15  1  0
 15 16  2  0
 16 17  1  0
 16 18  1  0
 18 19  2  0
 19 20  1  0
 20 21  1  0
 21 22  2  0
 21 23  1  0
 23 24  1  0
 24 25  1  0
 25 26  1  0
 26 27  1  0
 27 28  1  0
 28 29  1  0
 29 30  1  0
 30 31  1  0
 20 32  2  0
 32 33  1  0
 12 34  1  0
 34 35  2  0
 35  9  1  0
 33 13  1  0
 32 15  1  0
 31 26  1  0
  1 36  1  0
  1 37  1  0
  1 38  1  0
  3 39  1  0
  3 40  1  0
  3 41  1  0
  4 42  1  0
  4 43  1  0
  4 44  1  0
  5 45  1  0
 10 46  1  0
 11 47  1  0
 14 48  1  0
 17 49  1  0
 17 50  1  0
 19 51  1  0
 23 52  1  0
 24 53  1  0
 24 54  1  0
 25 55  1  0
 25 56  1  0
 27 57  1  0
 27 58  1  0
 28 59  1  0
 28 60  1  0
 30 61  1  0
 30 62  1  0
 31 63  1  0
 31 64  1  0
 34 65  1  0
 35 66  1  0
M  END
$$$$
