@<TRIPOS>MOLECULE
*****
 55 57 0 0 0
SMALL
GASTEIGER

@<TRIPOS>ATOM
      1 O           7.4679    1.6955   -1.8162 O.2     1  UNL1       -0.2737
      2 C           6.3017    1.7816   -1.3884 C.2     1  UNL1        0.2354
      3 C           5.6248    0.5180   -0.9203 C.3     1  UNL1        0.0259
      4 C           6.5797   -0.6054   -1.0944 C.3     1  UNL1       -0.0447
      5 C           6.1498   -1.9562   -0.7558 C.3     1  UNL1       -0.0526
      6 C           5.7572   -2.3718    0.5919 C.3     1  UNL1       -0.0526
      7 C           4.5897   -1.6984    1.1911 C.3     1  UNL1       -0.0448
      8 C           3.3367   -1.8245    0.3609 C.3     1  UNL1        0.0243
      9 C           2.2396   -1.0944    1.0925 C.2     1  UNL1        0.2172
     10 O           2.5050   -0.5459    2.1738 O.2     1  UNL1       -0.2755
     11 N           0.9816   -1.0802    0.5034 N.am    1  UNL1       -0.2855
     12 C          -0.1643   -0.4520    1.0344 C.ar    1  UNL1        0.0340
     13 C          -0.1724    0.2340    2.2208 C.ar    1  UNL1       -0.0404
     14 C          -1.3512    0.8393    2.6961 C.ar    1  UNL1       -0.0594
     15 C          -2.5101    0.7434    1.9642 C.ar    1  UNL1       -0.0523
     16 C          -2.5238    0.0558    0.7644 C.ar    1  UNL1        0.0054
     17 C          -3.7432   -0.0632   -0.0370 C.ar    1  UNL1        0.1130
     18 C          -4.9867    0.4558    0.2572 C.ar    1  UNL1        0.0591
     19 N          -5.8408    0.1288   -0.7269 N.ar    1  UNL1       -0.2195
     20 C          -7.2305    0.4522   -0.8436 C.ar    1  UNL1        0.0671
     21 C          -8.0293    0.4652    0.2821 C.ar    1  UNL1       -0.0352
     22 C          -9.3783    0.7697    0.2338 C.ar    1  UNL1       -0.0466
     23 C          -9.9744    1.0760   -0.9725 C.ar    1  UNL1        0.0135
     24 I         -12.0312    1.5481   -1.0993 I       1  UNL1       -0.0438
     25 C          -9.1745    1.0633   -2.1014 C.ar    1  UNL1       -0.0466
     26 C          -7.8222    0.7580   -2.0523 C.ar    1  UNL1       -0.0352
     27 N          -5.1551   -0.5698   -1.6047 N.ar    1  UNL1       -0.0602
     28 N          -3.8905   -0.6979   -1.2101 N.ar    1  UNL1       -0.1292
     29 C          -1.3706   -0.5181    0.3313 C.ar    1  UNL1       -0.0312
     30 N           5.6051    3.0176   -1.3312 N.am    1  UNL1       -0.1975
     31 O           6.2081    4.1397   -1.7476 O.3     1  UNL1       -0.2952
     32 H           5.3193    0.7441    0.1024 H       1  UNL1        0.0359
     33 H           4.7347    0.3928   -1.5662 H       1  UNL1        0.0359
     34 H           7.5017   -0.3770   -0.4515 H       1  UNL1        0.0270
     35 H           6.9143   -0.6020   -2.1723 H       1  UNL1        0.0270
     36 H           6.9797   -2.6702   -1.1179 H       1  UNL1        0.0265
     37 H           5.2908   -2.2101   -1.4890 H       1  UNL1        0.0265
     38 H           5.5291   -3.4778    0.5718 H       1  UNL1        0.0265
     39 H           6.6031   -2.3144    1.3380 H       1  UNL1        0.0265
     40 H           4.6795   -0.7061    1.5888 H       1  UNL1        0.0270
     41 H           4.3668   -2.3238    2.1567 H       1  UNL1        0.0270
     42 H           3.0190   -2.8913    0.2904 H       1  UNL1        0.0358
     43 H           3.4498   -1.4479   -0.6553 H       1  UNL1        0.0358
     44 H           0.8747   -1.5836   -0.4222 H       1  UNL1        0.1548
     45 H           0.7145    0.3326    2.8246 H       1  UNL1        0.0636
     46 H          -1.2904    1.3625    3.6337 H       1  UNL1        0.0618
     47 H          -3.4224    1.2049    2.3200 H       1  UNL1        0.0624
     48 H          -5.2881    1.0369    1.1186 H       1  UNL1        0.0853
     49 H          -7.5327    0.2181    1.2306 H       1  UNL1        0.0639
     50 H          -9.9627    0.7660    1.1480 H       1  UNL1        0.0629
     51 H          -9.6536    1.3053   -3.0415 H       1  UNL1        0.0629
     52 H          -7.2014    0.7516   -2.9526 H       1  UNL1        0.0639
     53 H          -1.3717   -1.0649   -0.6181 H       1  UNL1        0.0643
     54 H           4.6395    3.0372   -0.9683 H       1  UNL1        0.1822
     55 H           7.1086    4.2527   -1.3896 H       1  UNL1        0.2414
@<TRIPOS>BOND
     1     1     2    2
     2     2     3    1
     3     3     4    1
     4     4     5    1
     5     5     6    1
     6     6     7    1
     7     7     8    1
     8     8     9    1
     9     9    10    2
    10     9    11   am
    11    11    12    1
    12    12    13   ar
    13    13    14   ar
    14    14    15   ar
    15    15    16   ar
    16    16    17    1
    17    17    18   ar
    18    18    19   ar
    19    19    20    1
    20    20    21   ar
    21    21    22   ar
    22    22    23   ar
    23    23    24    1
    24    23    25   ar
    25    25    26   ar
    26    19    27   ar
    27    27    28   ar
    28    16    29   ar
    29     2    30   am
    30    30    31    1
    31    29    12   ar
    32    28    17   ar
    33    26    20   ar
    34     3    32    1
    35     3    33    1
    36     4    34    1
    37     4    35    1
    38     5    36    1
    39     5    37    1
    40     6    38    1
    41     6    39    1
    42     7    40    1
    43     7    41    1
    44     8    42    1
    45     8    43    1
    46    11    44    1
    47    13    45    1
    48    14    46    1
    49    15    47    1
    50    18    48    1
    51    21    49    1
    52    22    50    1
    53    25    51    1
    54    26    52    1
    55    29    53    1
    56    30    54    1
    57    31    55    1
