@<TRIPOS>MOLECULE
*****
 68 70 0 0 0
SMALL
GASTEIGER

@<TRIPOS>ATOM
      1 C          -3.9705    0.3055    3.5836 C.3     1  UNL1       -0.0585
      2 C          -3.7305   -0.8829    2.6513 C.3     1  UNL1       -0.0183
      3 C          -4.7999   -1.9032    3.0105 C.3     1  UNL1       -0.0585
      4 C          -4.0229   -0.4269    1.2704 C.ar    1  UNL1       -0.0056
      5 C          -5.3646   -0.3573    0.8626 C.ar    1  UNL1        0.0334
      6 N          -5.7417    0.0965   -0.3411 N.ar    1  UNL1       -0.2545
      7 C          -4.8488    0.5261   -1.2636 C.ar    1  UNL1        0.0755
      8 C          -5.3193    1.0094   -2.5555 C.ar    1  UNL1        0.0369
      9 C          -4.4961    1.4620   -3.5585 C.ar    1  UNL1       -0.0314
     10 C          -4.9925    1.9182   -4.7857 C.ar    1  UNL1        0.0418
     11 CL         -3.8462    2.4779   -6.0057 Cl      1  UNL1       -0.0835
     12 C          -6.3498    1.9187   -5.0084 C.ar    1  UNL1       -0.0406
     13 C          -7.1962    1.4716   -4.0231 C.ar    1  UNL1       -0.0244
     14 C          -6.6847    1.0268   -2.8220 C.ar    1  UNL1        0.1326
     15 F          -7.5393    0.5843   -1.8501 F       1  UNL1       -0.2048
     16 C          -3.5393    0.4655   -0.8870 C.ar    1  UNL1       -0.0141
     17 C          -3.0993   -0.0006    0.3552 C.ar    1  UNL1        0.0383
     18 N          -1.6995   -0.0037    0.6686 N.pl3   1  UNL1       -0.3135
     19 C          -0.9763   -1.2137    0.8308 C.ar    1  UNL1        0.0465
     20 C          -1.6427   -2.4228    0.5708 C.ar    1  UNL1       -0.0217
     21 C          -0.9687   -3.5852    0.7134 C.ar    1  UNL1        0.0293
     22 N           0.3054   -3.5899    1.0935 N.ar    1  UNL1       -0.2624
     23 C           0.9905   -2.4407    1.3565 C.ar    1  UNL1        0.0415
     24 C           0.3373   -1.2198    1.2235 C.ar    1  UNL1        0.0758
     25 C           1.0991   -0.0039    1.5435 C.2     1  UNL1        0.2474
     26 O           0.5845    1.1573    1.5537 O.2     1  UNL1       -0.2701
     27 N           2.4829   -0.0186    1.8698 N.am    1  UNL1       -0.3098
     28 C           3.2157    1.2225    2.1771 C.3     1  UNL1        0.0276
     29 C           3.1815    2.0935    0.9576 C.3     1  UNL1        0.0303
     30 N           3.7946    1.4111   -0.1882 N.am    1  UNL1       -0.2796
     31 C           5.1528    1.0247   -0.0916 C.2     1  UNL1        0.4008
     32 O           5.8325    1.2431    0.9155 O.2     1  UNL1       -0.2265
     33 O           5.7646    0.3747   -1.1559 O.3     1  UNL1       -0.4447
     34 C           7.1132   -0.0379   -1.1265 C.3     1  UNL1        0.1068
     35 C           8.0512    1.1333   -0.9273 C.3     1  UNL1       -0.0253
     36 C           7.3592   -1.0958   -0.0729 C.3     1  UNL1       -0.0253
     37 C           7.4340   -0.6624   -2.4649 C.3     1  UNL1       -0.0253
     38 H          -5.0745    0.4467    3.6198 H       1  UNL1        0.0235
     39 H          -3.6633   -0.0118    4.6028 H       1  UNL1        0.0235
     40 H          -3.4402    1.2144    3.2331 H       1  UNL1        0.0235
     41 H          -2.7631   -1.3323    2.8199 H       1  UNL1        0.0344
     42 H          -5.6865   -1.3981    3.4508 H       1  UNL1        0.0235
     43 H          -4.3641   -2.6107    3.7227 H       1  UNL1        0.0235
     44 H          -5.0406   -2.4515    2.0772 H       1  UNL1        0.0235
     45 H          -6.1120   -0.6982    1.5868 H       1  UNL1        0.0833
     46 H          -3.4266    1.4608   -3.3811 H       1  UNL1        0.0639
     47 H          -6.7301    2.2717   -5.9580 H       1  UNL1        0.0633
     48 H          -8.2575    1.4853   -4.2312 H       1  UNL1        0.0647
     49 H          -2.7730    0.7991   -1.5906 H       1  UNL1        0.0658
     50 H          -1.2590    0.9051    0.7560 H       1  UNL1        0.1522
     51 H          -2.6746   -2.3698    0.2656 H       1  UNL1        0.0651
     52 H          -1.4371   -4.5518    0.5245 H       1  UNL1        0.0830
     53 H           2.0181   -2.4840    1.6641 H       1  UNL1        0.0838
     54 H           3.0009   -0.9273    1.8910 H       1  UNL1        0.1491
     55 H           2.5956    1.7356    2.9480 H       1  UNL1        0.0477
     56 H           4.2151    1.0137    2.5461 H       1  UNL1        0.0477
     57 H           3.8096    3.0154    1.1421 H       1  UNL1        0.0478
     58 H           2.1880    2.4540    0.7075 H       1  UNL1        0.0478
     59 H           3.2347    1.2130   -1.0647 H       1  UNL1        0.1521
     60 H           7.6919    2.0124   -1.5297 H       1  UNL1        0.0268
     61 H           8.0967    1.4379    0.1442 H       1  UNL1        0.0268
     62 H           9.0791    0.9071   -1.2454 H       1  UNL1        0.0268
     63 H           6.5633   -1.8490   -0.1429 H       1  UNL1        0.0268
     64 H           8.3131   -1.6086   -0.3588 H       1  UNL1        0.0268
     65 H           7.5092   -0.6770    0.9335 H       1  UNL1        0.0268
     66 H           7.9137    0.1100   -3.0951 H       1  UNL1        0.0268
     67 H           8.1063   -1.5517   -2.3291 H       1  UNL1        0.0268
     68 H           6.4963   -1.0178   -2.9520 H       1  UNL1        0.0268
@<TRIPOS>BOND
     1     1     2    1
     2     2     3    1
     3     2     4    1
     4     4     5   ar
     5     5     6   ar
     6     6     7   ar
     7     7     8    1
     8     8     9   ar
     9     9    10   ar
    10    10    11    1
    11    10    12   ar
    12    12    13   ar
    13    13    14   ar
    14    14    15    1
    15     7    16   ar
    16    16    17   ar
    17    17    18    1
    18    18    19    1
    19    19    20   ar
    20    20    21   ar
    21    21    22   ar
    22    22    23   ar
    23    23    24   ar
    24    24    25    1
    25    25    26    2
    26    25    27   am
    27    27    28    1
    28    28    29    1
    29    29    30    1
    30    30    31   am
    31    31    32    2
    32    31    33    1
    33    33    34    1
    34    34    35    1
    35    34    36    1
    36    34    37    1
    37    17     4   ar
    38    24    19   ar
    39    14     8   ar
    40     1    38    1
    41     1    39    1
    42     1    40    1
    43     2    41    1
    44     3    42    1
    45     3    43    1
    46     3    44    1
    47     5    45    1
    48     9    46    1
    49    12    47    1
    50    13    48    1
    51    16    49    1
    52    18    50    1
    53    20    51    1
    54    21    52    1
    55    23    53    1
    56    27    54    1
    57    28    55    1
    58    28    56    1
    59    29    57    1
    60    29    58    1
    61    30    59    1
    62    35    60    1
    63    35    61    1
    64    35    62    1
    65    36    63    1
    66    36    64    1
    67    36    65    1
    68    37    66    1
    69    37    67    1
    70    37    68    1
