
     RDKit          3D

 45 48  0  0  0  0  0  0  0  0999 V2000
    6.4202   -0.8889   -0.3378 C   0  0  0  0  0  0  0  0  0  0  0  0
    5.0527   -1.2119    0.1859 C   0  0  0  0  0  0  0  0  0  0  0  0
    3.9110   -0.4436    0.1405 C   0  0  0  0  0  0  0  0  0  0  0  0
    2.8987   -1.1733    0.7563 C   0  0  0  0  0  0  0  0  0  0  0  0
    1.4818   -0.7737    0.9576 C   0  0  1  0  0  0  0  0  0  0  0  0
    1.2087    0.3861    0.0112 C   0  0  0  0  0  0  0  0  0  0  0  0
   -0.2309    0.8007    0.0974 C   0  0  1  0  0  0  0  0  0  0  0  0
   -0.5542    1.8536   -0.9058 C   0  0  1  0  0  0  0  0  0  0  0  0
    0.4747    1.9799   -2.0297 C   0  0  0  0  0  0  0  0  0  0  0  0
    0.6120    0.8515   -2.7744 F   0  0  0  0  0  0  0  0  0  0  0  0
   -2.1073    1.3793   -1.8140 S   0  0  0  0  0  0  0  0  0  0  0  0
   -1.8031   -0.4003   -2.1290 C   0  0  0  0  0  0  0  0  0  0  0  0
   -2.0237   -0.9578   -3.4050 N   0  0  0  0  0  0  0  0  0  0  0  0
   -1.3893   -1.0182   -1.0904 N   0  0  0  0  0  0  0  0  0  0  0  0
   -1.1955   -0.3515    0.1947 C   0  0  2  0  0  0  0  0  0  0  0  0
   -2.5239    0.0919    0.7146 C   0  0  0  0  0  0  0  0  0  0  0  0
   -2.8326    1.3572    1.1128 C   0  0  0  0  0  0  0  0  0  0  0  0
   -4.0893    1.6959    1.6566 C   0  0  0  0  0  0  0  0  0  0  0  0
   -5.0619    0.7437    1.8068 C   0  0  0  0  0  0  0  0  0  0  0  0
   -6.2836    1.0580    2.3328 F   0  0  0  0  0  0  0  0  0  0  0  0
   -4.7514   -0.5321    1.4060 C   0  0  0  0  0  0  0  0  0  0  0  0
   -3.5185   -0.8729    0.8695 C   0  0  0  0  0  0  0  0  0  0  0  0
   -3.2863   -2.1554    0.4622 F   0  0  0  0  0  0  0  0  0  0  0  0
   -0.6297   -1.3744    1.1533 C   0  0  0  0  0  0  0  0  0  0  0  0
    0.5985   -1.8288    0.6311 O   0  0  0  0  0  0  0  0  0  0  0  0
    3.4313   -2.3006    1.1350 O   0  0  0  0  0  0  0  0  0  0  0  0
    4.6957   -2.3481    0.8117 N   0  0  0  0  0  0  0  0  0  0  0  0
    7.1855   -0.9558    0.4609 H   0  0  0  0  0  0  0  0  0  0  0  0
    6.4254    0.1596   -0.7001 H   0  0  0  0  0  0  0  0  0  0  0  0
    6.6707   -1.5210   -1.2141 H   0  0  0  0  0  0  0  0  0  0  0  0
    3.8161    0.5318   -0.2871 H   0  0  0  0  0  0  0  0  0  0  0  0
    1.2642   -0.5181    2.0142 H   0  0  0  0  0  0  0  0  0  0  0  0
    1.8239    1.2392    0.4270 H   0  0  0  0  0  0  0  0  0  0  0  0
    1.5691    0.0784   -0.9658 H   0  0  0  0  0  0  0  0  0  0  0  0
   -0.3027    1.3161    1.1124 H   0  0  0  0  0  0  0  0  0  0  0  0
   -0.7087    2.8624   -0.5396 H   0  0  0  0  0  0  0  0  0  0  0  0
    1.4521    2.3627   -1.6280 H   0  0  0  0  0  0  0  0  0  0  0  0
    0.0904    2.7816   -2.6938 H   0  0  0  0  0  0  0  0  0  0  0  0
   -2.5345   -1.8723   -3.4426 H   0  0  0  0  0  0  0  0  0  0  0  0
   -1.6809   -0.4548   -4.2393 H   0  0  0  0  0  0  0  0  0  0  0  0
   -2.0873    2.1373    1.0341 H   0  0  0  0  0  0  0  0  0  0  0  0
   -4.2572    2.7201    1.9474 H   0  0  0  0  0  0  0  0  0  0  0  0
   -5.5048   -1.3009    1.5159 H   0  0  0  0  0  0  0  0  0  0  0  0
   -1.2857   -2.2392    1.2411 H   0  0  0  0  0  0  0  0  0  0  0  0
   -0.4396   -0.8934    2.1602 H   0  0  0  0  0  0  0  0  0  0  0  0
  1  2  1  0
  2  3  1  0
  3  4  2  0
  4  5  1  0
  5  6  1  0
  6  7  1  0
  7  8  1  0
  8  9  1  0
  9 10  1  0
  8 11  1  0
 11 12  1  0
 12 13  1  0
 12 14  2  0
 14 15  1  0
 15 16  1  1
 16 17  2  0
 17 18  1  0
 18 19  2  0
 19 20  1  0
 19 21  1  0
 21 22  2  0
 22 23  1  0
 15 24  1  0
 24 25  1  0
  4 26  1  0
 26 27  1  0
 27  2  2  0
 25  5  1  0
 15  7  1  0
 22 16  1  0
  1 28  1  0
  1 29  1  0
  1 30  1  0
  3 31  1  0
  5 32  1  1
  6 33  1  0
  6 34  1  0
  7 35  1  1
  8 36  1  1
  9 37  1  0
  9 38  1  0
 13 39  1  0
 13 40  1  0
 17 41  1  0
 18 42  1  0
 21 43  1  0
 24 44  1  0
 24 45  1  0
M  END
$$$$
