@<TRIPOS>MOLECULE
*****
 45 48 0 0 0
SMALL
GASTEIGER

@<TRIPOS>ATOM
      1 C           6.4202   -0.8889   -0.3378 C.3     1  UNL1       -0.0191
      2 C           5.0527   -1.2119    0.1859 C.ar    1  UNL1        0.0809
      3 C           3.9110   -0.4436    0.1405 C.ar    1  UNL1        0.0058
      4 C           2.8987   -1.1733    0.7563 C.ar    1  UNL1        0.1660
      5 C           1.4818   -0.7737    0.9576 C.3     1  UNL1        0.1192
      6 C           1.2087    0.3861    0.0112 C.3     1  UNL1       -0.0129
      7 C          -0.2309    0.8007    0.0974 C.3     1  UNL1        0.0081
      8 C          -0.5542    1.8536   -0.9058 C.3     1  UNL1        0.0461
      9 C           0.4747    1.9799   -2.0297 C.3     1  UNL1        0.1027
     10 F           0.6120    0.8515   -2.7744 F       1  UNL1       -0.2479
     11 S          -2.1073    1.3793   -1.8140 S.3     1  UNL1       -0.0848
     12 C          -1.8031   -0.4003   -2.1290 C.2     1  UNL1        0.1479
     13 N          -2.0237   -0.9578   -3.4050 N.pl3   1  UNL1       -0.3380
     14 N          -1.3893   -1.0182   -1.0904 N.2     1  UNL1       -0.2495
     15 C          -1.1955   -0.3515    0.1947 C.3     1  UNL1        0.1188
     16 C          -2.5239    0.0919    0.7146 C.ar    1  UNL1        0.0178
     17 C          -2.8326    1.3572    1.1128 C.ar    1  UNL1       -0.0507
     18 C          -4.0893    1.6959    1.6566 C.ar    1  UNL1       -0.0259
     19 C          -5.0619    0.7437    1.8068 C.ar    1  UNL1        0.1261
     20 F          -6.2836    1.0580    2.3328 F       1  UNL1       -0.2054
     21 C          -4.7514   -0.5321    1.4060 C.ar    1  UNL1        0.0091
     22 C          -3.5185   -0.8729    0.8695 C.ar    1  UNL1        0.1317
     23 F          -3.2863   -2.1554    0.4622 F       1  UNL1       -0.2050
     24 C          -0.6297   -1.3744    1.1533 C.3     1  UNL1        0.0783
     25 O           0.5985   -1.8288    0.6311 O.3     1  UNL1       -0.3661
     26 O           3.4313   -2.3006    1.1350 O.2     1  UNL1       -0.3567
     27 N           4.6957   -2.3481    0.8117 N.ar    1  UNL1       -0.0832
     28 H           7.1855   -0.9558    0.4609 H       1  UNL1        0.0294
     29 H           6.4254    0.1596   -0.7001 H       1  UNL1        0.0294
     30 H           6.6707   -1.5210   -1.2141 H       1  UNL1        0.0294
     31 H           3.8161    0.5318   -0.2871 H       1  UNL1        0.0672
     32 H           1.2642   -0.5181    2.0142 H       1  UNL1        0.0678
     33 H           1.8239    1.2392    0.4270 H       1  UNL1        0.0298
     34 H           1.5691    0.0784   -0.9658 H       1  UNL1        0.0298
     35 H          -0.3027    1.3161    1.1124 H       1  UNL1        0.0341
     36 H          -0.7087    2.8624   -0.5396 H       1  UNL1        0.0445
     37 H           1.4521    2.3627   -1.6280 H       1  UNL1        0.0626
     38 H           0.0904    2.7816   -2.6938 H       1  UNL1        0.0626
     39 H          -2.5345   -1.8723   -3.4426 H       1  UNL1        0.1442
     40 H          -1.6809   -0.4548   -4.2393 H       1  UNL1        0.1442
     41 H          -2.0873    2.1373    1.0341 H       1  UNL1        0.0623
     42 H          -4.2572    2.7201    1.9474 H       1  UNL1        0.0646
     43 H          -5.5048   -1.3009    1.5159 H       1  UNL1        0.0675
     44 H          -1.2857   -2.2392    1.2411 H       1  UNL1        0.0588
     45 H          -0.4396   -0.8934    2.1602 H       1  UNL1        0.0588
@<TRIPOS>BOND
     1     1     2    1
     2     2     3   ar
     3     3     4   ar
     4     4     5    1
     5     5     6    1
     6     6     7    1
     7     7     8    1
     8     8     9    1
     9     9    10    1
    10     8    11    1
    11    11    12    1
    12    12    13    1
    13    12    14    2
    14    14    15    1
    15    15    16    1
    16    16    17   ar
    17    17    18   ar
    18    18    19   ar
    19    19    20    1
    20    19    21   ar
    21    21    22   ar
    22    22    23    1
    23    15    24    1
    24    24    25    1
    25     4    26   ar
    26    26    27   ar
    27    27     2   ar
    28    25     5    1
    29    15     7    1
    30    22    16   ar
    31     1    28    1
    32     1    29    1
    33     1    30    1
    34     3    31    1
    35     5    32    1
    36     6    33    1
    37     6    34    1
    38     7    35    1
    39     8    36    1
    40     9    37    1
    41     9    38    1
    42    13    39    1
    43    13    40    1
    44    17    41    1
    45    18    42    1
    46    21    43    1
    47    24    44    1
    48    24    45    1
