
     RDKit          3D

 47 51  0  0  0  0  0  0  0  0999 V2000
    8.3641   -0.7849    1.5923 C   0  0  0  0  0  0  0  0  0  0  0  0
    6.9585   -0.8008    1.8154 O   0  0  0  0  0  0  0  0  0  0  0  0
    6.1114   -0.6559    0.7285 C   0  0  0  0  0  0  0  0  0  0  0  0
    6.5963   -0.4996   -0.5411 C   0  0  0  0  0  0  0  0  0  0  0  0
    5.7148   -0.3597   -1.5863 C   0  0  0  0  0  0  0  0  0  0  0  0
    4.3539   -0.3776   -1.3501 C   0  0  0  0  0  0  0  0  0  0  0  0
    3.8388   -0.5336   -0.0805 C   0  0  0  0  0  0  0  0  0  0  0  0
    4.7316   -0.6722    0.9533 C   0  0  0  0  0  0  0  0  0  0  0  0
    2.3862   -0.5540    0.1821 C   0  0  0  0  0  0  0  0  0  0  0  0
    1.7393    0.3462   -0.8668 C   0  0  0  0  0  0  0  0  0  0  0  0
    0.2899    0.5200   -0.6268 C   0  0  0  0  0  0  0  0  0  0  0  0
   -0.6523   -0.4439   -0.6299 N   0  0  0  0  0  0  0  0  0  0  0  0
   -1.8511    0.1072   -0.3713 C   0  0  0  0  0  0  0  0  0  0  0  0
   -3.1471   -0.3892   -0.2530 C   0  0  0  0  0  0  0  0  0  0  0  0
   -4.2012    0.4195    0.0223 C   0  0  0  0  0  0  0  0  0  0  0  0
   -5.5612   -0.0908    0.1480 C   0  0  0  0  0  0  0  0  0  0  0  0
   -5.8729   -1.4278   -0.0034 C   0  0  0  0  0  0  0  0  0  0  0  0
   -7.1812   -1.8723    0.1244 C   0  0  0  0  0  0  0  0  0  0  0  0
   -8.1497   -1.0001    0.3965 N   0  0  0  0  0  0  0  0  0  0  0  0
   -7.8670    0.3097    0.5481 C   0  0  0  0  0  0  0  0  0  0  0  0
   -8.9226    1.2501    0.8431 N   0  0  0  0  0  0  0  0  0  0  0  0
   -6.5957    0.7231    0.4212 N   0  0  0  0  0  0  0  0  0  0  0  0
   -4.0156    1.7805    0.1959 C   0  0  0  0  0  0  0  0  0  0  0  0
   -2.7447    2.2928    0.0837 C   0  0  0  0  0  0  0  0  0  0  0  0
   -2.5409    3.6203    0.2496 F   0  0  0  0  0  0  0  0  0  0  0  0
   -1.6808    1.4643   -0.1960 C   0  0  0  0  0  0  0  0  0  0  0  0
   -0.3427    1.6766   -0.3625 N   0  0  0  0  0  0  0  0  0  0  0  0
    2.0386   -0.2576   -2.2060 C   0  0  0  0  0  0  0  0  0  0  0  0
    3.4390   -0.2361   -2.4062 O   0  0  0  0  0  0  0  0  0  0  0  0
    8.5773   -1.6119    0.8702 H   0  0  0  0  0  0  0  0  0  0  0  0
    8.6413    0.2048    1.1336 H   0  0  0  0  0  0  0  0  0  0  0  0
    8.9335   -0.8741    2.5161 H   0  0  0  0  0  0  0  0  0  0  0  0
    7.6831   -0.4865   -0.7201 H   0  0  0  0  0  0  0  0  0  0  0  0
    6.1060   -0.2378   -2.5774 H   0  0  0  0  0  0  0  0  0  0  0  0
    4.3708   -0.7967    1.9631 H   0  0  0  0  0  0  0  0  0  0  0  0
    2.1084   -0.1400    1.1655 H   0  0  0  0  0  0  0  0  0  0  0  0
    1.9666   -1.5829    0.1207 H   0  0  0  0  0  0  0  0  0  0  0  0
    2.2512    1.3262   -0.7977 H   0  0  0  0  0  0  0  0  0  0  0  0
   -3.2452   -1.4511   -0.3954 H   0  0  0  0  0  0  0  0  0  0  0  0
   -5.1310   -2.1528   -0.2201 H   0  0  0  0  0  0  0  0  0  0  0  0
   -7.3939   -2.9425   -0.0021 H   0  0  0  0  0  0  0  0  0  0  0  0
   -8.7705    2.2627    0.6382 H   0  0  0  0  0  0  0  0  0  0  0  0
   -9.8045    0.8904    1.2515 H   0  0  0  0  0  0  0  0  0  0  0  0
   -4.8740    2.4372    0.4198 H   0  0  0  0  0  0  0  0  0  0  0  0
    0.0866    2.6413   -0.2834 H   0  0  0  0  0  0  0  0  0  0  0  0
    1.7250   -1.3249   -2.2653 H   0  0  0  0  0  0  0  0  0  0  0  0
    1.5335    0.2844   -3.0334 H   0  0  0  0  0  0  0  0  0  0  0  0
  1  2  1  0
  2  3  1  0
  3  4  2  0
  4  5  1  0
  5  6  2  0
  6  7  1  0
  7  8  2  0
  7  9  1  0
  9 10  1  0
 10 11  1  0
 11 12  2  0
 12 13  1  0
 13 14  2  0
 14 15  1  0
 15 16  1  0
 16 17  2  0
 17 18  1  0
 18 19  2  0
 19 20  1  0
 20 21  1  0
 20 22  2  0
 15 23  2  0
 23 24  1  0
 24 25  1  0
 24 26  2  0
 26 27  1  0
 10 28  1  0
 28 29  1  0
  8  3  1  0
 27 11  1  0
 29  6  1  0
 26 13  1  0
 22 16  1  0
  1 30  1  0
  1 31  1  0
  1 32  1  0
  4 33  1  0
  5 34  1  0
  8 35  1  0
  9 36  1  0
  9 37  1  0
 10 38  1  0
 14 39  1  0
 17 40  1  0
 18 41  1  0
 21 42  1  0
 21 43  1  0
 23 44  1  0
 27 45  1  0
 28 46  1  0
 28 47  1  0
M  END
$$$$
