@<TRIPOS>MOLECULE
*****
 47 51 0 0 0
SMALL
GASTEIGER

@<TRIPOS>ATOM
      1 C           8.3641   -0.7849    1.5923 C.3     1  UNL1        0.0788
      2 O           6.9585   -0.8008    1.8154 O.3     1  UNL1       -0.4951
      3 C           6.1114   -0.6559    0.7285 C.ar    1  UNL1        0.1206
      4 C           6.5963   -0.4996   -0.5411 C.ar    1  UNL1       -0.0165
      5 C           5.7148   -0.3597   -1.5863 C.ar    1  UNL1       -0.0162
      6 C           4.3539   -0.3776   -1.3501 C.ar    1  UNL1        0.1239
      7 C           3.8388   -0.5336   -0.0805 C.ar    1  UNL1       -0.0015
      8 C           4.7316   -0.6722    0.9533 C.ar    1  UNL1       -0.0133
      9 C           2.3862   -0.5540    0.1821 C.3     1  UNL1       -0.0113
     10 C           1.7393    0.3462   -0.8668 C.3     1  UNL1        0.0552
     11 C           0.2899    0.5200   -0.6268 C.ar    1  UNL1        0.1149
     12 N          -0.6523   -0.4439   -0.6299 N.ar    1  UNL1       -0.2320
     13 C          -1.8511    0.1072   -0.3713 C.ar    1  UNL1        0.0926
     14 C          -3.1471   -0.3892   -0.2530 C.ar    1  UNL1       -0.0249
     15 C          -4.2012    0.4195    0.0223 C.ar    1  UNL1        0.0054
     16 C          -5.5612   -0.0908    0.1480 C.ar    1  UNL1        0.0762
     17 C          -5.8729   -1.4278   -0.0034 C.ar    1  UNL1       -0.0174
     18 C          -7.1812   -1.8723    0.1244 C.ar    1  UNL1        0.0332
     19 N          -8.1497   -1.0001    0.3965 N.ar    1  UNL1       -0.2231
     20 C          -7.8670    0.3097    0.5481 C.ar    1  UNL1        0.2130
     21 N          -8.9226    1.2501    0.8431 N.pl3   1  UNL1       -0.3275
     22 N          -6.5957    0.7231    0.4212 N.ar    1  UNL1       -0.2147
     23 C          -4.0156    1.7805    0.1959 C.ar    1  UNL1       -0.0151
     24 C          -2.7447    2.2928    0.0837 C.ar    1  UNL1        0.1493
     25 F          -2.5409    3.6203    0.2496 F       1  UNL1       -0.2032
     26 C          -1.6808    1.4643   -0.1960 C.ar    1  UNL1        0.1019
     27 N          -0.3427    1.6766   -0.3625 N.ar    1  UNL1       -0.3392
     28 C           2.0386   -0.2576   -2.2060 C.3     1  UNL1        0.0995
     29 O           3.4390   -0.2361   -2.4062 O.3     1  UNL1       -0.4910
     30 H           8.5773   -1.6119    0.8702 H       1  UNL1        0.0660
     31 H           8.6413    0.2048    1.1336 H       1  UNL1        0.0660
     32 H           8.9335   -0.8741    2.5161 H       1  UNL1        0.0660
     33 H           7.6831   -0.4865   -0.7201 H       1  UNL1        0.0655
     34 H           6.1060   -0.2378   -2.5774 H       1  UNL1        0.0655
     35 H           4.3708   -0.7967    1.9631 H       1  UNL1        0.0658
     36 H           2.1084   -0.1400    1.1655 H       1  UNL1        0.0322
     37 H           1.9666   -1.5829    0.1207 H       1  UNL1        0.0322
     38 H           2.2512    1.3262   -0.7977 H       1  UNL1        0.0415
     39 H          -3.2452   -1.4511   -0.3954 H       1  UNL1        0.0646
     40 H          -5.1310   -2.1528   -0.2201 H       1  UNL1        0.0654
     41 H          -7.3939   -2.9425   -0.0021 H       1  UNL1        0.0831
     42 H          -8.7705    2.2627    0.6382 H       1  UNL1        0.1452
     43 H          -9.8045    0.8904    1.2515 H       1  UNL1        0.1452
     44 H          -4.8740    2.4372    0.4198 H       1  UNL1        0.0653
     45 H           0.0866    2.6413   -0.2834 H       1  UNL1        0.1672
     46 H           1.7250   -1.3249   -2.2653 H       1  UNL1        0.0704
     47 H           1.5335    0.2844   -3.0334 H       1  UNL1        0.0704
@<TRIPOS>BOND
     1     1     2    1
     2     2     3    1
     3     3     4   ar
     4     4     5   ar
     5     5     6   ar
     6     6     7   ar
     7     7     8   ar
     8     7     9    1
     9     9    10    1
    10    10    11    1
    11    11    12   ar
    12    12    13   ar
    13    13    14   ar
    14    14    15   ar
    15    15    16    1
    16    16    17   ar
    17    17    18   ar
    18    18    19   ar
    19    19    20   ar
    20    20    21    1
    21    20    22   ar
    22    15    23   ar
    23    23    24   ar
    24    24    25    1
    25    24    26   ar
    26    26    27   ar
    27    10    28    1
    28    28    29    1
    29     8     3   ar
    30    27    11   ar
    31    29     6    1
    32    26    13   ar
    33    22    16   ar
    34     1    30    1
    35     1    31    1
    36     1    32    1
    37     4    33    1
    38     5    34    1
    39     8    35    1
    40     9    36    1
    41     9    37    1
    42    10    38    1
    43    14    39    1
    44    17    40    1
    45    18    41    1
    46    21    42    1
    47    21    43    1
    48    23    44    1
    49    27    45    1
    50    28    46    1
    51    28    47    1
