@<TRIPOS>MOLECULE
*****
 60 62 0 0 0
SMALL
GASTEIGER

@<TRIPOS>ATOM
      1 C          -2.7427   -0.8976   -2.6315 C.3     1  UNL1       -0.0203
      2 C          -2.9881   -0.3355   -1.2233 C.3     1  UNL1        0.1555
      3 C          -3.1682    1.1547   -1.2819 C.3     1  UNL1       -0.0203
      4 O          -4.0530   -1.0113   -0.6194 O.3     1  UNL1       -0.4799
      5 C          -4.5682   -0.7383    0.6273 C.ar    1  UNL1        0.1390
      6 C          -4.1025   -1.2756    1.8065 C.ar    1  UNL1       -0.0159
      7 C          -4.6443   -0.9780    3.0333 C.ar    1  UNL1       -0.0229
      8 C          -5.7118   -0.0962    3.1036 C.ar    1  UNL1        0.1249
      9 F          -6.2579    0.2088    4.3170 F       1  UNL1       -0.2054
     10 C          -6.2040    0.4614    1.9309 C.ar    1  UNL1       -0.0055
     11 C          -5.6462    0.1491    0.7141 C.ar    1  UNL1        0.0960
     12 C          -6.2194    0.7487   -0.4905 C.1     1  UNL1        0.1029
     13 N          -6.6632    1.2003   -1.4417 N.1     1  UNL1       -0.1907
     14 C          -1.6912   -0.6519   -0.4771 C.3     1  UNL1        0.1991
     15 O          -1.4273   -2.0328   -0.5472 O.3     1  UNL1       -0.3473
     16 C          -0.1003   -2.1949   -0.9575 C.3     1  UNL1        0.0566
     17 C           0.7390   -1.4076    0.0869 C.3     1  UNL1        0.0165
     18 C           2.0664   -2.0108    0.2584 C.3     1  UNL1       -0.0271
     19 C           2.8910   -1.3144    1.2156 C.2     1  UNL1       -0.0875
     20 C           4.1049   -0.8534    1.0434 C.2     1  UNL1       -0.0874
     21 C           4.8317   -0.9884   -0.1924 C.3     1  UNL1       -0.0247
     22 C           5.2168    0.3786   -0.7242 C.3     1  UNL1        0.0482
     23 C           6.0553    1.1414    0.1977 C.2     1  UNL1        0.3050
     24 O           5.5311    1.6647    1.2442 O.2     1  UNL1       -0.2510
     25 O           7.4001    1.2982   -0.0557 O.3     1  UNL1       -0.4806
     26 C           0.4101   -0.0209   -0.0095 C.3     1  UNL1        0.0933
     27 C           1.2965    1.0807   -0.2741 C.ar    1  UNL1       -0.0003
     28 C           1.8564    1.8041    0.7578 C.ar    1  UNL1       -0.0532
     29 C           2.6352    2.9354    0.5016 C.ar    1  UNL1       -0.0433
     30 C           2.8606    3.3524   -0.8061 C.ar    1  UNL1        0.0276
     31 N           2.3097    2.6346   -1.7835 N.ar    1  UNL1       -0.2629
     32 C           1.5564    1.5415   -1.5523 C.ar    1  UNL1        0.0332
     33 O          -0.6354    0.0586   -1.0167 O.3     1  UNL1       -0.3393
     34 H          -2.8532   -2.0011   -2.6253 H       1  UNL1        0.0270
     35 H          -3.5328   -0.5272   -3.3169 H       1  UNL1        0.0270
     36 H          -1.7635   -0.5606   -3.0155 H       1  UNL1        0.0270
     37 H          -3.4769    1.5873   -0.3115 H       1  UNL1        0.0270
     38 H          -2.2176    1.6507   -1.6318 H       1  UNL1        0.0270
     39 H          -3.9113    1.4495   -2.0606 H       1  UNL1        0.0270
     40 H          -3.2694   -1.9678    1.7826 H       1  UNL1        0.0655
     41 H          -4.2971   -1.3848    3.9740 H       1  UNL1        0.0647
     42 H          -7.0522    1.1556    2.0115 H       1  UNL1        0.0660
     43 H          -1.8667   -0.3577    0.5747 H       1  UNL1        0.0951
     44 H           0.1880   -3.2518   -0.9796 H       1  UNL1        0.0564
     45 H          -0.0075   -1.7705   -1.9512 H       1  UNL1        0.0564
     46 H           0.1782   -1.8038    1.0535 H       1  UNL1        0.0354
     47 H           1.9057   -3.0554    0.7022 H       1  UNL1        0.0312
     48 H           2.5710   -2.2768   -0.7009 H       1  UNL1        0.0312
     49 H           2.4420   -1.1503    2.2164 H       1  UNL1        0.0569
     50 H           4.5862   -0.3403    1.8985 H       1  UNL1        0.0569
     51 H           4.3579   -1.5023   -1.0314 H       1  UNL1        0.0312
     52 H           5.8041   -1.5292    0.0144 H       1  UNL1        0.0312
     53 H           5.7514    0.2774   -1.7190 H       1  UNL1        0.0380
     54 H           4.3282    0.9845   -0.9687 H       1  UNL1        0.0380
     55 H           8.0472    1.4354    0.7232 H       1  UNL1        0.2951
     56 H          -0.2448    0.2926    0.9095 H       1  UNL1        0.0651
     57 H           1.7341    1.5497    1.8011 H       1  UNL1        0.0622
     58 H           3.0609    3.4851    1.3208 H       1  UNL1        0.0633
     59 H           3.4467    4.2090   -1.0409 H       1  UNL1        0.0829
     60 H           1.1539    1.0255   -2.3830 H       1  UNL1        0.0833
@<TRIPOS>BOND
     1     1     2    1
     2     2     3    1
     3     2     4    1
     4     4     5    1
     5     5     6   ar
     6     6     7   ar
     7     7     8   ar
     8     8     9    1
     9     8    10   ar
    10    10    11   ar
    11    11    12    1
    12    12    13    3
    13     2    14    1
    14    14    15    1
    15    15    16    1
    16    16    17    1
    17    17    18    1
    18    18    19    1
    19    19    20    2
    20    20    21    1
    21    21    22    1
    22    22    23    1
    23    23    24    2
    24    23    25    1
    25    17    26    1
    26    26    27    1
    27    27    28   ar
    28    28    29   ar
    29    29    30   ar
    30    30    31   ar
    31    31    32   ar
    32    26    33    1
    33    11     5   ar
    34    33    14    1
    35    32    27   ar
    36     1    34    1
    37     1    35    1
    38     1    36    1
    39     3    37    1
    40     3    38    1
    41     3    39    1
    42     6    40    1
    43     7    41    1
    44    10    42    1
    45    14    43    1
    46    16    44    1
    47    16    45    1
    48    17    46    1
    49    18    47    1
    50    18    48    1
    51    19    49    1
    52    20    50    1
    53    21    51    1
    54    21    52    1
    55    22    53    1
    56    22    54    1
    57    25    55    1
    58    26    56    1
    59    28    57    1
    60    29    58    1
    61    30    59    1
    62    32    60    1
