
     RDKit          3D

 60 62  0  0  0  0  0  0  0  0999 V2000
   -2.7427   -0.8976   -2.6315 C   0  0  0  0  0  0  0  0  0  0  0  0
   -2.9881   -0.3355   -1.2233 C   0  0  0  0  0  0  0  0  0  0  0  0
   -3.1682    1.1547   -1.2819 C   0  0  0  0  0  0  0  0  0  0  0  0
   -4.0530   -1.0113   -0.6194 O   0  0  0  0  0  0  0  0  0  0  0  0
   -4.5682   -0.7383    0.6273 C   0  0  0  0  0  0  0  0  0  0  0  0
   -4.1025   -1.2756    1.8065 C   0  0  0  0  0  0  0  0  0  0  0  0
   -4.6443   -0.9780    3.0333 C   0  0  0  0  0  0  0  0  0  0  0  0
   -5.7118   -0.0962    3.1036 C   0  0  0  0  0  0  0  0  0  0  0  0
   -6.2579    0.2088    4.3170 F   0  0  0  0  0  0  0  0  0  0  0  0
   -6.2040    0.4614    1.9309 C   0  0  0  0  0  0  0  0  0  0  0  0
   -5.6462    0.1491    0.7141 C   0  0  0  0  0  0  0  0  0  0  0  0
   -6.2194    0.7487   -0.4905 C   0  0  0  0  0  0  0  0  0  0  0  0
   -6.6632    1.2003   -1.4417 N   0  0  0  0  0  0  0  0  0  0  0  0
   -1.6912   -0.6519   -0.4771 C   0  0  0  0  0  0  0  0  0  0  0  0
   -1.4273   -2.0328   -0.5472 O   0  0  0  0  0  0  0  0  0  0  0  0
   -0.1003   -2.1949   -0.9575 C   0  0  0  0  0  0  0  0  0  0  0  0
    0.7390   -1.4076    0.0869 C   0  0  0  0  0  0  0  0  0  0  0  0
    2.0664   -2.0108    0.2584 C   0  0  0  0  0  0  0  0  0  0  0  0
    2.8910   -1.3144    1.2156 C   0  0  0  0  0  0  0  0  0  0  0  0
    4.1049   -0.8534    1.0434 C   0  0  0  0  0  0  0  0  0  0  0  0
    4.8317   -0.9884   -0.1924 C   0  0  0  0  0  0  0  0  0  0  0  0
    5.2168    0.3786   -0.7242 C   0  0  0  0  0  0  0  0  0  0  0  0
    6.0553    1.1414    0.1977 C   0  0  0  0  0  0  0  0  0  0  0  0
    5.5311    1.6647    1.2442 O   0  0  0  0  0  0  0  0  0  0  0  0
    7.4001    1.2982   -0.0557 O   0  0  0  0  0  0  0  0  0  0  0  0
    0.4101   -0.0209   -0.0095 C   0  0  0  0  0  0  0  0  0  0  0  0
    1.2965    1.0807   -0.2741 C   0  0  0  0  0  0  0  0  0  0  0  0
    1.8564    1.8041    0.7578 C   0  0  0  0  0  0  0  0  0  0  0  0
    2.6352    2.9354    0.5016 C   0  0  0  0  0  0  0  0  0  0  0  0
    2.8606    3.3524   -0.8061 C   0  0  0  0  0  0  0  0  0  0  0  0
    2.3097    2.6346   -1.7835 N   0  0  0  0  0  0  0  0  0  0  0  0
    1.5564    1.5415   -1.5523 C   0  0  0  0  0  0  0  0  0  0  0  0
   -0.6354    0.0586   -1.0167 O   0  0  0  0  0  0  0  0  0  0  0  0
   -2.8532   -2.0011   -2.6253 H   0  0  0  0  0  0  0  0  0  0  0  0
   -3.5328   -0.5272   -3.3169 H   0  0  0  0  0  0  0  0  0  0  0  0
   -1.7635   -0.5606   -3.0155 H   0  0  0  0  0  0  0  0  0  0  0  0
   -3.4769    1.5873   -0.3115 H   0  0  0  0  0  0  0  0  0  0  0  0
   -2.2176    1.6507   -1.6318 H   0  0  0  0  0  0  0  0  0  0  0  0
   -3.9113    1.4495   -2.0606 H   0  0  0  0  0  0  0  0  0  0  0  0
   -3.2694   -1.9678    1.7826 H   0  0  0  0  0  0  0  0  0  0  0  0
   -4.2971   -1.3848    3.9740 H   0  0  0  0  0  0  0  0  0  0  0  0
   -7.0522    1.1556    2.0115 H   0  0  0  0  0  0  0  0  0  0  0  0
   -1.8667   -0.3577    0.5747 H   0  0  0  0  0  0  0  0  0  0  0  0
    0.1880   -3.2518   -0.9796 H   0  0  0  0  0  0  0  0  0  0  0  0
   -0.0075   -1.7705   -1.9512 H   0  0  0  0  0  0  0  0  0  0  0  0
    0.1782   -1.8038    1.0535 H   0  0  0  0  0  0  0  0  0  0  0  0
    1.9057   -3.0554    0.7022 H   0  0  0  0  0  0  0  0  0  0  0  0
    2.5710   -2.2768   -0.7009 H   0  0  0  0  0  0  0  0  0  0  0  0
    2.4420   -1.1503    2.2164 H   0  0  0  0  0  0  0  0  0  0  0  0
    4.5862   -0.3403    1.8985 H   0  0  0  0  0  0  0  0  0  0  0  0
    4.3579   -1.5023   -1.0314 H   0  0  0  0  0  0  0  0  0  0  0  0
    5.8041   -1.5292    0.0144 H   0  0  0  0  0  0  0  0  0  0  0  0
    5.7514    0.2774   -1.7190 H   0  0  0  0  0  0  0  0  0  0  0  0
    4.3282    0.9845   -0.9687 H   0  0  0  0  0  0  0  0  0  0  0  0
    8.0472    1.4354    0.7232 H   0  0  0  0  0  0  0  0  0  0  0  0
   -0.2448    0.2926    0.9095 H   0  0  0  0  0  0  0  0  0  0  0  0
    1.7341    1.5497    1.8011 H   0  0  0  0  0  0  0  0  0  0  0  0
    3.0609    3.4851    1.3208 H   0  0  0  0  0  0  0  0  0  0  0  0
    3.4467    4.2090   -1.0409 H   0  0  0  0  0  0  0  0  0  0  0  0
    1.1539    1.0255   -2.3830 H   0  0  0  0  0  0  0  0  0  0  0  0
  1  2  1  0
  2  3  1  0
  2  4  1  0
  4  5  1  0
  5  6  2  0
  6  7  1  0
  7  8  2  0
  8  9  1  0
  8 10  1  0
 10 11  2  0
 11 12  1  0
 12 13  3  0
  2 14  1  0
 14 15  1  0
 15 16  1  0
 16 17  1  0
 17 18  1  0
 18 19  1  0
 19 20  2  0
 20 21  1  0
 21 22  1  0
 22 23  1  0
 23 24  2  0
 23 25  1  0
 17 26  1  0
 26 27  1  0
 27 28  2  0
 28 29  1  0
 29 30  2  0
 30 31  1  0
 31 32  2  0
 26 33  1  0
 11  5  1  0
 33 14  1  0
 32 27  1  0
  1 34  1  0
  1 35  1  0
  1 36  1  0
  3 37  1  0
  3 38  1  0
  3 39  1  0
  6 40  1  0
  7 41  1  0
 10 42  1  0
 14 43  1  0
 16 44  1  0
 16 45  1  0
 17 46  1  0
 18 47  1  0
 18 48  1  0
 19 49  1  0
 20 50  1  0
 21 51  1  0
 21 52  1  0
 22 53  1  0
 22 54  1  0
 25 55  1  0
 26 56  1  0
 28 57  1  0
 29 58  1  0
 30 59  1  0
 32 60  1  0
M  END
$$$$
