
     RDKit          3D

 63 65  0  0  0  0  0  0  0  0999 V2000
   -4.5530    0.4655    2.7031 C   0  0  0  0  0  0  0  0  0  0  0  0
   -4.0156    0.2496    1.4275 O   0  0  0  0  0  0  0  0  0  0  0  0
   -4.6938    0.7556    0.3260 C   0  0  0  0  0  0  0  0  0  0  0  0
   -5.8857    1.4653    0.4741 C   0  0  0  0  0  0  0  0  0  0  0  0
   -6.5682    1.9724   -0.6124 C   0  0  0  0  0  0  0  0  0  0  0  0
   -6.0547    1.7696   -1.8746 C   0  0  0  0  0  0  0  0  0  0  0  0
   -4.8797    1.0710   -2.0334 C   0  0  0  0  0  0  0  0  0  0  0  0
   -4.1844    0.5554   -0.9372 C   0  0  0  0  0  0  0  0  0  0  0  0
   -2.9992   -0.1478   -1.1115 O   0  0  0  0  0  0  0  0  0  0  0  0
   -1.7973    0.5767   -1.1074 C   0  0  0  0  0  0  0  0  0  0  0  0
   -1.8734    1.5905   -2.2574 C   0  0  0  0  0  0  0  0  0  0  0  0
   -1.5165    1.3145    0.1607 C   0  0  0  0  0  0  0  0  0  0  0  0
   -0.6121   -0.3216   -1.4385 C   0  0  0  0  0  0  0  0  0  0  0  0
    0.5178    0.5058   -1.4042 O   0  0  0  0  0  0  0  0  0  0  0  0
    1.5811   -0.2859   -1.8511 C   0  0  0  0  0  0  0  0  0  0  0  0
    1.8254   -1.3178   -0.7752 C   0  0  0  0  0  0  0  0  0  0  0  0
    3.0132   -0.8807    0.1083 C   0  0  0  0  0  0  0  0  0  0  0  0
    4.2320   -0.7363   -0.6667 C   0  0  0  0  0  0  0  0  0  0  0  0
    4.9057    0.3736   -0.7779 C   0  0  0  0  0  0  0  0  0  0  0  0
    4.4926    1.6080   -0.1204 C   0  0  0  0  0  0  0  0  0  0  0  0
    5.6477    2.0025    0.8152 C   0  0  0  0  0  0  0  0  0  0  0  0
    5.2550    3.2518    1.4951 C   0  0  0  0  0  0  0  0  0  0  0  0
    4.1458    3.7715    1.2447 O   0  0  0  0  0  0  0  0  0  0  0  0
    6.0764    3.8854    2.4151 O   0  0  0  0  0  0  0  0  0  0  0  0
    0.6153   -1.5869    0.0737 C   0  0  0  0  0  0  0  0  0  0  0  0
    0.7249   -2.9568    0.6215 C   0  0  0  0  0  0  0  0  0  0  0  0
    0.3520   -4.0998   -0.0536 C   0  0  0  0  0  0  0  0  0  0  0  0
    0.4840   -5.3591    0.5201 C   0  0  0  0  0  0  0  0  0  0  0  0
    0.9997   -5.4768    1.7952 C   0  0  0  0  0  0  0  0  0  0  0  0
    1.3595   -4.3539    2.4424 N   0  0  0  0  0  0  0  0  0  0  0  0
    1.2338   -3.1221    1.8896 C   0  0  0  0  0  0  0  0  0  0  0  0
   -0.5830   -1.3495   -0.5582 O   0  0  0  0  0  0  0  0  0  0  0  0
   -4.5488    1.5449    2.9979 H   0  0  0  0  0  0  0  0  0  0  0  0
   -5.6315    0.1421    2.7553 H   0  0  0  0  0  0  0  0  0  0  0  0
   -4.0294   -0.1267    3.4856 H   0  0  0  0  0  0  0  0  0  0  0  0
   -6.2676    1.6107    1.4773 H   0  0  0  0  0  0  0  0  0  0  0  0
   -7.4930    2.5244   -0.5119 H   0  0  0  0  0  0  0  0  0  0  0  0
   -6.6081    2.1780   -2.7239 H   0  0  0  0  0  0  0  0  0  0  0  0
   -4.4583    0.8996   -3.0114 H   0  0  0  0  0  0  0  0  0  0  0  0
   -0.9036    2.1539   -2.2395 H   0  0  0  0  0  0  0  0  0  0  0  0
   -2.6839    2.3113   -2.1183 H   0  0  0  0  0  0  0  0  0  0  0  0
   -1.9151    1.0429   -3.2143 H   0  0  0  0  0  0  0  0  0  0  0  0
   -0.5387    1.8535   -0.0043 H   0  0  0  0  0  0  0  0  0  0  0  0
   -2.2520    2.0841    0.3932 H   0  0  0  0  0  0  0  0  0  0  0  0
   -1.3271    0.5912    0.9782 H   0  0  0  0  0  0  0  0  0  0  0  0
   -0.7423   -0.6140   -2.5011 H   0  0  0  0  0  0  0  0  0  0  0  0
    1.3416   -0.7840   -2.8119 H   0  0  0  0  0  0  0  0  0  0  0  0
    2.5207    0.3132   -1.9382 H   0  0  0  0  0  0  0  0  0  0  0  0
    2.1639   -2.2425   -1.2872 H   0  0  0  0  0  0  0  0  0  0  0  0
    2.6542   -0.0535    0.6971 H   0  0  0  0  0  0  0  0  0  0  0  0
    3.1726   -1.7835    0.7866 H   0  0  0  0  0  0  0  0  0  0  0  0
    4.6173   -1.6316   -1.2010 H   0  0  0  0  0  0  0  0  0  0  0  0
    5.8324    0.4439   -1.3791 H   0  0  0  0  0  0  0  0  0  0  0  0
    4.4862    2.4346   -0.8807 H   0  0  0  0  0  0  0  0  0  0  0  0
    3.6152    1.6003    0.5052 H   0  0  0  0  0  0  0  0  0  0  0  0
    5.6681    1.2022    1.5991 H   0  0  0  0  0  0  0  0  0  0  0  0
    6.5944    2.0809    0.2599 H   0  0  0  0  0  0  0  0  0  0  0  0
    6.0196    4.8959    2.4637 H   0  0  0  0  0  0  0  0  0  0  0  0
    0.6585   -0.8876    0.9337 H   0  0  0  0  0  0  0  0  0  0  0  0
   -0.0439   -3.9984   -1.0346 H   0  0  0  0  0  0  0  0  0  0  0  0
    0.1859   -6.2510   -0.0239 H   0  0  0  0  0  0  0  0  0  0  0  0
    1.1142   -6.4638    2.2714 H   0  0  0  0  0  0  0  0  0  0  0  0
    1.5533   -2.2611    2.4920 H   0  0  0  0  0  0  0  0  0  0  0  0
  1  2  1  0
  2  3  1  0
  3  4  2  0
  4  5  1  0
  5  6  2  0
  6  7  1  0
  7  8  2  0
  8  9  1  0
  9 10  1  0
 10 11  1  0
 10 12  1  0
 10 13  1  0
 13 14  1  0
 14 15  1  0
 15 16  1  0
 16 17  1  0
 17 18  1  0
 18 19  2  0
 19 20  1  0
 20 21  1  0
 21 22  1  0
 22 23  2  0
 22 24  1  0
 16 25  1  0
 25 26  1  0
 26 27  2  0
 27 28  1  0
 28 29  2  0
 29 30  1  0
 30 31  2  0
 25 32  1  0
  8  3  1  0
 32 13  1  0
 31 26  1  0
  1 33  1  0
  1 34  1  0
  1 35  1  0
  4 36  1  0
  5 37  1  0
  6 38  1  0
  7 39  1  0
 11 40  1  0
 11 41  1  0
 11 42  1  0
 12 43  1  0
 12 44  1  0
 12 45  1  0
 13 46  1  0
 15 47  1  0
 15 48  1  0
 16 49  1  0
 17 50  1  0
 17 51  1  0
 18 52  1  0
 19 53  1  0
 20 54  1  0
 20 55  1  0
 21 56  1  0
 21 57  1  0
 24 58  1  0
 25 59  1  0
 27 60  1  0
 28 61  1  0
 29 62  1  0
 31 63  1  0
M  END
$$$$
