@<TRIPOS>MOLECULE
*****
 63 65 0 0 0
SMALL
GASTEIGER

@<TRIPOS>ATOM
      1 C          -4.5530    0.4655    2.7031 C.3     1  UNL1        0.0790
      2 O          -4.0156    0.2496    1.4275 O.3     1  UNL1       -0.4915
      3 C          -4.6938    0.7556    0.3260 C.ar    1  UNL1        0.1615
      4 C          -5.8857    1.4653    0.4741 C.ar    1  UNL1       -0.0163
      5 C          -6.5682    1.9724   -0.6124 C.ar    1  UNL1       -0.0581
      6 C          -6.0547    1.7696   -1.8746 C.ar    1  UNL1       -0.0581
      7 C          -4.8797    1.0710   -2.0334 C.ar    1  UNL1       -0.0163
      8 C          -4.1844    0.5554   -0.9372 C.ar    1  UNL1        0.1629
      9 O          -2.9992   -0.1478   -1.1115 O.3     1  UNL1       -0.4776
     10 C          -1.7973    0.5767   -1.1074 C.3     1  UNL1        0.1556
     11 C          -1.8734    1.5905   -2.2574 C.3     1  UNL1       -0.0203
     12 C          -1.5165    1.3145    0.1607 C.3     1  UNL1       -0.0203
     13 C          -0.6121   -0.3216   -1.4385 C.3     1  UNL1        0.1991
     14 O           0.5178    0.5058   -1.4042 O.3     1  UNL1       -0.3473
     15 C           1.5811   -0.2859   -1.8511 C.3     1  UNL1        0.0566
     16 C           1.8254   -1.3178   -0.7752 C.3     1  UNL1        0.0165
     17 C           3.0132   -0.8807    0.1083 C.3     1  UNL1       -0.0271
     18 C           4.2320   -0.7363   -0.6667 C.2     1  UNL1       -0.0875
     19 C           4.9057    0.3736   -0.7779 C.2     1  UNL1       -0.0874
     20 C           4.4926    1.6080   -0.1204 C.3     1  UNL1       -0.0247
     21 C           5.6477    2.0025    0.8152 C.3     1  UNL1        0.0482
     22 C           5.2550    3.2518    1.4951 C.2     1  UNL1        0.3050
     23 O           4.1458    3.7715    1.2447 O.2     1  UNL1       -0.2510
     24 O           6.0764    3.8854    2.4151 O.3     1  UNL1       -0.4806
     25 C           0.6153   -1.5869    0.0737 C.3     1  UNL1        0.0933
     26 C           0.7249   -2.9568    0.6215 C.ar    1  UNL1       -0.0003
     27 C           0.3520   -4.0998   -0.0536 C.ar    1  UNL1       -0.0532
     28 C           0.4840   -5.3591    0.5201 C.ar    1  UNL1       -0.0433
     29 C           0.9997   -5.4768    1.7952 C.ar    1  UNL1        0.0276
     30 N           1.3595   -4.3539    2.4424 N.ar    1  UNL1       -0.2629
     31 C           1.2338   -3.1221    1.8896 C.ar    1  UNL1        0.0332
     32 O          -0.5830   -1.3495   -0.5582 O.3     1  UNL1       -0.3393
     33 H          -4.5488    1.5449    2.9979 H       1  UNL1        0.0660
     34 H          -5.6315    0.1421    2.7553 H       1  UNL1        0.0660
     35 H          -4.0294   -0.1267    3.4856 H       1  UNL1        0.0660
     36 H          -6.2676    1.6107    1.4773 H       1  UNL1        0.0655
     37 H          -7.4930    2.5244   -0.5119 H       1  UNL1        0.0619
     38 H          -6.6081    2.1780   -2.7239 H       1  UNL1        0.0619
     39 H          -4.4583    0.8996   -3.0114 H       1  UNL1        0.0655
     40 H          -0.9036    2.1539   -2.2395 H       1  UNL1        0.0270
     41 H          -2.6839    2.3113   -2.1183 H       1  UNL1        0.0270
     42 H          -1.9151    1.0429   -3.2143 H       1  UNL1        0.0270
     43 H          -0.5387    1.8535   -0.0043 H       1  UNL1        0.0270
     44 H          -2.2520    2.0841    0.3932 H       1  UNL1        0.0270
     45 H          -1.3271    0.5912    0.9782 H       1  UNL1        0.0270
     46 H          -0.7423   -0.6140   -2.5011 H       1  UNL1        0.0951
     47 H           1.3416   -0.7840   -2.8119 H       1  UNL1        0.0564
     48 H           2.5207    0.3132   -1.9382 H       1  UNL1        0.0564
     49 H           2.1639   -2.2425   -1.2872 H       1  UNL1        0.0354
     50 H           2.6542   -0.0535    0.6971 H       1  UNL1        0.0312
     51 H           3.1726   -1.7835    0.7866 H       1  UNL1        0.0312
     52 H           4.6173   -1.6316   -1.2010 H       1  UNL1        0.0569
     53 H           5.8324    0.4439   -1.3791 H       1  UNL1        0.0569
     54 H           4.4862    2.4346   -0.8807 H       1  UNL1        0.0312
     55 H           3.6152    1.6003    0.5052 H       1  UNL1        0.0312
     56 H           5.6681    1.2022    1.5991 H       1  UNL1        0.0380
     57 H           6.5944    2.0809    0.2599 H       1  UNL1        0.0380
     58 H           6.0196    4.8959    2.4637 H       1  UNL1        0.2951
     59 H           0.6585   -0.8876    0.9337 H       1  UNL1        0.0651
     60 H          -0.0439   -3.9984   -1.0346 H       1  UNL1        0.0622
     61 H           0.1859   -6.2510   -0.0239 H       1  UNL1        0.0633
     62 H           1.1142   -6.4638    2.2714 H       1  UNL1        0.0829
     63 H           1.5533   -2.2611    2.4920 H       1  UNL1        0.0833
@<TRIPOS>BOND
     1     1     2    1
     2     2     3    1
     3     3     4   ar
     4     4     5   ar
     5     5     6   ar
     6     6     7   ar
     7     7     8   ar
     8     8     9    1
     9     9    10    1
    10    10    11    1
    11    10    12    1
    12    10    13    1
    13    13    14    1
    14    14    15    1
    15    15    16    1
    16    16    17    1
    17    17    18    1
    18    18    19    2
    19    19    20    1
    20    20    21    1
    21    21    22    1
    22    22    23    2
    23    22    24    1
    24    16    25    1
    25    25    26    1
    26    26    27   ar
    27    27    28   ar
    28    28    29   ar
    29    29    30   ar
    30    30    31   ar
    31    25    32    1
    32     8     3   ar
    33    32    13    1
    34    31    26   ar
    35     1    33    1
    36     1    34    1
    37     1    35    1
    38     4    36    1
    39     5    37    1
    40     6    38    1
    41     7    39    1
    42    11    40    1
    43    11    41    1
    44    11    42    1
    45    12    43    1
    46    12    44    1
    47    12    45    1
    48    13    46    1
    49    15    47    1
    50    15    48    1
    51    16    49    1
    52    17    50    1
    53    17    51    1
    54    18    52    1
    55    19    53    1
    56    20    54    1
    57    20    55    1
    58    21    56    1
    59    21    57    1
    60    24    58    1
    61    25    59    1
    62    27    60    1
    63    28    61    1
    64    29    62    1
    65    31    63    1
