@<TRIPOS>MOLECULE
*****
 42 45 0 0 0
SMALL
GASTEIGER

@<TRIPOS>ATOM
      1 C           4.5822    1.4593   -0.2085 C.3     1  UNL1       -0.0125
      2 N           3.7233    0.3904    0.0379 N.3     1  UNL1       -0.2982
      3 C           3.4228   -0.5162   -0.9878 C.3     1  UNL1        0.0348
      4 C           1.9028   -0.5443   -1.1239 C.3     1  UNL1        0.0933
      5 N           1.2464   -0.2539    0.1151 N.pl3   1  UNL1       -0.2176
      6 C           1.8450   -0.0167    1.3935 C.3     1  UNL1        0.0933
      7 C           3.3655    0.0093    1.3320 C.3     1  UNL1        0.0348
      8 C          -0.1754   -0.1931    0.0737 C.2     1  UNL1        0.3231
      9 N          -0.5474    1.0252   -0.0681 N.2     1  UNL1       -0.0395
     10 C          -1.8401    1.6209   -0.1646 C.ar    1  UNL1        0.1988
     11 C          -1.8180    3.0076   -0.2416 C.ar    1  UNL1        0.0093
     12 C          -2.9889    3.7280   -0.3391 C.ar    1  UNL1        0.0452
     13 CL         -2.7943    5.4632   -0.4274 Cl      1  UNL1       -0.0834
     14 C          -4.1764    3.0385   -0.3581 C.ar    1  UNL1       -0.0414
     15 C          -4.2138    1.6719   -0.2830 C.ar    1  UNL1       -0.0349
     16 C          -3.0476    0.9398   -0.1850 C.ar    1  UNL1        0.0829
     17 N          -3.3311   -0.4607   -0.1199 N.pl3   1  UNL1       -0.3104
     18 C          -2.3754   -1.4811    0.0962 C.ar    1  UNL1        0.0464
     19 C          -2.9729   -2.7177    0.2291 C.ar    1  UNL1       -0.0397
     20 C          -2.1682   -3.8379    0.4484 C.ar    1  UNL1       -0.0600
     21 C          -0.7953   -3.6974    0.5293 C.ar    1  UNL1       -0.0608
     22 C          -0.1699   -2.4627    0.3987 C.ar    1  UNL1       -0.0451
     23 C          -0.9972   -1.3776    0.1827 C.ar    1  UNL1        0.0867
     24 H           4.7079    2.0517    0.7148 H       1  UNL1        0.0391
     25 H           5.5628    1.2229   -0.6971 H       1  UNL1        0.0391
     26 H           4.0727    2.1649   -0.9286 H       1  UNL1        0.0391
     27 H           3.9176   -0.3586   -1.9384 H       1  UNL1        0.0463
     28 H           3.6908   -1.5697   -0.6801 H       1  UNL1        0.0463
     29 H           1.6798    0.3204   -1.8138 H       1  UNL1        0.0739
     30 H           1.5574   -1.4341   -1.6572 H       1  UNL1        0.0739
     31 H           1.4909   -0.6725    2.2074 H       1  UNL1        0.0739
     32 H           1.5460    1.0209    1.7066 H       1  UNL1        0.0739
     33 H           3.8317    0.6251    2.1020 H       1  UNL1        0.0463
     34 H           3.6846   -1.0547    1.5184 H       1  UNL1        0.0463
     35 H          -0.8316    3.4195   -0.2168 H       1  UNL1        0.0676
     36 H          -5.0637    3.6549   -0.4360 H       1  UNL1        0.0633
     37 H          -5.1773    1.1818   -0.3023 H       1  UNL1        0.0638
     38 H          -4.3267   -0.7791   -0.2403 H       1  UNL1        0.1523
     39 H          -4.0467   -2.8215    0.1651 H       1  UNL1        0.0636
     40 H          -2.6342   -4.8128    0.5536 H       1  UNL1        0.0618
     41 H          -0.2322   -4.5976    0.6994 H       1  UNL1        0.0618
     42 H           0.8942   -2.3562    0.4617 H       1  UNL1        0.0627
@<TRIPOS>BOND
     1     1     2    1
     2     2     3    1
     3     3     4    1
     4     4     5    1
     5     5     6    1
     6     6     7    1
     7     5     8    1
     8     8     9    2
     9     9    10    1
    10    10    11   ar
    11    11    12   ar
    12    12    13    1
    13    12    14   ar
    14    14    15   ar
    15    15    16   ar
    16    16    17    1
    17    17    18    1
    18    18    19   ar
    19    19    20   ar
    20    20    21   ar
    21    21    22   ar
    22    22    23   ar
    23     7     2    1
    24    23     8    1
    25    16    10   ar
    26    23    18   ar
    27     1    24    1
    28     1    25    1
    29     1    26    1
    30     3    27    1
    31     3    28    1
    32     4    29    1
    33     4    30    1
    34     6    31    1
    35     6    32    1
    36     7    33    1
    37     7    34    1
    38    11    35    1
    39    14    36    1
    40    15    37    1
    41    17    38    1
    42    19    39    1
    43    20    40    1
    44    21    41    1
    45    22    42    1
