
     RDKit          3D

 40 42  0  0  0  0  0  0  0  0999 V2000
    1.4542   -0.6652   -1.4556 C   0  0  0  0  0  0  0  0  0  0  0  0
    1.6326    0.1434   -0.1564 C   0  0  0  0  0  0  0  0  0  0  0  0
    0.5594   -0.2473    0.8434 C   0  0  0  0  0  0  0  0  0  0  0  0
   -0.7722   -0.0094    0.4052 N   0  0  0  0  0  0  0  0  0  0  0  0
   -1.2757    1.3129    0.3965 C   0  0  0  0  0  0  0  0  0  0  0  0
   -0.5016    2.3485    0.8698 C   0  0  0  0  0  0  0  0  0  0  0  0
   -0.8965    3.6700    0.9234 C   0  0  0  0  0  0  0  0  0  0  0  0
   -2.1709    4.0211    0.4728 C   0  0  0  0  0  0  0  0  0  0  0  0
   -2.9807    3.0143   -0.0092 C   0  0  0  0  0  0  0  0  0  0  0  0
   -2.5106    1.7329   -0.0267 C   0  0  0  0  0  0  0  0  0  0  0  0
   -3.6623    0.5433   -0.6602 S   0  0  0  0  0  0  0  0  0  0  0  0
   -2.8447   -1.0386   -0.5465 C   0  0  0  0  0  0  0  0  0  0  0  0
   -3.5938   -2.0931   -0.9839 C   0  0  0  0  0  0  0  0  0  0  0  0
   -3.0507   -3.3515   -0.9474 C   0  0  0  0  0  0  0  0  0  0  0  0
   -1.7697   -3.5028   -0.4706 C   0  0  0  0  0  0  0  0  0  0  0  0
   -1.0870   -2.3820   -0.0497 C   0  0  0  0  0  0  0  0  0  0  0  0
   -1.5639   -1.0893   -0.0553 C   0  0  0  0  0  0  0  0  0  0  0  0
    2.9499   -0.0220    0.2869 N   0  0  0  0  0  0  0  0  0  0  0  0
    3.4341   -1.3094    0.5991 C   0  0  0  0  0  0  0  0  0  0  0  0
    3.9175    0.8969   -0.2407 C   0  0  0  0  0  0  0  0  0  0  0  0
    1.4583   -1.7413   -1.2866 H   0  0  0  0  0  0  0  0  0  0  0  0
    2.3172   -0.4479   -2.1185 H   0  0  0  0  0  0  0  0  0  0  0  0
    0.5611   -0.2946   -2.0315 H   0  0  0  0  0  0  0  0  0  0  0  0
    1.4896    1.1890   -0.4781 H   0  0  0  0  0  0  0  0  0  0  0  0
    0.6931    0.3851    1.7792 H   0  0  0  0  0  0  0  0  0  0  0  0
    0.8242   -1.2409    1.1752 H   0  0  0  0  0  0  0  0  0  0  0  0
    0.4777    2.2675    1.2615 H   0  0  0  0  0  0  0  0  0  0  0  0
   -0.3225    4.5102    1.2854 H   0  0  0  0  0  0  0  0  0  0  0  0
   -2.5245    5.0392    0.4944 H   0  0  0  0  0  0  0  0  0  0  0  0
   -3.9629    3.3079   -0.3526 H   0  0  0  0  0  0  0  0  0  0  0  0
   -4.6014   -2.0004   -1.3627 H   0  0  0  0  0  0  0  0  0  0  0  0
   -3.6239   -4.1989   -1.2876 H   0  0  0  0  0  0  0  0  0  0  0  0
   -1.3913   -4.5129   -0.4638 H   0  0  0  0  0  0  0  0  0  0  0  0
   -0.0993   -2.6540    0.2916 H   0  0  0  0  0  0  0  0  0  0  0  0
    2.9661   -2.1106    0.0346 H   0  0  0  0  0  0  0  0  0  0  0  0
    3.4879   -1.4803    1.6973 H   0  0  0  0  0  0  0  0  0  0  0  0
    4.5179   -1.3253    0.2837 H   0  0  0  0  0  0  0  0  0  0  0  0
    3.6870    1.9454    0.0627 H   0  0  0  0  0  0  0  0  0  0  0  0
    4.9198    0.5842    0.1127 H   0  0  0  0  0  0  0  0  0  0  0  0
    3.8585    0.8058   -1.3552 H   0  0  0  0  0  0  0  0  0  0  0  0
  1  2  1  0
  2  3  1  0
  3  4  1  0
  4  5  1  0
  5  6  2  0
  6  7  1  0
  7  8  2  0
  8  9  1  0
  9 10  2  0
 10 11  1  0
 11 12  1  0
 12 13  2  0
 13 14  1  0
 14 15  2  0
 15 16  1  0
 16 17  2  0
  2 18  1  0
 18 19  1  0
 18 20  1  0
 17  4  1  0
 10  5  1  0
 17 12  1  0
  1 21  1  0
  1 22  1  0
  1 23  1  0
  2 24  1  0
  3 25  1  0
  3 26  1  0
  6 27  1  0
  7 28  1  0
  8 29  1  0
  9 30  1  0
 13 31  1  0
 14 32  1  0
 15 33  1  0
 16 34  1  0
 19 35  1  0
 19 36  1  0
 19 37  1  0
 20 38  1  0
 20 39  1  0
 20 40  1  0
M  END
$$$$
