@<TRIPOS>MOLECULE
*****
 56 60 0 0 0
SMALL
GASTEIGER

@<TRIPOS>ATOM
      1 C          -3.0598   -3.3508    1.1150 C.3     1  UNL1        0.0053
      2 N          -2.2240   -2.3610    0.3974 N.am    1  UNL1       -0.2795
      3 C          -2.1180   -1.0209    0.9219 C.3     1  UNL1        0.0412
      4 C          -3.3331   -0.2122    0.5695 C.ar    1  UNL1       -0.0295
      5 C          -3.4417    0.5554   -0.5525 C.ar    1  UNL1       -0.0565
      6 C          -4.6203    1.2761   -0.8044 C.ar    1  UNL1       -0.0537
      7 C          -5.7033    1.2488    0.0448 C.ar    1  UNL1       -0.0179
      8 C          -6.8589    1.9661   -0.2188 C.ar    1  UNL1       -0.0540
      9 C          -7.9358    1.9238    0.6495 C.ar    1  UNL1       -0.0612
     10 C          -7.8117    1.1359    1.7920 C.ar    1  UNL1       -0.0612
     11 C          -6.6642    0.4244    2.0528 C.ar    1  UNL1       -0.0540
     12 C          -5.5945    0.4723    1.1809 C.ar    1  UNL1       -0.0176
     13 C          -4.4388   -0.2366    1.4313 C.ar    1  UNL1       -0.0493
     14 C          -1.6123   -2.7742   -0.7880 C.2     1  UNL1        0.3558
     15 O          -1.8395   -3.9792   -1.2063 O.2     1  UNL1       -0.2459
     16 N          -0.7541   -1.9944   -1.5857 N.ar    1  UNL1       -0.0763
     17 N          -0.1756   -2.3801   -2.7492 N.ar    1  UNL1       -0.0369
     18 N           0.5846   -1.4159   -3.2236 N.ar    1  UNL1       -0.1122
     19 C           0.5122   -0.3723   -2.3643 C.ar    1  UNL1        0.1794
     20 C           1.1723    0.9486   -2.4289 C.3     1  UNL1        0.0361
     21 C           2.4657    0.8475   -1.7363 C.ar    1  UNL1       -0.0399
     22 C           2.5439    1.1173   -0.3943 C.ar    1  UNL1       -0.0576
     23 C           3.7707    1.0246    0.2795 C.ar    1  UNL1       -0.0538
     24 C           4.8811    0.6519   -0.4706 C.ar    1  UNL1       -0.0179
     25 C           6.1574    0.5591    0.2496 C.ar    1  UNL1       -0.0179
     26 C           6.2020    0.1857    1.5681 C.ar    1  UNL1       -0.0540
     27 C           7.4305    0.1160    2.1917 C.ar    1  UNL1       -0.0612
     28 C           8.5795    0.4183    1.4910 C.ar    1  UNL1       -0.0617
     29 C           8.5363    0.7948    0.1620 C.ar    1  UNL1       -0.0612
     30 C           7.3083    0.8641   -0.4605 C.ar    1  UNL1       -0.0540
     31 C           4.8224    0.3779   -1.8144 C.ar    1  UNL1       -0.0538
     32 C           3.5889    0.4833   -2.4345 C.ar    1  UNL1       -0.0576
     33 N          -0.3066   -0.7772   -1.3993 N.ar    1  UNL1       -0.1262
     34 H          -3.2355   -3.0025    2.1463 H       1  UNL1        0.0429
     35 H          -4.0329   -3.4666    0.5974 H       1  UNL1        0.0429
     36 H          -2.5493   -4.3341    1.0653 H       1  UNL1        0.0429
     37 H          -2.1547   -1.1132    2.0537 H       1  UNL1        0.0514
     38 H          -1.1964   -0.4973    0.6957 H       1  UNL1        0.0514
     39 H          -2.6177    0.6085   -1.2448 H       1  UNL1        0.0621
     40 H          -4.6969    1.8789   -1.6921 H       1  UNL1        0.0624
     41 H          -6.8883    2.5647   -1.1353 H       1  UNL1        0.0624
     42 H          -8.8378    2.4877    0.4374 H       1  UNL1        0.0618
     43 H          -8.6500    1.0835    2.4985 H       1  UNL1        0.0618
     44 H          -6.5878   -0.1799    2.9432 H       1  UNL1        0.0624
     45 H          -4.3333   -0.8564    2.3246 H       1  UNL1        0.0627
     46 H           0.5471    1.7112   -1.8814 H       1  UNL1        0.0393
     47 H           1.3079    1.2616   -3.4977 H       1  UNL1        0.0393
     48 H           1.6984    1.4097    0.2169 H       1  UNL1        0.0621
     49 H           3.8173    1.2388    1.3310 H       1  UNL1        0.0624
     50 H           5.2919   -0.0437    2.0886 H       1  UNL1        0.0624
     51 H           7.4945   -0.1797    3.2444 H       1  UNL1        0.0618
     52 H           9.5479    0.3668    1.9704 H       1  UNL1        0.0618
     53 H           9.4660    1.0209   -0.3405 H       1  UNL1        0.0618
     54 H           7.2846    1.1584   -1.4962 H       1  UNL1        0.0624
     55 H           5.7335    0.0954   -2.3200 H       1  UNL1        0.0624
     56 H           3.5279    0.2706   -3.4916 H       1  UNL1        0.0621
@<TRIPOS>BOND
     1     1     2    1
     2     2     3    1
     3     3     4    1
     4     4     5   ar
     5     5     6   ar
     6     6     7   ar
     7     7     8   ar
     8     8     9   ar
     9     9    10   ar
    10    10    11   ar
    11    11    12   ar
    12    12    13   ar
    13     2    14   am
    14    14    15    2
    15    14    16   am
    16    16    17   ar
    17    17    18   ar
    18    18    19   ar
    19    19    20    1
    20    20    21    1
    21    21    22   ar
    22    22    23   ar
    23    23    24   ar
    24    24    25    1
    25    25    26   ar
    26    26    27   ar
    27    27    28   ar
    28    28    29   ar
    29    29    30   ar
    30    24    31   ar
    31    31    32   ar
    32    19    33   ar
    33    13     4   ar
    34    33    16   ar
    35    12     7   ar
    36    32    21   ar
    37    30    25   ar
    38     1    34    1
    39     1    35    1
    40     1    36    1
    41     3    37    1
    42     3    38    1
    43     5    39    1
    44     6    40    1
    45     8    41    1
    46     9    42    1
    47    10    43    1
    48    11    44    1
    49    13    45    1
    50    20    46    1
    51    20    47    1
    52    22    48    1
    53    23    49    1
    54    26    50    1
    55    27    51    1
    56    28    52    1
    57    29    53    1
    58    30    54    1
    59    31    55    1
    60    32    56    1
