
     RDKit          3D

 50 51  0  0  0  0  0  0  0  0999 V2000
    4.0586   -0.2958   -0.5501 C   0  0  2  0  0  0  0  0  0  0  0  0
    4.0074    0.4156   -1.8525 C   0  0  0  0  0  0  0  0  0  0  0  0
    3.4701    1.7882   -1.8033 C   0  0  0  0  0  0  0  0  0  0  0  0
    4.1709    2.7655   -0.9823 C   0  0  0  0  0  0  0  0  0  0  0  0
    3.4656    3.9738   -1.1311 O   0  0  0  0  0  0  0  0  0  0  0  0
    5.1388    2.9774   -0.2020 O   0  0  0  0  0  0  0  0  0  0  0  0
    2.7400   -0.3930    0.0808 N   0  0  0  0  0  0  0  0  0  0  0  0
    2.0008   -1.6035    0.2321 C   0  0  0  0  0  0  0  0  0  0  0  0
    2.4914   -2.6811   -0.2029 O   0  0  0  0  0  0  0  0  0  0  0  0
    0.6965   -1.6012    0.8783 C   0  0  0  0  0  0  0  0  0  0  0  0
    0.0077   -2.8225    0.9034 C   0  0  0  0  0  0  0  0  0  0  0  0
   -1.2162   -2.7790    1.5397 C   0  0  0  0  0  0  0  0  0  0  0  0
   -1.8077   -1.6683    2.1388 C   0  0  0  0  0  0  0  0  0  0  0  0
   -3.0425   -1.8897    2.7438 N   0  0  0  0  0  0  0  0  0  0  0  0
   -4.1816   -1.8797    1.9055 C   0  0  0  0  0  0  0  0  0  0  0  0
   -5.3516   -2.2905    1.4135 O   0  0  0  0  0  0  0  0  0  0  0  0
   -4.6232   -1.1622    0.9590 N   0  0  0  0  0  0  0  0  0  0  0  0
   -3.9528   -0.0391    0.4731 C   0  0  0  0  0  0  0  0  0  0  0  0
   -3.4672   -0.0394   -0.8327 C   0  0  0  0  0  0  0  0  0  0  0  0
   -3.6339   -1.1849   -1.6940 N   0  0  0  0  0  0  0  0  0  0  0  0
   -2.7982    1.0578   -1.3918 C   0  0  0  0  0  0  0  0  0  0  0  0
   -2.3423    0.9795   -2.7104 O   0  0  0  0  0  0  0  0  0  0  0  0
   -2.6105    2.1570   -0.6520 N   0  0  0  0  0  0  0  0  0  0  0  0
   -3.0676    2.2009    0.6267 C   0  0  0  0  0  0  0  0  0  0  0  0
   -2.9098    3.2508    1.3924 N   0  0  0  0  0  0  0  0  0  0  0  0
   -3.6889    1.1264    1.0809 N   0  0  0  0  0  0  0  0  0  0  0  0
   -1.0576   -0.5186    2.0634 C   0  0  0  0  0  0  0  0  0  0  0  0
    0.1741   -0.4629    1.4491 C   0  0  0  0  0  0  0  0  0  0  0  0
    5.0331    0.1966    0.4194 C   0  0  0  0  0  0  0  0  0  0  0  0
    4.9162    0.6330    1.7523 O   0  0  0  0  0  0  0  0  0  0  0  0
    6.1713    0.1804   -0.1747 O   0  0  0  0  0  0  0  0  0  0  0  0
    4.3865   -1.3616   -0.8255 H   0  0  0  0  0  0  0  0  0  0  0  0
    5.0405    0.3980   -2.3324 H   0  0  0  0  0  0  0  0  0  0  0  0
    3.3587   -0.2164   -2.5452 H   0  0  0  0  0  0  0  0  0  0  0  0
    2.3795    1.7083   -1.5058 H   0  0  0  0  0  0  0  0  0  0  0  0
    3.4437    2.1611   -2.8661 H   0  0  0  0  0  0  0  0  0  0  0  0
    3.6849    4.7459   -0.5267 H   0  0  0  0  0  0  0  0  0  0  0  0
    2.4100    0.5335    0.4038 H   0  0  0  0  0  0  0  0  0  0  0  0
    0.3940   -3.7291    0.4642 H   0  0  0  0  0  0  0  0  0  0  0  0
   -1.7387   -3.7509    1.5458 H   0  0  0  0  0  0  0  0  0  0  0  0
   -3.4182   -2.0743    3.6966 H   0  0  0  0  0  0  0  0  0  0  0  0
   -5.9316   -3.0654    1.6506 H   0  0  0  0  0  0  0  0  0  0  0  0
   -4.6243   -1.4809   -1.6547 H   0  0  0  0  0  0  0  0  0  0  0  0
   -2.9035   -1.6573   -2.2764 H   0  0  0  0  0  0  0  0  0  0  0  0
   -2.9355    1.3308   -3.4783 H   0  0  0  0  0  0  0  0  0  0  0  0
   -3.2794    3.2372    2.3709 H   0  0  0  0  0  0  0  0  0  0  0  0
   -4.0337    1.1896    2.0801 H   0  0  0  0  0  0  0  0  0  0  0  0
   -1.4753    0.3462    2.5186 H   0  0  0  0  0  0  0  0  0  0  0  0
    0.6859    0.4861    1.4391 H   0  0  0  0  0  0  0  0  0  0  0  0
    5.7657    0.8077    2.2938 H   0  0  0  0  0  0  0  0  0  0  0  0
  1  2  1  0
  2  3  1  0
  3  4  1  0
  4  5  1  0
  4  6  2  0
  1  7  1  0
  7  8  1  0
  8  9  2  0
  8 10  1  0
 10 11  2  0
 11 12  1  0
 12 13  2  0
 13 14  1  0
 14 15  1  0
 15 16  1  0
 15 17  2  3
 17 18  1  0
 18 19  2  0
 19 20  1  0
 19 21  1  0
 21 22  1  0
 21 23  2  0
 23 24  1  0
 24 25  2  3
 24 26  1  0
 13 27  1  0
 27 28  2  0
  1 29  1  0
 29 30  1  0
 29 31  2  0
 28 10  1  0
 26 18  1  0
  1 32  1  6
  2 33  1  0
  2 34  1  0
  3 35  1  0
  3 36  1  0
  5 37  1  0
  7 38  1  0
 11 39  1  0
 12 40  1  0
 14 41  1  0
 16 42  1  0
 20 43  1  0
 20 44  1  0
 22 45  1  0
 25 46  1  0
 26 47  1  0
 27 48  1  0
 28 49  1  0
 30 50  1  0
M  END
$$$$
