@<TRIPOS>MOLECULE
*****
 50 51 0 0 0
SMALL
GASTEIGER

@<TRIPOS>ATOM
      1 CA          4.0586   -0.2958   -0.5501 C.3     1  GLU1        0.1209
      2 CB          4.0074    0.4156   -1.8525 C.3     1  GLU1       -0.0140
      3 CG          3.4701    1.7882   -1.8033 C.3     1  GLU1        0.0470
      4 CD          4.1709    2.7655   -0.9823 C.2     1  GLU1        0.3048
      5 OE1         3.4656    3.9738   -1.1311 O.3     1  GLU1       -0.4806
      6 OE2         5.1388    2.9774   -0.2020 O.2     1  GLU1       -0.2510
      7 N           2.7400   -0.3930    0.0808 N.am    1  GLU1       -0.2983
      8 C           2.0008   -1.6035    0.2321 C.2     0  UNK0        0.2447
      9 O           2.4914   -2.6811   -0.2029 O.2     0  UNK0       -0.2702
     10 C           0.6965   -1.6012    0.8783 C.ar    0  UNK0        0.0368
     11 C           0.0077   -2.8225    0.9034 C.ar    0  UNK0       -0.0479
     12 C          -1.2162   -2.7790    1.5397 C.ar    0  UNK0       -0.0397
     13 C          -1.8077   -1.6683    2.1388 C.ar    0  UNK0        0.0349
     14 N          -3.0425   -1.8897    2.7438 N.pl3   0  UNK0       -0.2693
     15 C          -4.1816   -1.8797    1.9055 C.2     0  UNK0        0.2862
     16 O          -5.3516   -2.2905    1.4135 O.2     0  UNK0       -0.4813
     17 N          -4.6232   -1.1622    0.9590 N.2     0  UNK0       -0.1794
     18 C          -3.9528   -0.0391    0.4731 C.ar    0  UNK0        0.1647
     19 C          -3.4672   -0.0394   -0.8327 C.ar    0  UNK0        0.1299
     20 N          -3.6339   -1.1849   -1.6940 N.pl3   0  UNK0       -0.3510
     21 C          -2.7982    1.0578   -1.3918 C.ar    0  UNK0        0.2404
     22 O          -2.3423    0.9795   -2.7104 O.3     0  UNK0       -0.4910
     23 N          -2.6105    2.1570   -0.6520 N.ar    0  UNK0       -0.1761
     24 C          -3.0676    2.2009    0.6267 C.ar    0  UNK0        0.2253
     25 N          -2.9098    3.2508    1.3924 N.2     0  UNK0       -0.2664
     26 N          -3.6889    1.1264    1.0809 N.ar    0  UNK0       -0.3077
     27 C          -1.0576   -0.5186    2.0634 C.ar    0  UNK0       -0.0397
     28 C           0.1741   -0.4629    1.4491 C.ar    0  UNK0       -0.0479
     29 C           5.0331    0.1966    0.4194 C.2     1  GLU1        0.3253
     30 O           4.9162    0.6330    1.7523 O.3     1  GLU1       -0.4793
     31 OXT         6.1713    0.1804   -0.1747 O.2     1  GLU1       -0.2489
     32 HA          4.3865   -1.3616   -0.8255 H       1  GLU1        0.0614
     33 HB1         5.0405    0.3980   -2.3324 H       1  GLU1        0.0294
     34 HB2         3.3587   -0.2164   -2.5452 H       1  GLU1        0.0294
     35 HG1         2.3795    1.7083   -1.5058 H       1  GLU1        0.0378
     36 HG2         3.4437    2.1611   -2.8661 H       1  GLU1        0.0378
     37 HE1         3.6849    4.7459   -0.5267 H       1  GLU1        0.2951
     38 H           2.4100    0.5335    0.4038 H       1  GLU1        0.1498
     39 H           0.3940   -3.7291    0.4642 H       0  UNK0        0.0626
     40 H          -1.7387   -3.7509    1.5458 H       0  UNK0        0.0636
     41 H          -3.4182   -2.0743    3.6966 H       0  UNK0        0.1565
     42 H          -5.9316   -3.0654    1.6506 H       0  UNK0        0.2951
     43 H          -4.6243   -1.4809   -1.6547 H       0  UNK0        0.1426
     44 H          -2.9035   -1.6573   -2.2764 H       0  UNK0        0.1426
     45 H          -2.9355    1.3308   -3.4783 H       0  UNK0        0.2938
     46 H          -3.2794    3.2372    2.3709 H       0  UNK0        0.1898
     47 H          -4.0337    1.1896    2.0801 H       0  UNK0        0.1703
     48 H          -1.4753    0.3462    2.5186 H       0  UNK0        0.0636
     49 H           0.6859    0.4861    1.4391 H       0  UNK0        0.0626
     50 H           5.7657    0.8077    2.2938 H       1  GLU1        0.2951
@<TRIPOS>BOND
     1     1     2    1
     2     2     3    1
     3     3     4    1
     4     4     5    1
     5     4     6    2
     6     1     7    1
     7     7     8   am
     8     8     9    2
     9     8    10    1
    10    10    11   ar
    11    11    12   ar
    12    12    13   ar
    13    13    14    1
    14    14    15    1
    15    15    16    1
    16    15    17    2
    17    17    18    1
    18    18    19   ar
    19    19    20    1
    20    19    21   ar
    21    21    22    1
    22    21    23   ar
    23    23    24   ar
    24    24    25    2
    25    24    26   ar
    26    13    27   ar
    27    27    28   ar
    28     1    29    1
    29    29    30    1
    30    29    31    2
    31    28    10   ar
    32    26    18   ar
    33     1    32    1
    34     2    33    1
    35     2    34    1
    36     3    35    1
    37     3    36    1
    38     5    37    1
    39     7    38    1
    40    11    39    1
    41    12    40    1
    42    14    41    1
    43    16    42    1
    44    20    43    1
    45    20    44    1
    46    22    45    1
    47    25    46    1
    48    26    47    1
    49    27    48    1
    50    28    49    1
    51    30    50    1
