@<TRIPOS>MOLECULE
*****
 225 230 0 0 0
SMALL
GASTEIGER

@<TRIPOS>ATOM
      1 C          -4.0771   -7.9064   -3.8900 C.3     1  UNL1       -0.0343
      2 C          -2.9080   -7.7665   -2.9271 C.3     1  UNL1        0.0618
      3 N          -3.4113   -7.3208   -1.6365 N.pl3   1  UNL1       -0.2761
      4 C          -3.9609   -6.0014   -1.5534 C.cat   1  UNL1        0.3810
      5 N          -5.0133   -5.8192   -0.5743 N.pl3   1  UNL1       -0.2761
      6 C          -6.2694   -5.0891   -0.8330 C.3     1  UNL1        0.0618
      7 C          -7.1309   -5.8843   -1.7944 C.3     1  UNL1       -0.0343
      8 N          -3.7184   -4.9846   -2.1768 N.pl3   1  UNL1       -0.1135
      9 C          -2.9703   -4.3973   -3.1683 C.3     1  UNL1        0.1047
     10 C          -1.5359   -4.1656   -3.0949 C.3     1  UNL1       -0.0186
     11 C          -0.8445   -3.3648   -2.1000 C.3     1  UNL1       -0.0479
     12 C          -1.1426   -1.9444   -1.8817 C.3     1  UNL1       -0.0259
     13 C          -2.4828   -1.7268   -1.2556 C.3     1  UNL1        0.0994
     14 N          -2.4520   -2.3921    0.0573 N.am    1  UNL1       -0.3025
     15 C          -3.6429   -2.7275    0.7883 C.2     1  UNL1        0.2343
     16 O          -4.6355   -2.3260    0.0902 O.2     1  UNL1       -0.2738
     17 C          -3.6205   -3.4079    2.1020 C.3     1  UNL1        0.1034
     18 C          -4.2896   -2.6031    3.1649 C.3     1  UNL1       -0.0007
     19 C          -5.6976   -2.3661    2.8190 C.ar    1  UNL1       -0.0449
     20 C          -6.6308   -3.3439    3.1990 C.ar    1  UNL1       -0.0551
     21 C          -7.9875   -3.2070    2.9381 C.ar    1  UNL1       -0.0199
     22 C          -8.4839   -2.0750    2.2783 C.ar    1  UNL1        0.1169
     23 O          -9.8237   -1.8811    1.9912 O.3     1  UNL1       -0.5068
     24 C          -7.5836   -1.0791    1.8836 C.ar    1  UNL1       -0.0199
     25 C          -6.2832   -1.3092    2.1846 C.ar    1  UNL1       -0.0551
     26 N          -2.2809   -3.8225    2.4724 N.am    1  UNL1       -0.3021
     27 C          -2.0669   -5.2564    2.5057 C.2     1  UNL1        0.2362
     28 O          -2.9465   -6.0774    2.2424 O.2     1  UNL1       -0.2737
     29 CA         -0.8501   -6.1037    2.8305 C.3     1  UNL1        0.1226
     30 C          -1.2046   -7.1434    3.8546 C.3     1  UNL1        0.0711
     31 O          -0.1330   -7.9812    4.0966 O.3     1  UNL1       -0.3927
     32 N           0.2681   -5.2714    3.2320 N.am    1  UNL1       -0.3006
     33 C           1.2588   -4.9315    2.2821 C.2     1  UNL1        0.2343
     34 O           1.4525   -5.1678    1.0381 O.2     1  UNL1       -0.2738
     35 CA          2.4782   -4.1368    2.4286 C.3     1  UNL1        0.1034
     36 C           3.5432   -4.7888    3.2988 C.3     1  UNL1        0.0008
     37 C           4.0209   -6.0828    2.8240 C.ar    1  UNL1       -0.0270
     38 C           5.0990   -6.0778    1.9580 C.ar    1  UNL1       -0.0556
     39 C           5.6218   -7.2897    1.4818 C.ar    1  UNL1       -0.0433
     40 C           4.9611   -8.3822    1.9607 C.ar    1  UNL1        0.0276
     41 N           3.9127   -8.4153    2.8009 N.ar    1  UNL1       -0.2630
     42 C           3.3966   -7.2363    3.2706 C.ar    1  UNL1        0.0308
     43 N           3.0301   -3.7893    1.1293 N.am    1  UNL1       -0.3022
     44 C           3.5843   -2.4991    1.0421 C.2     1  UNL1        0.2343
     45 O           3.7708   -1.4941    1.8414 O.2     1  UNL1       -0.2738
     46 CA          4.2481   -1.4321    0.2206 C.3     1  UNL1        0.1034
     47 C           3.0731   -0.9296   -0.6806 C.3     1  UNL1       -0.0007
     48 C           3.4561    0.0789   -1.6311 C.ar    1  UNL1       -0.0451
     49 C           3.4197    1.4376   -1.7863 C.ar    1  UNL1       -0.0571
     50 C           3.9039    2.1902   -2.8138 C.ar    1  UNL1       -0.0431
     51 C           4.5141    1.5412   -3.8503 C.ar    1  UNL1        0.0410
     52 CL          5.1387    2.4834   -5.1829 Cl      1  UNL1       -0.0835
     53 C           4.6151    0.1480   -3.8115 C.ar    1  UNL1       -0.0431
     54 C           4.0910   -0.5305   -2.7197 C.ar    1  UNL1       -0.0571
     55 N           4.7633   -0.4259    1.0673 N.am    1  UNL1       -0.3022
     56 C           4.9051    0.7977    1.6921 C.2     1  UNL1        0.2343
     57 O           4.0257    1.5839    1.3395 O.2     1  UNL1       -0.2738
     58 CA          5.8325    1.3735    2.6520 C.3     1  UNL1        0.1033
     59 C           7.2272    1.6253    2.0744 C.3     1  UNL1       -0.0006
     60 C           7.1870    2.5410    0.9349 C.ar    1  UNL1       -0.0445
     61 C           7.2457    3.9208    0.9787 C.ar    1  UNL1       -0.0508
     62 C           7.1940    4.6796   -0.1998 C.ar    1  UNL1       -0.0176
     63 C           7.2437    6.0754   -0.1275 C.ar    1  UNL1       -0.0540
     64 C           7.1819    6.8460   -1.2888 C.ar    1  UNL1       -0.0612
     65 C           7.0720    6.0919   -2.4445 C.ar    1  UNL1       -0.0612
     66 C           7.0181    4.7327   -2.6051 C.ar    1  UNL1       -0.0540
     67 C           7.0833    4.0028   -1.4161 C.ar    1  UNL1       -0.0179
     68 C           7.0234    2.6377   -1.4930 C.ar    1  UNL1       -0.0538
     69 C           7.0755    1.9140   -0.3103 C.ar    1  UNL1       -0.0579
     70 N           5.3809    2.6609    3.1247 N.am    1  UNL1       -0.3039
     71 C           5.2009    2.9497    4.4940 C.2     1  UNL1        0.2105
     72 C           4.7603    4.1267    5.2646 C.3     1  UNL1        0.0122
     73 O           5.4882    1.9613    5.2451 O.2     1  UNL1       -0.2761
     74 C          -2.6846   -0.2255   -1.0024 C.2     1  UNL1        0.2339
     75 O          -3.0284    0.4592   -1.9939 O.2     1  UNL1       -0.2738
     76 N          -2.4901    0.3664    0.3013 N.am    1  UNL1       -0.3025
     77 C          -2.8025    1.7975    0.2262 C.3     1  UNL1        0.0996
     78 C          -3.2784    2.2050    1.5718 C.3     1  UNL1       -0.0236
     79 C          -3.6830    3.6286    1.7434 C.3     1  UNL1       -0.0446
     80 C          -4.1548    3.8713    3.1940 C.3     1  UNL1       -0.0626
     81 C          -4.9366    3.9049    0.9069 C.3     1  UNL1       -0.0626
     82 C          -1.6997    2.5387   -0.3589 C.2     1  UNL1        0.2340
     83 O          -0.8283    1.6153   -0.6546 O.2     1  UNL1       -0.2738
     84 N          -1.0671    3.6814   -0.7792 N.am    1  UNL1       -0.3025
     85 C          -0.1588    4.6144   -1.3095 C.3     1  UNL1        0.0996
     86 C          -0.7668    5.4582   -2.4191 C.3     1  UNL1       -0.0259
     87 C          -1.2461    4.6131   -3.5589 C.3     1  UNL1       -0.0479
     88 C          -0.1992    3.7782   -4.2180 C.3     1  UNL1       -0.0186
     89 C          -0.8624    2.9602   -5.3502 C.3     1  UNL1        0.1047
     90 N           0.0876    2.1410   -6.0147 N.pl3   1  UNL1       -0.1135
     91 C          -0.0739    1.1741   -6.8050 C.cat   1  UNL1        0.3810
     92 N           1.1632    0.5946   -7.2680 N.pl3   1  UNL1       -0.2761
     93 C           2.3823    1.3609   -7.6035 C.3     1  UNL1        0.0618
     94 C           2.0172    2.1386   -8.8761 C.3     1  UNL1       -0.0343
     95 N          -1.2827    0.6186   -7.2699 N.pl3   1  UNL1       -0.2761
     96 C          -2.4456    1.4507   -7.5090 C.3     1  UNL1        0.0618
     97 C          -3.5193    0.4962   -8.0668 C.3     1  UNL1       -0.0343
     98 C           0.4647    5.5335   -0.3410 C.2     1  UNL1        0.2365
     99 O           1.0878    6.5516   -0.0343 O.2     1  UNL1       -0.2735
    100 N           0.6650    5.6439    1.0541 N.am    1  UNL1       -0.2884
    101 C           1.2566    6.7070    1.8293 C.3     1  UNL1        0.0156
    102 C           2.4422    6.0431    2.5349 C.3     1  UNL1       -0.0350
    103 C           1.8241    4.6802    2.8388 C.3     1  UNL1       -0.0243
    104 C           0.4559    4.7425    2.1603 C.3     1  UNL1        0.1023
    105 C          -0.5700    5.1444    3.1258 C.2     1  UNL1        0.2342
    106 O          -1.4959    5.9679    3.3624 O.2     1  UNL1       -0.2738
    107 N          -0.4491    4.2198    4.2321 N.am    1  UNL1       -0.3027
    108 C          -1.2588    4.1999    5.4593 C.3     1  UNL1        0.0964
    109 C          -0.3297    4.8207    6.5231 C.3     1  UNL1       -0.0381
    110 C          -1.5678    2.8473    5.9305 C.2     1  UNL1        0.2306
    111 N          -1.6343    1.4495    6.0102 N.am    1  UNL1       -0.3278
    112 O          -2.2336    3.0664    7.0055 O.2     1  UNL1       -0.2740
    113 H          -4.6917   -6.9960   -3.9290 H       1  UNL1        0.0260
    114 H          -4.7313   -8.7395   -3.5662 H       1  UNL1        0.0260
    115 H          -3.6175   -8.0561   -4.8932 H       1  UNL1        0.0260
    116 H          -2.0643   -7.2233   -3.3204 H       1  UNL1        0.0652
    117 H          -2.5281   -8.8112   -2.7348 H       1  UNL1        0.0652
    118 H          -3.3935   -7.9051   -0.7548 H       1  UNL1        0.2579
    119 H          -4.9234   -6.2256    0.3942 H       1  UNL1        0.2579
    120 H          -6.0382   -4.1294   -1.3158 H       1  UNL1        0.0652
    121 H          -6.7916   -4.8914    0.1148 H       1  UNL1        0.0652
    122 H          -7.7207   -5.1799   -2.4118 H       1  UNL1        0.0260
    123 H          -6.4730   -6.5436   -2.3654 H       1  UNL1        0.0260
    124 H          -7.8519   -6.4480   -1.1334 H       1  UNL1        0.0260
    125 H          -3.5570   -3.5120   -3.5711 H       1  UNL1        0.0693
    126 H          -3.0884   -5.1027   -4.0976 H       1  UNL1        0.0693
    127 H          -1.0190   -5.1984   -3.0710 H       1  UNL1        0.0297
    128 H          -1.1502   -3.8117   -4.1303 H       1  UNL1        0.0297
    129 H          -0.8452   -3.9522   -1.1108 H       1  UNL1        0.0267
    130 H           0.2719   -3.4216   -2.3578 H       1  UNL1        0.0267
    131 H          -0.4018   -1.4891   -1.1424 H       1  UNL1        0.0288
    132 H          -0.9863   -1.3031   -2.7809 H       1  UNL1        0.0288
    133 H          -3.3704   -1.9890   -1.8101 H       1  UNL1        0.0594
    134 H          -1.5364   -2.6422    0.5049 H       1  UNL1        0.1495
    135 H          -4.2263   -4.3215    1.9816 H       1  UNL1        0.0598
    136 H          -4.1979   -3.1821    4.1219 H       1  UNL1        0.0336
    137 H          -3.8391   -1.5996    3.3101 H       1  UNL1        0.0336
    138 H          -6.3515   -4.2590    3.7111 H       1  UNL1        0.0621
    139 H          -8.6901   -3.9811    3.2460 H       1  UNL1        0.0654
    140 H         -10.1347   -2.1136    1.0550 H       1  UNL1        0.2921
    141 H          -7.8988   -0.1813    1.3778 H       1  UNL1        0.0654
    142 H          -5.5730   -0.5168    1.8797 H       1  UNL1        0.0621
    143 H          -1.3840   -3.3607    2.7376 H       1  UNL1        0.1495
    144 HA         -0.5481   -6.6192    1.8882 H       1  UNL1        0.0618
    145 H1         -1.5479   -6.5953    4.7556 H       1  UNL1        0.0580
    146 H2         -2.0731   -7.7268    3.4744 H       1  UNL1        0.0580
    147 H           0.4357   -8.0505    3.2733 H       1  UNL1        0.2095
    148 H           0.4762   -4.8536    4.1652 H       1  UNL1        0.1496
    149 HA          2.2397   -3.1925    2.9622 H       1  UNL1        0.0598
    150 H           3.0980   -4.8291    4.3248 H       1  UNL1        0.0336
    151 H           4.3612   -4.0554    3.3501 H       1  UNL1        0.0336
    152 H           5.5937   -5.1797    1.5971 H       1  UNL1        0.0621
    153 H           6.4424   -7.4201    0.8190 H       1  UNL1        0.0633
    154 H           5.2231   -9.4120    1.7016 H       1  UNL1        0.0829
    155 H           2.5646   -7.1713    3.9449 H       1  UNL1        0.0832
    156 H           3.2746   -3.9590    0.1276 H       1  UNL1        0.1495
    157 HA          4.9248   -1.8277   -0.5114 H       1  UNL1        0.0598
    158 H           2.6712   -1.8270   -1.1635 H       1  UNL1        0.0336
    159 H           2.2472   -0.5905    0.0201 H       1  UNL1        0.0336
    160 H           2.9118    1.9081   -0.9722 H       1  UNL1        0.0621
    161 H           3.7657    3.2559   -2.7280 H       1  UNL1        0.0632
    162 H           5.1104   -0.2627   -4.6681 H       1  UNL1        0.0632
    163 H           4.2623   -1.6000   -2.8753 H       1  UNL1        0.0621
    164 H           5.5619   -1.0214    1.4713 H       1  UNL1        0.1495
    165 HA          5.9940    0.7065    3.5201 H       1  UNL1        0.0598
    166 H           7.7620    2.1752    2.9004 H       1  UNL1        0.0336
    167 H           7.7991    0.7071    1.9101 H       1  UNL1        0.0336
    168 H           7.3358    4.3838    1.9509 H       1  UNL1        0.0626
    169 H           7.3241    6.5939    0.8171 H       1  UNL1        0.0624
    170 H           7.2095    7.9051   -1.3035 H       1  UNL1        0.0618
    171 H           7.0174    6.6842   -3.3723 H       1  UNL1        0.0618
    172 H           6.9376    4.3072   -3.5961 H       1  UNL1        0.0624
    173 H           6.9415    2.1401   -2.4628 H       1  UNL1        0.0624
    174 H           7.0237    0.8312   -0.4336 H       1  UNL1        0.0620
    175 H           5.1400    3.5020    2.5416 H       1  UNL1        0.1495
    176 H           5.6157    4.7166    5.6535 H       1  UNL1        0.0322
    177 H           4.1023    4.7461    4.6140 H       1  UNL1        0.0322
    178 H           4.1002    3.7729    6.1020 H       1  UNL1        0.0322
    179 H          -2.1763   -0.2551    1.0731 H       1  UNL1        0.1495
    180 H          -3.6510    1.9406   -0.5124 H       1  UNL1        0.0594
    181 H          -2.4045    2.0505    2.2771 H       1  UNL1        0.0290
    182 H          -4.0496    1.5002    1.9746 H       1  UNL1        0.0290
    183 H          -2.8741    4.3260    1.5651 H       1  UNL1        0.0296
    184 H          -3.5287    3.2572    3.8850 H       1  UNL1        0.0232
    185 H          -4.0477    4.9566    3.3818 H       1  UNL1        0.0232
    186 H          -5.2176    3.5469    3.2920 H       1  UNL1        0.0232
    187 H          -4.5901    4.0773   -0.1192 H       1  UNL1        0.0232
    188 H          -5.5634    4.7057    1.3282 H       1  UNL1        0.0232
    189 H          -5.5618    2.9716    0.9958 H       1  UNL1        0.0232
    190 H          -1.8254    4.3935   -0.4954 H       1  UNL1        0.1495
    191 H           0.7140    4.0906   -1.8400 H       1  UNL1        0.0594
    192 H          -0.0015    6.1436   -2.7676 H       1  UNL1        0.0288
    193 H          -1.6163    6.0043   -2.0073 H       1  UNL1        0.0288
    194 H          -2.1391    4.0044   -3.3005 H       1  UNL1        0.0267
    195 H          -1.6261    5.3322   -4.3425 H       1  UNL1        0.0267
    196 H           0.3085    3.0792   -3.5139 H       1  UNL1        0.0297
    197 H           0.6065    4.3520   -4.7081 H       1  UNL1        0.0297
    198 H          -1.5948    2.3288   -4.7769 H       1  UNL1        0.0693
    199 H          -1.4136    3.6273   -6.0116 H       1  UNL1        0.0693
    200 H           1.2341   -0.4574   -7.3943 H       1  UNL1        0.2579
    201 H           2.6064    2.1002   -6.8281 H       1  UNL1        0.0652
    202 H           3.2003    0.6896   -7.8622 H       1  UNL1        0.0652
    203 H           1.4596    3.0461   -8.6713 H       1  UNL1        0.0260
    204 H           1.3396    1.4696   -9.4917 H       1  UNL1        0.0260
    205 H           2.9131    2.2976   -9.5215 H       1  UNL1        0.0260
    206 H          -1.2224   -0.4328   -7.4115 H       1  UNL1        0.2579
    207 H          -2.2616    2.1898   -8.3380 H       1  UNL1        0.0652
    208 H          -2.8792    1.9233   -6.6319 H       1  UNL1        0.0652
    209 H          -3.2519   -0.5596   -7.8622 H       1  UNL1        0.0260
    210 H          -3.6290    0.6155   -9.1443 H       1  UNL1        0.0260
    211 H          -4.4941    0.6468   -7.5211 H       1  UNL1        0.0260
    212 H           0.5314    6.9701    2.6612 H       1  UNL1        0.0465
    213 H           1.5264    7.6259    1.3206 H       1  UNL1        0.0465
    214 H           2.7313    6.5714    3.4565 H       1  UNL1        0.0281
    215 H           3.2928    5.8877    1.8831 H       1  UNL1        0.0281
    216 H           1.6990    4.6261    3.9320 H       1  UNL1        0.0288
    217 H           2.4315    3.8580    2.4797 H       1  UNL1        0.0288
    218 H           0.1887    3.7507    1.7357 H       1  UNL1        0.0597
    219 H           0.2073    3.4037    4.3792 H       1  UNL1        0.1495
    220 H          -2.1284    4.8518    5.3682 H       1  UNL1        0.0592
    221 H           0.5584    4.1509    6.5378 H       1  UNL1        0.0252
    222 H          -0.0270    5.7851    6.1157 H       1  UNL1        0.0252
    223 H          -0.8218    4.8476    7.4941 H       1  UNL1        0.0252
    224 H          -0.8868    0.9354    6.5595 H       1  UNL1        0.1450
    225 H          -2.4466    0.9935    5.5000 H       1  UNL1        0.1450
@<TRIPOS>BOND
     1     1     2    1
     2     2     3    1
     3     3     4    1
     4     4     5    1
     5     5     6    1
     6     6     7    1
     7     4     8    2
     8     8     9    1
     9     9    10    1
    10    10    11    1
    11    11    12    1
    12    12    13    1
    13    13    14    1
    14    14    15   am
    15    15    16    2
    16    15    17    1
    17    17    18    1
    18    18    19    1
    19    19    20   ar
    20    20    21   ar
    21    21    22   ar
    22    22    23    1
    23    22    24   ar
    24    24    25   ar
    25    17    26    1
    26    26    27   am
    27    27    28    2
    28    27    29    1
    29    29    30    1
    30    30    31    1
    31    29    32    1
    32    32    33   am
    33    33    34    2
    34    33    35    1
    35    35    36    1
    36    36    37    1
    37    37    38   ar
    38    38    39   ar
    39    39    40   ar
    40    40    41   ar
    41    41    42   ar
    42    35    43    1
    43    43    44   am
    44    44    45    2
    45    44    46    1
    46    46    47    1
    47    47    48    1
    48    48    49   ar
    49    49    50   ar
    50    50    51   ar
    51    51    52    1
    52    51    53   ar
    53    53    54   ar
    54    46    55    1
    55    55    56   am
    56    56    57    2
    57    56    58    1
    58    58    59    1
    59    59    60    1
    60    60    61   ar
    61    61    62   ar
    62    62    63   ar
    63    63    64   ar
    64    64    65   ar
    65    65    66   ar
    66    66    67   ar
    67    67    68   ar
    68    68    69   ar
    69    58    70    1
    70    70    71   am
    71    71    72    1
    72    71    73    2
    73    13    74    1
    74    74    75    2
    75    74    76   am
    76    76    77    1
    77    77    78    1
    78    78    79    1
    79    79    80    1
    80    79    81    1
    81    77    82    1
    82    82    83    2
    83    82    84   am
    84    84    85    1
    85    85    86    1
    86    86    87    1
    87    87    88    1
    88    88    89    1
    89    89    90    1
    90    90    91    2
    91    91    92    1
    92    92    93    1
    93    93    94    1
    94    91    95    1
    95    95    96    1
    96    96    97    1
    97    85    98    1
    98    98    99    2
    99    98   100   am
   100   100   101    1
   101   101   102    1
   102   102   103    1
   103   103   104    1
   104   104   105    1
   105   105   106    2
   106   105   107   am
   107   107   108    1
   108   108   109    1
   109   108   110    1
   110   110   111   am
   111   110   112    2
   112    25    19   ar
   113    42    37   ar
   114    54    48   ar
   115    69    60   ar
   116   104   100    1
   117    67    62   ar
   118     1   113    1
   119     1   114    1
   120     1   115    1
   121     2   116    1
   122     2   117    1
   123     3   118    1
   124     5   119    1
   125     6   120    1
   126     6   121    1
   127     7   122    1
   128     7   123    1
   129     7   124    1
   130     9   125    1
   131     9   126    1
   132    10   127    1
   133    10   128    1
   134    11   129    1
   135    11   130    1
   136    12   131    1
   137    12   132    1
   138    13   133    1
   139    14   134    1
   140    17   135    1
   141    18   136    1
   142    18   137    1
   143    20   138    1
   144    21   139    1
   145    23   140    1
   146    24   141    1
   147    25   142    1
   148    26   143    1
   149    29   144    1
   150    30   145    1
   151    30   146    1
   152    31   147    1
   153    32   148    1
   154    35   149    1
   155    36   150    1
   156    36   151    1
   157    38   152    1
   158    39   153    1
   159    40   154    1
   160    42   155    1
   161    43   156    1
   162    46   157    1
   163    47   158    1
   164    47   159    1
   165    49   160    1
   166    50   161    1
   167    53   162    1
   168    54   163    1
   169    55   164    1
   170    58   165    1
   171    59   166    1
   172    59   167    1
   173    61   168    1
   174    63   169    1
   175    64   170    1
   176    65   171    1
   177    66   172    1
   178    68   173    1
   179    69   174    1
   180    70   175    1
   181    72   176    1
   182    72   177    1
   183    72   178    1
   184    76   179    1
   185    77   180    1
   186    78   181    1
   187    78   182    1
   188    79   183    1
   189    80   184    1
   190    80   185    1
   191    80   186    1
   192    81   187    1
   193    81   188    1
   194    81   189    1
   195    84   190    1
   196    85   191    1
   197    86   192    1
   198    86   193    1
   199    87   194    1
   200    87   195    1
   201    88   196    1
   202    88   197    1
   203    89   198    1
   204    89   199    1
   205    92   200    1
   206    93   201    1
   207    93   202    1
   208    94   203    1
   209    94   204    1
   210    94   205    1
   211    95   206    1
   212    96   207    1
   213    96   208    1
   214    97   209    1
   215    97   210    1
   216    97   211    1
   217   101   212    1
   218   101   213    1
   219   102   214    1
   220   102   215    1
   221   103   216    1
   222   103   217    1
   223   104   218    1
   224   107   219    1
   225   108   220    1
   226   109   221    1
   227   109   222    1
   228   109   223    1
   229   111   224    1
   230   111   225    1
