
     RDKit          3D

 47 50  0  0  0  0  0  0  0  0999 V2000
   -7.1316   -0.2846   -0.1781 N   0  0  0  0  0  0  0  0  0  0  0  0
   -5.8856    0.1592    0.3628 C   0  0  0  0  0  0  0  0  0  0  0  0
   -5.1860    1.1799   -0.5404 C   0  0  0  0  0  0  0  0  0  0  0  0
   -3.6813    1.1572   -0.2261 C   0  0  0  0  0  0  0  0  0  0  0  0
   -3.0979   -0.0409   -0.8956 C   0  0  0  0  0  0  0  0  0  0  0  0
   -1.9083   -0.5637   -0.3214 N   0  0  0  0  0  0  0  0  0  0  0  0
   -0.7702    0.2736   -0.2696 C   0  0  1  0  0  0  0  0  0  0  0  0
   -0.6497    1.5401    0.4315 C   0  0  0  0  0  0  0  0  0  0  0  0
   -0.1136    0.3555    1.1196 C   0  0  2  0  0  0  0  0  0  0  0  0
    1.3147    0.0469    1.1452 C   0  0  0  0  0  0  0  0  0  0  0  0
    2.0680   -0.5729    2.0598 C   0  0  0  0  0  0  0  0  0  0  0  0
    3.3856   -0.7476    1.8702 C   0  0  0  0  0  0  0  0  0  0  0  0
    3.9299   -0.2671    0.7042 C   0  0  0  0  0  0  0  0  0  0  0  0
    5.3026   -0.2898    0.1930 C   0  0  0  0  0  0  0  0  0  0  0  0
    6.2372   -0.8804    0.9766 C   0  0  0  0  0  0  0  0  0  0  0  0
    7.5453   -0.9318    0.5481 C   0  0  0  0  0  0  0  0  0  0  0  0
    7.9035   -0.3851   -0.6725 C   0  0  0  0  0  0  0  0  0  0  0  0
    6.9237    0.2122   -1.4512 C   0  0  0  0  0  0  0  0  0  0  0  0
    7.2418    0.7788   -2.6949 O   0  0  0  0  0  0  0  0  0  0  0  0
    5.6375    0.2524   -1.0095 C   0  0  0  0  0  0  0  0  0  0  0  0
    2.5116    0.4438   -0.1204 S   0  0  0  0  0  0  0  0  0  0  0  0
   -4.1567   -1.1514   -0.8078 C   0  0  0  0  0  0  0  0  0  0  0  0
   -4.9227   -1.0168    0.4961 C   0  0  0  0  0  0  0  0  0  0  0  0
   -7.1140   -0.5620   -1.1635 H   0  0  0  0  0  0  0  0  0  0  0  0
   -7.9639    0.2208    0.1452 H   0  0  0  0  0  0  0  0  0  0  0  0
   -6.0766    0.6151    1.3588 H   0  0  0  0  0  0  0  0  0  0  0  0
   -5.3105    0.9092   -1.6034 H   0  0  0  0  0  0  0  0  0  0  0  0
   -5.6185    2.1708   -0.3596 H   0  0  0  0  0  0  0  0  0  0  0  0
   -3.6276    1.0659    0.8699 H   0  0  0  0  0  0  0  0  0  0  0  0
   -3.2749    2.0750   -0.6529 H   0  0  0  0  0  0  0  0  0  0  0  0
   -2.9961    0.1541   -1.9931 H   0  0  0  0  0  0  0  0  0  0  0  0
   -1.6808   -1.4604   -0.8024 H   0  0  0  0  0  0  0  0  0  0  0  0
   -0.0603    0.1121   -1.1320 H   0  0  0  0  0  0  0  0  0  0  0  0
   -1.4729    2.0990    0.9170 H   0  0  0  0  0  0  0  0  0  0  0  0
    0.1391    2.2635    0.0709 H   0  0  0  0  0  0  0  0  0  0  0  0
   -0.6709    0.0025    2.0026 H   0  0  0  0  0  0  0  0  0  0  0  0
    1.5883   -0.9562    3.0081 H   0  0  0  0  0  0  0  0  0  0  0  0
    4.0952   -1.2582    2.5877 H   0  0  0  0  0  0  0  0  0  0  0  0
    6.0159   -1.3259    1.9429 H   0  0  0  0  0  0  0  0  0  0  0  0
    8.3368   -1.3899    1.1290 H   0  0  0  0  0  0  0  0  0  0  0  0
    8.9032   -0.3968   -1.0544 H   0  0  0  0  0  0  0  0  0  0  0  0
    7.6510    1.7021   -2.7560 H   0  0  0  0  0  0  0  0  0  0  0  0
    4.8511    0.7153   -1.6020 H   0  0  0  0  0  0  0  0  0  0  0  0
   -3.6706   -2.1562   -0.7797 H   0  0  0  0  0  0  0  0  0  0  0  0
   -4.8681   -1.0924   -1.6385 H   0  0  0  0  0  0  0  0  0  0  0  0
   -5.4473   -1.9506    0.7156 H   0  0  0  0  0  0  0  0  0  0  0  0
   -4.2255   -0.8244    1.3516 H   0  0  0  0  0  0  0  0  0  0  0  0
  1  2  1  0
  2  3  1  0
  3  4  1  0
  4  5  1  0
  5  6  1  0
  6  7  1  0
  7  8  1  0
  8  9  1  0
  9 10  1  0
 10 11  2  0
 11 12  1  0
 12 13  2  0
 13 14  1  0
 14 15  2  0
 15 16  1  0
 16 17  2  0
 17 18  1  0
 18 19  1  0
 18 20  2  0
 13 21  1  0
  5 22  1  0
 22 23  1  0
 23  2  1  0
  9  7  1  0
 21 10  1  0
 20 14  1  0
  1 24  1  0
  1 25  1  0
  2 26  1  0
  3 27  1  0
  3 28  1  0
  4 29  1  0
  4 30  1  0
  5 31  1  0
  6 32  1  0
  7 33  1  6
  8 34  1  0
  8 35  1  0
  9 36  1  1
 11 37  1  0
 12 38  1  0
 15 39  1  0
 16 40  1  0
 17 41  1  0
 19 42  1  0
 20 43  1  0
 22 44  1  0
 22 45  1  0
 23 46  1  0
 23 47  1  0
M  END
$$$$
