@<TRIPOS>MOLECULE
*****
 47 50 0 0 0
SMALL
GASTEIGER

@<TRIPOS>ATOM
      1 N          -7.1316   -0.2846   -0.1781 N.3     1  UNL1       -0.3272
      2 C          -5.8856    0.1592    0.3628 C.3     1  UNL1        0.0049
      3 C          -5.1860    1.1799   -0.5404 C.3     1  UNL1       -0.0363
      4 C          -3.6813    1.1572   -0.2261 C.3     1  UNL1       -0.0361
      5 C          -3.0979   -0.0409   -0.8956 C.3     1  UNL1        0.0080
      6 N          -1.9083   -0.5637   -0.3214 N.3     1  UNL1       -0.3099
      7 C          -0.7702    0.2736   -0.2696 C.3     1  UNL1        0.0158
      8 C          -0.6497    1.5401    0.4315 C.3     1  UNL1       -0.0282
      9 C          -0.1136    0.3555    1.1196 C.3     1  UNL1        0.0072
     10 C           1.3147    0.0469    1.1452 C.ar    1  UNL1       -0.0050
     11 C           2.0680   -0.5729    2.0598 C.ar    1  UNL1       -0.0506
     12 C           3.3856   -0.7476    1.8702 C.ar    1  UNL1       -0.0467
     13 C           3.9299   -0.2671    0.7042 C.ar    1  UNL1        0.0197
     14 C           5.3026   -0.2898    0.1930 C.ar    1  UNL1       -0.0079
     15 C           6.2372   -0.8804    0.9766 C.ar    1  UNL1       -0.0533
     16 C           7.5453   -0.9318    0.5481 C.ar    1  UNL1       -0.0577
     17 C           7.9035   -0.3851   -0.6725 C.ar    1  UNL1       -0.0201
     18 C           6.9237    0.2122   -1.4512 C.ar    1  UNL1        0.1175
     19 O           7.2418    0.7788   -2.6949 O.3     1  UNL1       -0.5067
     20 C           5.6375    0.2524   -1.0095 C.ar    1  UNL1       -0.0120
     21 S           2.5116    0.4438   -0.1204 S.2     1  UNL1       -0.0929
     22 C          -4.1567   -1.1514   -0.8078 C.3     1  UNL1       -0.0361
     23 C          -4.9227   -1.0168    0.4961 C.3     1  UNL1       -0.0363
     24 H          -7.1140   -0.5620   -1.1635 H       1  UNL1        0.1185
     25 H          -7.9639    0.2208    0.1452 H       1  UNL1        0.1185
     26 H          -6.0766    0.6151    1.3588 H       1  UNL1        0.0458
     27 H          -5.3105    0.9092   -1.6034 H       1  UNL1        0.0281
     28 H          -5.6185    2.1708   -0.3596 H       1  UNL1        0.0281
     29 H          -3.6276    1.0659    0.8699 H       1  UNL1        0.0281
     30 H          -3.2749    2.0750   -0.6529 H       1  UNL1        0.0281
     31 H          -2.9961    0.1541   -1.9931 H       1  UNL1        0.0460
     32 H          -1.6808   -1.4604   -0.8024 H       1  UNL1        0.1225
     33 H          -0.0603    0.1121   -1.1320 H       1  UNL1        0.0467
     34 H          -1.4729    2.0990    0.9170 H       1  UNL1        0.0287
     35 H           0.1391    2.2635    0.0709 H       1  UNL1        0.0287
     36 H          -0.6709    0.0025    2.0026 H       1  UNL1        0.0370
     37 H           1.5883   -0.9562    3.0081 H       1  UNL1        0.0626
     38 H           4.0952   -1.2582    2.5877 H       1  UNL1        0.0629
     39 H           6.0159   -1.3259    1.9429 H       1  UNL1        0.0624
     40 H           8.3368   -1.3899    1.1290 H       1  UNL1        0.0619
     41 H           8.9032   -0.3968   -1.0544 H       1  UNL1        0.0654
     42 H           7.6510    1.7021   -2.7560 H       1  UNL1        0.2921
     43 H           4.8511    0.7153   -1.6020 H       1  UNL1        0.0660
     44 H          -3.6706   -2.1562   -0.7797 H       1  UNL1        0.0281
     45 H          -4.8681   -1.0924   -1.6385 H       1  UNL1        0.0281
     46 H          -5.4473   -1.9506    0.7156 H       1  UNL1        0.0281
     47 H          -4.2255   -0.8244    1.3516 H       1  UNL1        0.0281
@<TRIPOS>BOND
     1     1     2    1
     2     2     3    1
     3     3     4    1
     4     4     5    1
     5     5     6    1
     6     6     7    1
     7     7     8    1
     8     8     9    1
     9     9    10    1
    10    10    11   ar
    11    11    12   ar
    12    12    13   ar
    13    13    14    1
    14    14    15   ar
    15    15    16   ar
    16    16    17   ar
    17    17    18   ar
    18    18    19    1
    19    18    20   ar
    20    13    21   ar
    21     5    22    1
    22    22    23    1
    23    23     2    1
    24     9     7    1
    25    21    10   ar
    26    20    14   ar
    27     1    24    1
    28     1    25    1
    29     2    26    1
    30     3    27    1
    31     3    28    1
    32     4    29    1
    33     4    30    1
    34     5    31    1
    35     6    32    1
    36     7    33    1
    37     8    34    1
    38     8    35    1
    39     9    36    1
    40    11    37    1
    41    12    38    1
    42    15    39    1
    43    16    40    1
    44    17    41    1
    45    19    42    1
    46    20    43    1
    47    22    44    1
    48    22    45    1
    49    23    46    1
    50    23    47    1
