
     RDKit          3D

 55 59  0  0  0  0  0  0  0  0999 V2000
   -4.3118    1.3672   -1.1021 C   0  0  0  0  0  0  0  0  0  0  0  0
   -4.1767    0.8428    0.3092 C   0  0  0  0  0  0  0  0  0  0  0  0
   -3.3658   -0.4065    0.3528 C   0  0  0  0  0  0  0  0  0  0  0  0
   -3.7493   -1.6810    0.5026 N   0  0  0  0  0  0  0  0  0  0  0  0
   -2.7305   -2.5031    0.4897 N   0  0  0  0  0  0  0  0  0  0  0  0
   -2.7190   -3.9466    0.6223 C   0  0  0  0  0  0  0  0  0  0  0  0
   -2.8387   -4.5348   -0.7799 C   0  0  0  0  0  0  0  0  0  0  0  0
   -1.7504   -4.0810   -1.5046 O   0  0  0  0  0  0  0  0  0  0  0  0
   -1.5891   -1.7690    0.3235 C   0  0  0  0  0  0  0  0  0  0  0  0
   -1.9631   -0.4600    0.2366 C   0  0  0  0  0  0  0  0  0  0  0  0
   -0.7753    0.3595    0.0669 C   0  0  0  0  0  0  0  0  0  0  0  0
   -0.6716    1.4564    1.0613 C   0  0  0  0  0  0  0  0  0  0  0  0
   -0.2909    1.2381    2.3558 C   0  0  0  0  0  0  0  0  0  0  0  0
   -0.2134    2.2863    3.2328 C   0  0  0  0  0  0  0  0  0  0  0  0
   -0.5142    3.5906    2.8457 C   0  0  0  0  0  0  0  0  0  0  0  0
   -0.4205    4.9405    3.9531 Cl  0  0  0  0  0  0  0  0  0  0  0  0
   -0.8993    3.8366    1.5506 C   0  0  0  0  0  0  0  0  0  0  0  0
   -0.9674    2.7630    0.6944 C   0  0  0  0  0  0  0  0  0  0  0  0
    0.3396   -0.5309    0.0293 N   0  0  0  0  0  0  0  0  0  0  0  0
    1.7300   -0.1862   -0.1668 C   0  0  0  0  0  0  0  0  0  0  0  0
    2.5713    0.0336    0.8851 C   0  0  0  0  0  0  0  0  0  0  0  0
    3.9030    0.3714    0.7185 C   0  0  0  0  0  0  0  0  0  0  0  0
    4.7849    0.6021    1.8885 C   0  0  0  0  0  0  0  0  0  0  0  0
    4.3674    0.4821   -0.5686 C   0  0  0  0  0  0  0  0  0  0  0  0
    5.5632    0.7839   -0.9973 O   0  0  0  0  0  0  0  0  0  0  0  0
    5.5583    0.7753   -2.2907 N   0  0  0  0  0  0  0  0  0  0  0  0
    4.3385    0.4623   -2.7513 C   0  0  0  0  0  0  0  0  0  0  0  0
    3.9023    0.3432   -4.1560 C   0  0  0  0  0  0  0  0  0  0  0  0
    3.5429    0.2662   -1.6519 C   0  0  0  0  0  0  0  0  0  0  0  0
    2.1945   -0.0756   -1.4546 C   0  0  0  0  0  0  0  0  0  0  0  0
   -0.1486   -1.8547    0.1986 C   0  0  0  0  0  0  0  0  0  0  0  0
    0.5660   -2.9133    0.2320 O   0  0  0  0  0  0  0  0  0  0  0  0
   -3.4406    1.9517   -1.4158 H   0  0  0  0  0  0  0  0  0  0  0  0
   -5.2018    2.0298   -1.1238 H   0  0  0  0  0  0  0  0  0  0  0  0
   -4.5237    0.4982   -1.7527 H   0  0  0  0  0  0  0  0  0  0  0  0
   -3.7928    1.6121    0.9999 H   0  0  0  0  0  0  0  0  0  0  0  0
   -5.1959    0.5755    0.6587 H   0  0  0  0  0  0  0  0  0  0  0  0
   -3.6108   -4.3119    1.1912 H   0  0  0  0  0  0  0  0  0  0  0  0
   -1.8047   -4.2884    1.1282 H   0  0  0  0  0  0  0  0  0  0  0  0
   -2.8738   -5.6523   -0.7361 H   0  0  0  0  0  0  0  0  0  0  0  0
   -3.7981   -4.2244   -1.2304 H   0  0  0  0  0  0  0  0  0  0  0  0
   -2.1058   -3.5844   -2.3085 H   0  0  0  0  0  0  0  0  0  0  0  0
   -0.7796    0.8653   -0.9531 H   0  0  0  0  0  0  0  0  0  0  0  0
   -0.0496    0.2509    2.6991 H   0  0  0  0  0  0  0  0  0  0  0  0
    0.0901    2.1168    4.2667 H   0  0  0  0  0  0  0  0  0  0  0  0
   -1.1480    4.8306    1.1832 H   0  0  0  0  0  0  0  0  0  0  0  0
   -1.2775    2.9782   -0.3384 H   0  0  0  0  0  0  0  0  0  0  0  0
    2.2228   -0.0545    1.9006 H   0  0  0  0  0  0  0  0  0  0  0  0
    4.1848    0.4050    2.8250 H   0  0  0  0  0  0  0  0  0  0  0  0
    5.2497    1.6014    1.8914 H   0  0  0  0  0  0  0  0  0  0  0  0
    5.5477   -0.2171    1.8684 H   0  0  0  0  0  0  0  0  0  0  0  0
    3.6249    1.3613   -4.5023 H   0  0  0  0  0  0  0  0  0  0  0  0
    3.0679   -0.3733   -4.2662 H   0  0  0  0  0  0  0  0  0  0  0  0
    4.7503    0.0033   -4.7725 H   0  0  0  0  0  0  0  0  0  0  0  0
    1.5984   -0.2322   -2.3385 H   0  0  0  0  0  0  0  0  0  0  0  0
  1  2  1  0
  2  3  1  0
  3  4  2  0
  4  5  1  0
  5  6  1  0
  6  7  1  0
  7  8  1  0
  5  9  1  0
  9 10  2  0
 10 11  1  0
 11 12  1  0
 12 13  2  0
 13 14  1  0
 14 15  2  0
 15 16  1  0
 15 17  1  0
 17 18  2  0
 11 19  1  0
 19 20  1  0
 20 21  2  0
 21 22  1  0
 22 23  1  0
 22 24  2  0
 24 25  1  0
 25 26  1  0
 26 27  2  0
 27 28  1  0
 27 29  1  0
 29 30  2  0
 19 31  1  0
 31 32  2  0
 10  3  1  0
 18 12  1  0
 30 20  1  0
 31  9  1  0
 29 24  1  0
  1 33  1  0
  1 34  1  0
  1 35  1  0
  2 36  1  0
  2 37  1  0
  6 38  1  0
  6 39  1  0
  7 40  1  0
  7 41  1  0
  8 42  1  0
 11 43  1  0
 13 44  1  0
 14 45  1  0
 17 46  1  0
 18 47  1  0
 21 48  1  0
 23 49  1  0
 23 50  1  0
 23 51  1  0
 28 52  1  0
 28 53  1  0
 28 54  1  0
 30 55  1  0
M  END
$$$$
