@<TRIPOS>MOLECULE
*****
 55 59 0 0 0
SMALL
GASTEIGER

@<TRIPOS>ATOM
      1 C          -4.3118    1.3672   -1.1021 C.3     1  UNL1       -0.0598
      2 C          -4.1767    0.8428    0.3092 C.3     1  UNL1       -0.0111
      3 C          -3.3658   -0.4065    0.3528 C.ar    1  UNL1        0.0688
      4 N          -3.7493   -1.6810    0.5026 N.ar    1  UNL1       -0.1751
      5 N          -2.7305   -2.5031    0.4897 N.ar    1  UNL1       -0.2564
      6 C          -2.7190   -3.9466    0.6223 C.3     1  UNL1        0.0655
      7 C          -2.8387   -4.5348   -0.7799 C.3     1  UNL1        0.0637
      8 O          -1.7504   -4.0810   -1.5046 O.3     1  UNL1       -0.3932
      9 C          -1.5891   -1.7690    0.3235 C.ar    1  UNL1        0.1294
     10 C          -1.9631   -0.4600    0.2366 C.ar    1  UNL1        0.0307
     11 C          -0.7753    0.3595    0.0669 C.3     1  UNL1        0.0854
     12 C          -0.6716    1.4564    1.0613 C.ar    1  UNL1       -0.0221
     13 C          -0.2909    1.2381    2.3558 C.ar    1  UNL1       -0.0551
     14 C          -0.2134    2.2863    3.2328 C.ar    1  UNL1       -0.0431
     15 C          -0.5142    3.5906    2.8457 C.ar    1  UNL1        0.0410
     16 CL         -0.4205    4.9405    3.9531 Cl      1  UNL1       -0.0835
     17 C          -0.8993    3.8366    1.5506 C.ar    1  UNL1       -0.0431
     18 C          -0.9674    2.7630    0.6944 C.ar    1  UNL1       -0.0551
     19 N           0.3396   -0.5309    0.0293 N.am    1  UNL1       -0.2545
     20 C           1.7300   -0.1862   -0.1668 C.ar    1  UNL1        0.0387
     21 C           2.5713    0.0336    0.8851 C.ar    1  UNL1       -0.0337
     22 C           3.9030    0.3714    0.7185 C.ar    1  UNL1       -0.0032
     23 C           4.7849    0.6021    1.8885 C.3     1  UNL1       -0.0361
     24 C           4.3674    0.4821   -0.5686 C.ar    1  UNL1        0.1705
     25 O           5.5632    0.7839   -0.9973 O.2     1  UNL1       -0.3541
     26 N           5.5583    0.7753   -2.2907 N.ar    1  UNL1       -0.0823
     27 C           4.3385    0.4623   -2.7513 C.ar    1  UNL1        0.0883
     28 C           3.9023    0.3432   -4.1560 C.3     1  UNL1       -0.0185
     29 C           3.5429    0.2662   -1.6519 C.ar    1  UNL1        0.0460
     30 C           2.1945   -0.0756   -1.4546 C.ar    1  UNL1       -0.0276
     31 C          -0.1486   -1.8547    0.1986 C.2     1  UNL1        0.2700
     32 O           0.5660   -2.9133    0.2320 O.2     1  UNL1       -0.2679
     33 H          -3.4406    1.9517   -1.4158 H       1  UNL1        0.0233
     34 H          -5.2018    2.0298   -1.1238 H       1  UNL1        0.0233
     35 H          -4.5237    0.4982   -1.7527 H       1  UNL1        0.0233
     36 H          -3.7928    1.6121    0.9999 H       1  UNL1        0.0326
     37 H          -5.1959    0.5755    0.6587 H       1  UNL1        0.0326
     38 H          -3.6108   -4.3119    1.1912 H       1  UNL1        0.0532
     39 H          -1.8047   -4.2884    1.1282 H       1  UNL1        0.0532
     40 H          -2.8738   -5.6523   -0.7361 H       1  UNL1        0.0575
     41 H          -3.7981   -4.2244   -1.2304 H       1  UNL1        0.0575
     42 H          -2.1058   -3.5844   -2.3085 H       1  UNL1        0.2095
     43 H          -0.7796    0.8653   -0.9531 H       1  UNL1        0.0606
     44 H          -0.0496    0.2509    2.6991 H       1  UNL1        0.0621
     45 H           0.0901    2.1168    4.2667 H       1  UNL1        0.0632
     46 H          -1.1480    4.8306    1.1832 H       1  UNL1        0.0632
     47 H          -1.2775    2.9782   -0.3384 H       1  UNL1        0.0621
     48 H           2.2228   -0.0545    1.9006 H       1  UNL1        0.0640
     49 H           4.1848    0.4050    2.8250 H       1  UNL1        0.0279
     50 H           5.2497    1.6014    1.8914 H       1  UNL1        0.0279
     51 H           5.5477   -0.2171    1.8684 H       1  UNL1        0.0279
     52 H           3.6249    1.3613   -4.5023 H       1  UNL1        0.0294
     53 H           3.0679   -0.3733   -4.2662 H       1  UNL1        0.0294
     54 H           4.7503    0.0033   -4.7725 H       1  UNL1        0.0294
     55 H           1.5984   -0.2322   -2.3385 H       1  UNL1        0.0644
@<TRIPOS>BOND
     1     1     2    1
     2     2     3    1
     3     3     4   ar
     4     4     5   ar
     5     5     6    1
     6     6     7    1
     7     7     8    1
     8     5     9   ar
     9     9    10   ar
    10    10    11    1
    11    11    12    1
    12    12    13   ar
    13    13    14   ar
    14    14    15   ar
    15    15    16    1
    16    15    17   ar
    17    17    18   ar
    18    11    19    1
    19    19    20    1
    20    20    21   ar
    21    21    22   ar
    22    22    23    1
    23    22    24   ar
    24    24    25   ar
    25    25    26   ar
    26    26    27   ar
    27    27    28    1
    28    27    29   ar
    29    29    30   ar
    30    19    31   am
    31    31    32    2
    32    10     3   ar
    33    18    12   ar
    34    30    20   ar
    35    31     9    1
    36    29    24   ar
    37     1    33    1
    38     1    34    1
    39     1    35    1
    40     2    36    1
    41     2    37    1
    42     6    38    1
    43     6    39    1
    44     7    40    1
    45     7    41    1
    46     8    42    1
    47    11    43    1
    48    13    44    1
    49    14    45    1
    50    17    46    1
    51    18    47    1
    52    21    48    1
    53    23    49    1
    54    23    50    1
    55    23    51    1
    56    28    52    1
    57    28    53    1
    58    28    54    1
    59    30    55    1
