@<TRIPOS>MOLECULE
*****
 36 38 0 0 0
SMALL
GASTEIGER

@<TRIPOS>ATOM
      1 CL          2.1670   -2.6283    2.4852 Cl      1  UNL1       -0.0755
      2 C           2.1252   -0.9810    2.8851 C.ar    1  UNL1        0.0834
      3 C           1.2149    0.0950    2.5001 C.ar    1  UNL1        0.0036
      4 C           0.0679   -0.0755    1.5865 C.3     1  UNL1        0.0754
      5 O           0.4409   -0.0816    0.2571 O.3     1  UNL1       -0.3655
      6 C          -0.6547   -0.1536   -0.5964 C.3     1  UNL1        0.1032
      7 C          -0.4632   -1.2157   -1.5956 C.3     1  UNL1        0.0546
      8 N          -0.3120   -2.5073   -0.9803 N.ar    1  UNL1       -0.3340
      9 C          -1.2994   -3.3667   -0.6681 C.ar    1  UNL1        0.0241
     10 C          -0.8315   -4.5345   -0.1087 C.ar    1  UNL1        0.0454
     11 N           0.5000   -4.3672   -0.0840 N.ar    1  UNL1       -0.2441
     12 C           0.7954   -3.1673   -0.6003 C.ar    1  UNL1        0.0960
     13 C          -0.7307    1.2222   -1.2218 C.ar    1  UNL1        0.0012
     14 C          -1.9367    1.7562   -1.6316 C.ar    1  UNL1        0.0480
     15 CL         -3.3824    0.7950   -1.4117 Cl      1  UNL1       -0.0831
     16 C          -2.0455    3.0096   -2.2048 C.ar    1  UNL1       -0.0247
     17 C          -0.9027    3.7591   -2.3750 C.ar    1  UNL1        0.0424
     18 CL         -0.9253    5.3592   -3.0892 Cl      1  UNL1       -0.0835
     19 C           0.3105    3.2778   -1.9882 C.ar    1  UNL1       -0.0430
     20 C           0.3953    2.0267   -1.4195 C.ar    1  UNL1       -0.0533
     21 C           1.4961    1.3148    3.0436 C.ar    1  UNL1       -0.0479
     22 C           2.5820    1.4941    3.9023 C.ar    1  UNL1       -0.0226
     23 S           3.3089   -0.2440    3.9693 S.2     1  UNL1       -0.0849
     24 H          -0.4784   -1.0293    1.8330 H       1  UNL1        0.0611
     25 H          -0.6934    0.7155    1.7223 H       1  UNL1        0.0611
     26 H          -1.5473   -0.2563    0.0697 H       1  UNL1        0.0665
     27 H           0.4911   -1.0765   -2.1955 H       1  UNL1        0.0521
     28 H          -1.2329   -1.2262   -2.4067 H       1  UNL1        0.0521
     29 H          -2.3579   -3.1536   -0.8429 H       1  UNL1        0.0825
     30 H          -1.4103   -5.3917    0.2322 H       1  UNL1        0.0845
     31 H           1.8000   -2.7673   -0.7032 H       1  UNL1        0.1029
     32 H          -2.9771    3.4462   -2.5325 H       1  UNL1        0.0647
     33 H           1.2678    3.7689   -2.0698 H       1  UNL1        0.0632
     34 H           1.3209    1.5427   -1.0723 H       1  UNL1        0.0622
     35 H           0.9441    2.2260    2.8804 H       1  UNL1        0.0627
     36 H           2.9534    2.4146    4.4312 H       1  UNL1        0.0694
@<TRIPOS>BOND
     1     1     2    1
     2     2     3   ar
     3     3     4    1
     4     4     5    1
     5     5     6    1
     6     6     7    1
     7     7     8    1
     8     8     9   ar
     9     9    10   ar
    10    10    11   ar
    11    11    12   ar
    12     6    13    1
    13    13    14   ar
    14    14    15    1
    15    14    16   ar
    16    16    17   ar
    17    17    18    1
    18    17    19   ar
    19    19    20   ar
    20     3    21   ar
    21    21    22   ar
    22    22    23   ar
    23    23     2   ar
    24    12     8   ar
    25    20    13   ar
    26     4    24    1
    27     4    25    1
    28     6    26    1
    29     7    27    1
    30     7    28    1
    31     9    29    1
    32    10    30    1
    33    12    31    1
    34    16    32    1
    35    19    33    1
    36    20    34    1
    37    21    35    1
    38    22    36    1
