@<TRIPOS>MOLECULE
*****
 40 42 0 0 0
SMALL
GASTEIGER

@<TRIPOS>ATOM
      1 O           3.8766   -3.6164    1.9232 O.2     1  UNL1       -0.1498
      2 S           4.0020   -2.2258    1.3821 S.O2    1  UNL1        0.0766
      3 O           4.8407   -1.4506    2.3647 O.2     1  UNL1       -0.1498
      4 N           4.7774   -2.2832   -0.1334 N.pl3   1  UNL1       -0.1937
      5 C           5.1202   -1.0990   -0.8660 C.ar    1  UNL1        0.1774
      6 N           5.6042   -0.7230   -1.8334 N.ar    1  UNL1       -0.2321
      7 C           5.8037    0.4956   -2.2870 C.ar    1  UNL1        0.0369
      8 C           5.3579    1.4710   -1.4643 C.ar    1  UNL1       -0.0030
      9 S           4.6662    0.5922   -0.0645 S.2     1  UNL1       -0.0594
     10 C           2.4272   -1.4542    1.2364 C.ar    1  UNL1        0.1450
     11 C           2.1021   -0.3149    1.9232 C.ar    1  UNL1       -0.0121
     12 C           0.8827    0.3113    1.8313 C.ar    1  UNL1        0.0638
     13 CL          0.4678    1.7612    2.7048 Cl      1  UNL1       -0.0816
     14 C          -0.0846   -0.2402    0.9915 C.ar    1  UNL1        0.0486
     15 N          -1.3586    0.3766    0.8679 N.pl3   1  UNL1       -0.3401
     16 C          -2.3304   -0.2126   -0.0015 C.3     1  UNL1        0.0376
     17 C          -3.6241    0.5562   -0.0231 C.3     1  UNL1        0.0973
     18 C          -3.4615    1.9491   -0.5681 C.3     1  UNL1        0.0754
     19 O          -4.5497    2.3486   -1.3507 O.3     1  UNL1       -0.3749
     20 C          -5.7433    1.9162   -0.8081 C.3     1  UNL1        0.0711
     21 C          -5.7509    0.4034   -0.8710 C.3     1  UNL1        0.0715
     22 O          -4.4790   -0.1341   -0.9137 O.3     1  UNL1       -0.3705
     23 C           0.2281   -1.3761    0.3015 C.ar    1  UNL1       -0.0022
     24 C           1.4670   -1.9929    0.4091 C.ar    1  UNL1        0.1517
     25 F           1.7736   -3.1273   -0.2825 F       1  UNL1       -0.2034
     26 H           5.0266   -3.1847   -0.5747 H       1  UNL1        0.1758
     27 H           6.2912    0.7022   -3.2524 H       1  UNL1        0.0835
     28 H           5.3847    2.6202   -1.5763 H       1  UNL1        0.0710
     29 H           2.8530    0.1063    2.5701 H       1  UNL1        0.0653
     30 H          -1.5615    1.2455    1.4120 H       1  UNL1        0.1462
     31 H          -2.5773   -1.2398    0.3658 H       1  UNL1        0.0487
     32 H          -1.9288   -0.3187   -1.0209 H       1  UNL1        0.0487
     33 H          -4.1024    0.5389    0.9641 H       1  UNL1        0.0635
     34 H          -2.5543    1.9830   -1.2331 H       1  UNL1        0.0586
     35 H          -3.3469    2.7094    0.2202 H       1  UNL1        0.0586
     36 H          -5.8483    2.3084    0.2081 H       1  UNL1        0.0583
     37 H          -6.5659    2.3341   -1.4345 H       1  UNL1        0.0583
     38 H          -6.3169   -0.0026   -0.0130 H       1  UNL1        0.0583
     39 H          -6.2595    0.0969   -1.8191 H       1  UNL1        0.0583
     40 H          -0.5088   -1.8301   -0.3630 H       1  UNL1        0.0666
@<TRIPOS>BOND
     1     1     2    2
     2     2     3    2
     3     2     4    1
     4     4     5    1
     5     5     6   ar
     6     6     7   ar
     7     7     8   ar
     8     8     9   ar
     9     2    10    1
    10    10    11   ar
    11    11    12   ar
    12    12    13    1
    13    12    14   ar
    14    14    15    1
    15    15    16    1
    16    16    17    1
    17    17    18    1
    18    18    19    1
    19    19    20    1
    20    20    21    1
    21    21    22    1
    22    14    23   ar
    23    23    24   ar
    24    24    25    1
    25     9     5   ar
    26    24    10   ar
    27    22    17    1
    28     4    26    1
    29     7    27    1
    30     8    28    1
    31    11    29    1
    32    15    30    1
    33    16    31    1
    34    16    32    1
    35    17    33    1
    36    18    34    1
    37    18    35    1
    38    20    36    1
    39    20    37    1
    40    21    38    1
    41    21    39    1
    42    23    40    1
