@<TRIPOS>MOLECULE
*****
 58 62 0 0 0
SMALL
GASTEIGER

@<TRIPOS>ATOM
      1 C          -2.9520    3.9927    0.5523 C.3     1  UNL1       -0.0394
      2 C          -3.1482    2.5521    0.3513 C.ar    1  UNL1       -0.0467
      3 C          -2.1481    1.6637    0.7373 C.ar    1  UNL1       -0.0443
      4 C          -2.3234    0.3058    0.5522 C.ar    1  UNL1        0.0642
      5 C          -1.3161   -0.6678    0.9349 C.2     1  UNL1        0.2491
      6 O          -1.3684   -1.1382    2.0965 O.2     1  UNL1       -0.2699
      7 N          -0.2844   -1.1155    0.0807 N.am    1  UNL1       -0.2897
      8 C          -0.1470   -0.6262   -1.2777 C.3     1  UNL1        0.0388
      9 C          -0.1270   -1.8489   -2.1693 C.3     1  UNL1        0.0635
     10 O           0.8988   -2.7012   -1.8343 O.3     1  UNL1       -0.3764
     11 C           1.6261   -2.3327   -0.7121 C.3     1  UNL1        0.0666
     12 C           0.7028   -2.0915    0.4878 C.3     1  UNL1        0.0537
     13 C           1.5651   -1.6484    1.6361 C.3     1  UNL1       -0.0068
     14 C           2.3257   -0.4213    1.3115 C.ar    1  UNL1       -0.0435
     15 C           1.7873    0.8325    1.5600 C.ar    1  UNL1       -0.0584
     16 C           2.5256    1.9708    1.2533 C.ar    1  UNL1       -0.0594
     17 C           3.7773    1.8565    0.7091 C.ar    1  UNL1       -0.0345
     18 C           4.3200    0.6138    0.4590 C.ar    1  UNL1        0.0864
     19 N           5.6246    0.4522   -0.1088 N.ar    1  UNL1       -0.1503
     20 N           6.5519   -0.4256    0.2268 N.ar    1  UNL1       -0.1556
     21 C           7.6469   -0.2705   -0.5313 C.ar    1  UNL1        0.0697
     22 C           7.3819    0.7676   -1.3901 C.ar    1  UNL1        0.0697
     23 N           6.1442    1.1722   -1.0949 N.ar    1  UNL1       -0.1556
     24 C           3.6031   -0.5011    0.7566 C.ar    1  UNL1       -0.0313
     25 C          -3.5199   -0.1304   -0.0258 C.ar    1  UNL1        0.0985
     26 N          -3.6790   -1.5169   -0.2056 N.ar    1  UNL1       -0.1496
     27 N          -2.9958   -2.4986    0.3328 N.ar    1  UNL1       -0.1556
     28 C          -3.4513   -3.6782   -0.0881 C.ar    1  UNL1        0.0697
     29 C          -4.4916   -3.4061   -0.9491 C.ar    1  UNL1        0.0697
     30 N          -4.5911   -2.0704   -0.9872 N.ar    1  UNL1       -0.1556
     31 C          -4.5085    0.7609   -0.4062 C.ar    1  UNL1       -0.0306
     32 C          -4.3254    2.1158   -0.2179 C.ar    1  UNL1       -0.0454
     33 C          -5.3396    3.1094   -0.6021 C.3     1  UNL1       -0.0394
     34 H          -3.8254    4.4887    1.0375 H       1  UNL1        0.0278
     35 H          -2.6930    4.5374   -0.3763 H       1  UNL1        0.0278
     36 H          -2.0954    4.1705    1.2639 H       1  UNL1        0.0278
     37 H          -1.2330    2.0121    1.1805 H       1  UNL1        0.0628
     38 H          -0.9582    0.0753   -1.5512 H       1  UNL1        0.0487
     39 H           0.7951   -0.0313   -1.4202 H       1  UNL1        0.0487
     40 H          -0.1218   -1.5728   -3.2430 H       1  UNL1        0.0575
     41 H          -1.0847   -2.4125   -1.9638 H       1  UNL1        0.0575
     42 H           2.1884   -1.4381   -0.9787 H       1  UNL1        0.0578
     43 H           2.3118   -3.1569   -0.4314 H       1  UNL1        0.0578
     44 H           0.1966   -3.0573    0.7033 H       1  UNL1        0.0526
     45 H           2.2744   -2.4856    1.8389 H       1  UNL1        0.0332
     46 H           0.9134   -1.4968    2.5235 H       1  UNL1        0.0332
     47 H           0.8073    0.9719    1.9891 H       1  UNL1        0.0620
     48 H           2.0861    2.9328    1.4554 H       1  UNL1        0.0618
     49 H           4.3270    2.7580    0.4814 H       1  UNL1        0.0639
     50 H           8.5789   -0.8411   -0.4959 H       1  UNL1        0.0864
     51 H           8.0417    1.1569   -2.1336 H       1  UNL1        0.0864
     52 H           4.0319   -1.4858    0.5589 H       1  UNL1        0.0642
     53 H          -3.0919   -4.6619    0.1794 H       1  UNL1        0.0864
     54 H          -5.0772   -4.1539   -1.4642 H       1  UNL1        0.0864
     55 H          -5.4192    0.3867   -0.8494 H       1  UNL1        0.0642
     56 H          -4.8445    3.9080   -1.2292 H       1  UNL1        0.0278
     57 H          -6.1427    2.6975   -1.2330 H       1  UNL1        0.0278
     58 H          -5.7299    3.6219    0.2894 H       1  UNL1        0.0278
@<TRIPOS>BOND
     1     1     2    1
     2     2     3   ar
     3     3     4   ar
     4     4     5    1
     5     5     6    2
     6     5     7   am
     7     7     8    1
     8     8     9    1
     9     9    10    1
    10    10    11    1
    11    11    12    1
    12    12    13    1
    13    13    14    1
    14    14    15   ar
    15    15    16   ar
    16    16    17   ar
    17    17    18   ar
    18    18    19    1
    19    19    20   ar
    20    20    21   ar
    21    21    22   ar
    22    22    23   ar
    23    18    24   ar
    24     4    25   ar
    25    25    26    1
    26    26    27   ar
    27    27    28   ar
    28    28    29   ar
    29    29    30   ar
    30    25    31   ar
    31    31    32   ar
    32    32    33    1
    33    32     2   ar
    34    12     7    1
    35    24    14   ar
    36    30    26   ar
    37    23    19   ar
    38     1    34    1
    39     1    35    1
    40     1    36    1
    41     3    37    1
    42     8    38    1
    43     8    39    1
    44     9    40    1
    45     9    41    1
    46    11    42    1
    47    11    43    1
    48    12    44    1
    49    13    45    1
    50    13    46    1
    51    15    47    1
    52    16    48    1
    53    17    49    1
    54    21    50    1
    55    22    51    1
    56    24    52    1
    57    28    53    1
    58    29    54    1
    59    31    55    1
    60    33    56    1
    61    33    57    1
    62    33    58    1
