
     RDKit          3D

 52 55  0  0  0  0  0  0  0  0999 V2000
   -2.5607    3.0085   -1.9179 C   0  0  0  0  0  0  0  0  0  0  0  0
   -3.4833    2.0083   -1.7242 O   0  0  0  0  0  0  0  0  0  0  0  0
   -3.0947    0.6853   -1.3255 C   0  0  0  0  0  0  0  0  0  0  0  0
   -1.7643    0.4235   -1.1021 C   0  0  0  0  0  0  0  0  0  0  0  0
   -1.3281   -0.8619   -0.6706 C   0  0  0  0  0  0  0  0  0  0  0  0
   -0.0161   -1.0964   -0.2094 N   0  0  0  0  0  0  0  0  0  0  0  0
    0.7903   -0.0731    0.2966 C   0  0  0  0  0  0  0  0  0  0  0  0
    0.2688    1.2071    0.6382 C   0  0  0  0  0  0  0  0  0  0  0  0
    1.0350    2.1802    0.9639 N   0  0  0  0  0  0  0  0  0  0  0  0
    2.4718    2.0733    1.0252 C   0  0  0  0  0  0  0  0  0  0  0  0
    3.2029    3.1649    1.0809 C   0  0  0  0  0  0  0  0  0  0  0  0
    3.9579    4.3173    1.1195 N   0  0  0  0  0  0  0  0  0  0  0  0
    2.8270    0.8021    0.6972 C   0  0  0  0  0  0  0  0  0  0  0  0
    4.2984    0.6670    0.8193 O   0  0  0  0  0  0  0  0  0  0  0  0
    4.8889   -0.6073    0.6345 C   0  0  2  0  0  0  0  0  0  0  0  0
    4.4254   -1.4950    1.8587 C   0  0  0  0  0  0  0  0  0  0  0  0
    5.4636   -2.5750    1.7913 C   0  0  0  0  0  0  0  0  0  0  0  0
    6.7246   -1.8722    1.5158 N   0  0  0  0  0  0  0  0  0  0  0  0
    7.5083   -1.8424    2.7111 C   0  0  0  0  0  0  0  0  0  0  0  0
    6.3814   -0.5361    1.0475 C   0  0  0  0  0  0  0  0  0  0  0  0
    2.1627   -0.2748    0.3407 N   0  0  0  0  0  0  0  0  0  0  0  0
   -2.2925   -1.8132   -0.5274 N   0  0  0  0  0  0  0  0  0  0  0  0
   -3.5672   -1.5373   -0.7674 C   0  0  0  0  0  0  0  0  0  0  0  0
   -4.0267   -0.2506   -1.1774 C   0  0  0  0  0  0  0  0  0  0  0  0
   -5.4684   -0.1196   -1.2659 C   0  0  0  0  0  0  0  0  0  0  0  0
   -6.3062   -0.7891   -0.3032 C   0  0  0  0  0  0  0  0  0  0  0  0
   -7.5380   -0.5048   -0.6497 N   0  0  0  0  0  0  0  0  0  0  0  0
   -7.5789    0.2739   -1.7364 N   0  0  0  0  0  0  0  0  0  0  0  0
   -8.8217    0.6862   -2.3332 C   0  0  0  0  0  0  0  0  0  0  0  0
   -6.2937    0.5180   -2.1137 C   0  0  0  0  0  0  0  0  0  0  0  0
   -1.5677    2.7279   -1.5963 H   0  0  0  0  0  0  0  0  0  0  0  0
   -2.8570    4.0246   -1.4964 H   0  0  0  0  0  0  0  0  0  0  0  0
   -2.5067    3.1305   -3.0750 H   0  0  0  0  0  0  0  0  0  0  0  0
   -1.0468    1.1503   -1.3364 H   0  0  0  0  0  0  0  0  0  0  0  0
    0.3453   -2.0929   -0.2411 H   0  0  0  0  0  0  0  0  0  0  0  0
   -0.8049    1.3341    0.7302 H   0  0  0  0  0  0  0  0  0  0  0  0
    4.6702   -1.2084   -0.1994 H   0  0  0  0  0  0  0  0  0  0  0  0
    3.4186   -1.8471    1.6922 H   0  0  0  0  0  0  0  0  0  0  0  0
    4.5782   -0.9242    2.7610 H   0  0  0  0  0  0  0  0  0  0  0  0
    5.5289   -3.2155    2.6942 H   0  0  0  0  0  0  0  0  0  0  0  0
    5.2103   -3.1845    0.8674 H   0  0  0  0  0  0  0  0  0  0  0  0
    6.8101   -1.9753    3.5686 H   0  0  0  0  0  0  0  0  0  0  0  0
    8.2997   -2.6258    2.7275 H   0  0  0  0  0  0  0  0  0  0  0  0
    7.9495   -0.7993    2.7461 H   0  0  0  0  0  0  0  0  0  0  0  0
    6.4365    0.1760    1.8846 H   0  0  0  0  0  0  0  0  0  0  0  0
    7.0253   -0.1942    0.1931 H   0  0  0  0  0  0  0  0  0  0  0  0
   -4.3712   -2.3149   -0.6901 H   0  0  0  0  0  0  0  0  0  0  0  0
   -5.9240   -1.3761    0.5129 H   0  0  0  0  0  0  0  0  0  0  0  0
   -8.6868    0.9287   -3.4258 H   0  0  0  0  0  0  0  0  0  0  0  0
   -9.2339    1.5358   -1.7904 H   0  0  0  0  0  0  0  0  0  0  0  0
   -9.5408   -0.1860   -2.2703 H   0  0  0  0  0  0  0  0  0  0  0  0
   -5.9995    1.1696   -2.9734 H   0  0  0  0  0  0  0  0  0  0  0  0
  1  2  1  0
  2  3  1  0
  3  4  2  0
  4  5  1  0
  5  6  1  0
  6  7  1  0
  7  8  2  0
  8  9  1  0
  9 10  2  0
 10 11  1  0
 11 12  3  0
 10 13  1  0
 13 14  1  0
 14 15  1  0
 15 16  1  0
 16 17  1  0
 17 18  1  0
 18 19  1  0
 18 20  1  0
 13 21  2  0
  5 22  2  0
 22 23  1  0
 23 24  2  0
 24 25  1  0
 25 26  1  0
 26 27  2  0
 27 28  1  0
 28 29  1  0
 28 30  1  0
 24  3  1  0
 30 25  2  0
 21  7  1  0
 20 15  1  0
  1 31  1  0
  1 32  1  0
  1 33  1  0
  4 34  1  0
  6 35  1  0
  8 36  1  0
 15 37  1  6
 16 38  1  0
 16 39  1  0
 17 40  1  0
 17 41  1  0
 19 42  1  0
 19 43  1  0
 19 44  1  0
 20 45  1  0
 20 46  1  0
 23 47  1  0
 26 48  1  0
 29 49  1  0
 29 50  1  0
 29 51  1  0
 30 52  1  0
M  END
$$$$
