@<TRIPOS>MOLECULE
*****
 52 55 0 0 0
SMALL
GASTEIGER

@<TRIPOS>ATOM
      1 C          -2.5607    3.0085   -1.9179 C.3     1  UNL1        0.0788
      2 O          -3.4833    2.0083   -1.7242 O.3     1  UNL1       -0.4943
      3 C          -3.0947    0.6853   -1.3255 C.ar    1  UNL1        0.1326
      4 C          -1.7643    0.4235   -1.1021 C.ar    1  UNL1        0.0208
      5 C          -1.3281   -0.8619   -0.6706 C.ar    1  UNL1        0.1275
      6 N          -0.0161   -1.0964   -0.2094 N.pl3   1  UNL1       -0.2830
      7 C           0.7903   -0.0731    0.2966 C.ar    1  UNL1        0.1462
      8 C           0.2688    1.2071    0.6382 C.ar    1  UNL1        0.0693
      9 N           1.0350    2.1802    0.9639 N.ar    1  UNL1       -0.2364
     10 C           2.4718    2.0733    1.0252 C.ar    1  UNL1        0.2019
     11 C           3.2029    3.1649    1.0809 C.1     1  UNL1        0.1246
     12 N           3.9579    4.3173    1.1195 N.1     1  UNL1       -0.1891
     13 C           2.8270    0.8021    0.6972 C.ar    1  UNL1        0.2539
     14 O           4.2984    0.6670    0.8193 O.3     1  UNL1       -0.4698
     15 C           4.8889   -0.6073    0.6345 C.3     1  UNL1        0.1157
     16 C           4.4254   -1.4950    1.8587 C.3     1  UNL1       -0.0017
     17 C           5.4636   -2.5750    1.7913 C.3     1  UNL1        0.0021
     18 N           6.7246   -1.8722    1.5158 N.3     1  UNL1       -0.3017
     19 C           7.5083   -1.8424    2.7111 C.3     1  UNL1       -0.0126
     20 C           6.3814   -0.5361    1.0475 C.3     1  UNL1        0.0358
     21 N           2.1627   -0.2748    0.3407 N.ar    1  UNL1       -0.1938
     22 N          -2.2925   -1.8132   -0.5274 N.ar    1  UNL1       -0.2393
     23 C          -3.5672   -1.5373   -0.7674 C.ar    1  UNL1        0.0410
     24 C          -4.0267   -0.2506   -1.1774 C.ar    1  UNL1        0.0449
     25 C          -5.4684   -0.1196   -1.2659 C.ar    1  UNL1        0.0245
     26 C          -6.3062   -0.7891   -0.3032 C.ar    1  UNL1        0.0572
     27 N          -7.5380   -0.5048   -0.6497 N.ar    1  UNL1       -0.1793
     28 N          -7.5789    0.2739   -1.7364 N.ar    1  UNL1       -0.2739
     29 C          -8.8217    0.6862   -2.3332 C.3     1  UNL1        0.0302
     30 C          -6.2937    0.5180   -2.1137 C.ar    1  UNL1        0.0330
     31 H          -1.5677    2.7279   -1.5963 H       1  UNL1        0.0660
     32 H          -2.8570    4.0246   -1.4964 H       1  UNL1        0.0660
     33 H          -2.5067    3.1305   -3.0750 H       1  UNL1        0.0660
     34 H          -1.0468    1.1503   -1.3364 H       1  UNL1        0.0689
     35 H           0.3453   -2.0929   -0.2411 H       1  UNL1        0.1550
     36 H          -0.8049    1.3341    0.7302 H       1  UNL1        0.0865
     37 H           4.6702   -1.2084   -0.1994 H       1  UNL1        0.0747
     38 H           3.4186   -1.8471    1.6922 H       1  UNL1        0.0314
     39 H           4.5782   -0.9242    2.7610 H       1  UNL1        0.0314
     40 H           5.5289   -3.2155    2.6942 H       1  UNL1        0.0428
     41 H           5.2103   -3.1845    0.8674 H       1  UNL1        0.0428
     42 H           6.8101   -1.9753    3.5686 H       1  UNL1        0.0391
     43 H           8.2997   -2.6258    2.7275 H       1  UNL1        0.0391
     44 H           7.9495   -0.7993    2.7461 H       1  UNL1        0.0391
     45 H           6.4365    0.1760    1.8846 H       1  UNL1        0.0463
     46 H           7.0253   -0.1942    0.1931 H       1  UNL1        0.0463
     47 H          -4.3712   -2.3149   -0.6901 H       1  UNL1        0.0837
     48 H          -5.9240   -1.3761    0.5129 H       1  UNL1        0.0854
     49 H          -8.6868    0.9287   -3.4258 H       1  UNL1        0.0473
     50 H          -9.2339    1.5358   -1.7904 H       1  UNL1        0.0473
     51 H          -9.5408   -0.1860   -2.2703 H       1  UNL1        0.0473
     52 H          -5.9995    1.1696   -2.9734 H       1  UNL1        0.0832
@<TRIPOS>BOND
     1     1     2    1
     2     2     3    1
     3     3     4   ar
     4     4     5   ar
     5     5     6    1
     6     6     7    1
     7     7     8   ar
     8     8     9   ar
     9     9    10   ar
    10    10    11    1
    11    11    12    3
    12    10    13   ar
    13    13    14    1
    14    14    15    1
    15    15    16    1
    16    16    17    1
    17    17    18    1
    18    18    19    1
    19    18    20    1
    20    13    21   ar
    21     5    22   ar
    22    22    23   ar
    23    23    24   ar
    24    24    25    1
    25    25    26   ar
    26    26    27   ar
    27    27    28   ar
    28    28    29    1
    29    28    30   ar
    30    24     3   ar
    31    30    25   ar
    32    21     7   ar
    33    20    15    1
    34     1    31    1
    35     1    32    1
    36     1    33    1
    37     4    34    1
    38     6    35    1
    39     8    36    1
    40    15    37    1
    41    16    38    1
    42    16    39    1
    43    17    40    1
    44    17    41    1
    45    19    42    1
    46    19    43    1
    47    19    44    1
    48    20    45    1
    49    20    46    1
    50    23    47    1
    51    26    48    1
    52    29    49    1
    53    29    50    1
    54    29    51    1
    55    30    52    1
