@<TRIPOS>MOLECULE
*****
 58 62 0 0 0
SMALL
GASTEIGER

@<TRIPOS>ATOM
      1 N           4.1568   -2.9313    1.7783 N.pl3   1  UNL1       -0.3565
      2 C           5.0961   -2.1039    1.1256 C.ar    1  UNL1        0.0461
      3 C           6.4544   -2.1578    1.3973 C.ar    1  UNL1       -0.0387
      4 C           7.3435   -1.3139    0.7207 C.ar    1  UNL1       -0.0522
      5 C           6.8589   -0.4364   -0.2102 C.ar    1  UNL1       -0.0155
      6 C           7.7925    0.4944   -0.9598 C.ar    1  UNL1       -0.0108
      7 C           7.4308    1.7115   -1.3837 C.ar    1  UNL1       -0.0470
      8 C           8.3093    2.5163   -2.0494 C.ar    1  UNL1       -0.0237
      9 S           9.8000    1.4978   -2.1047 S.2     1  UNL1       -0.1045
     10 C           9.0992    0.0886   -1.2278 C.ar    1  UNL1       -0.0166
     11 C           5.5110   -0.4021   -0.4613 C.ar    1  UNL1       -0.0309
     12 C           4.6215   -1.2226    0.1924 C.ar    1  UNL1        0.0551
     13 N           3.2459   -1.1473   -0.1033 N.am    1  UNL1       -0.2799
     14 C           2.4725   -0.2351    0.6621 C.2     1  UNL1        0.2498
     15 O           3.0325    0.4571    1.5559 O.2     1  UNL1       -0.2698
     16 C           1.0245   -0.0775    0.4358 C.ar    1  UNL1        0.0552
     17 C           0.3313   -0.7884   -0.4994 C.ar    1  UNL1       -0.0449
     18 C          -1.0269   -0.5664   -0.6338 C.ar    1  UNL1       -0.0210
     19 C          -1.6985    0.3453    0.1430 C.ar    1  UNL1        0.1212
     20 N          -3.0782    0.5894    0.0282 N.pl3   1  UNL1       -0.3151
     21 C          -3.7934    1.5541    0.8250 C.3     1  UNL1        0.0140
     22 C          -5.1112    0.9712    1.3093 C.3     1  UNL1       -0.0303
     23 C          -5.9437    0.5592    0.1257 C.3     1  UNL1       -0.0128
     24 C          -7.0868    1.5488   -0.1188 C.3     1  UNL1       -0.0335
     25 C          -8.0534    0.6747   -0.8901 C.3     1  UNL1       -0.0035
     26 N          -7.9618   -0.6267   -0.2997 N.3     1  UNL1       -0.3154
     27 C          -6.7108   -0.7167    0.3880 C.3     1  UNL1        0.0017
     28 C          -5.1624    0.4399   -1.1416 C.3     1  UNL1       -0.0303
     29 C          -3.8181   -0.1810   -0.9524 C.3     1  UNL1        0.0140
     30 N          -0.9771    1.0206    1.0485 N.ar    1  UNL1       -0.2396
     31 C           0.3305    0.8387    1.2114 C.ar    1  UNL1        0.0418
     32 H           4.1504   -3.9473    1.6011 H       1  UNL1        0.1424
     33 H           3.4783   -2.5142    2.4324 H       1  UNL1        0.1424
     34 H           6.8350   -2.8388    2.1213 H       1  UNL1        0.0637
     35 H           8.4077   -1.3553    0.9324 H       1  UNL1        0.0624
     36 H           6.3920    2.1382   -1.2179 H       1  UNL1        0.0629
     37 H           8.2242    3.4907   -2.4590 H       1  UNL1        0.0693
     38 H           9.6260   -0.8579   -0.9828 H       1  UNL1        0.0699
     39 H           5.1753    0.3227   -1.2198 H       1  UNL1        0.0643
     40 H           2.8115   -1.7356   -0.8528 H       1  UNL1        0.1552
     41 H           0.8396   -1.5112   -1.1216 H       1  UNL1        0.0627
     42 H          -1.5416   -1.1502   -1.3870 H       1  UNL1        0.0652
     43 H          -4.0637    2.4023    0.1501 H       1  UNL1        0.0464
     44 H          -3.2145    1.8954    1.7093 H       1  UNL1        0.0464
     45 H          -5.6143    1.7346    1.9451 H       1  UNL1        0.0286
     46 H          -4.9020    0.0451    1.9194 H       1  UNL1        0.0286
     47 H          -6.7318    2.3971   -0.7423 H       1  UNL1        0.0283
     48 H          -7.5460    1.8831    0.8317 H       1  UNL1        0.0283
     49 H          -7.6910    0.6396   -1.9505 H       1  UNL1        0.0424
     50 H          -9.0788    1.0903   -0.8987 H       1  UNL1        0.0424
     51 H          -7.9862   -1.3819   -1.0241 H       1  UNL1        0.1220
     52 H          -6.1322   -1.6285    0.1095 H       1  UNL1        0.0429
     53 H          -6.8484   -0.7737    1.4965 H       1  UNL1        0.0429
     54 H          -5.7223   -0.2038   -1.8708 H       1  UNL1        0.0286
     55 H          -5.0654    1.4400   -1.6094 H       1  UNL1        0.0286
     56 H          -3.2682   -0.1567   -1.9145 H       1  UNL1        0.0464
     57 H          -3.8954   -1.2336   -0.6376 H       1  UNL1        0.0464
     58 H           0.8729    1.4093    1.9584 H       1  UNL1        0.0838
@<TRIPOS>BOND
     1     1     2    1
     2     2     3   ar
     3     3     4   ar
     4     4     5   ar
     5     5     6    1
     6     6     7   ar
     7     7     8   ar
     8     8     9   ar
     9     9    10   ar
    10     5    11   ar
    11    11    12   ar
    12    12    13    1
    13    13    14   am
    14    14    15    2
    15    14    16    1
    16    16    17   ar
    17    17    18   ar
    18    18    19   ar
    19    19    20    1
    20    20    21    1
    21    21    22    1
    22    22    23    1
    23    23    24    1
    24    24    25    1
    25    25    26    1
    26    26    27    1
    27    23    28    1
    28    28    29    1
    29    19    30   ar
    30    30    31   ar
    31    12     2   ar
    32    31    16   ar
    33    10     6   ar
    34    29    20    1
    35    27    23    1
    36     1    32    1
    37     1    33    1
    38     3    34    1
    39     4    35    1
    40     7    36    1
    41     8    37    1
    42    10    38    1
    43    11    39    1
    44    13    40    1
    45    17    41    1
    46    18    42    1
    47    21    43    1
    48    21    44    1
    49    22    45    1
    50    22    46    1
    51    24    47    1
    52    24    48    1
    53    25    49    1
    54    25    50    1
    55    26    51    1
    56    27    52    1
    57    27    53    1
    58    28    54    1
    59    28    55    1
    60    29    56    1
    61    29    57    1
    62    31    58    1
