
     RDKit          3D

 58 62  0  0  0  0  0  0  0  0999 V2000
    4.1568   -2.9313    1.7783 N   0  0  0  0  0  0  0  0  0  0  0  0
    5.0961   -2.1039    1.1256 C   0  0  0  0  0  0  0  0  0  0  0  0
    6.4544   -2.1578    1.3973 C   0  0  0  0  0  0  0  0  0  0  0  0
    7.3435   -1.3139    0.7207 C   0  0  0  0  0  0  0  0  0  0  0  0
    6.8589   -0.4364   -0.2102 C   0  0  0  0  0  0  0  0  0  0  0  0
    7.7925    0.4944   -0.9598 C   0  0  0  0  0  0  0  0  0  0  0  0
    7.4308    1.7115   -1.3837 C   0  0  0  0  0  0  0  0  0  0  0  0
    8.3093    2.5163   -2.0494 C   0  0  0  0  0  0  0  0  0  0  0  0
    9.8000    1.4978   -2.1047 S   0  0  0  0  0  0  0  0  0  0  0  0
    9.0992    0.0886   -1.2278 C   0  0  0  0  0  0  0  0  0  0  0  0
    5.5110   -0.4021   -0.4613 C   0  0  0  0  0  0  0  0  0  0  0  0
    4.6215   -1.2226    0.1924 C   0  0  0  0  0  0  0  0  0  0  0  0
    3.2459   -1.1473   -0.1033 N   0  0  0  0  0  0  0  0  0  0  0  0
    2.4725   -0.2351    0.6621 C   0  0  0  0  0  0  0  0  0  0  0  0
    3.0325    0.4571    1.5559 O   0  0  0  0  0  0  0  0  0  0  0  0
    1.0245   -0.0775    0.4358 C   0  0  0  0  0  0  0  0  0  0  0  0
    0.3313   -0.7884   -0.4994 C   0  0  0  0  0  0  0  0  0  0  0  0
   -1.0269   -0.5664   -0.6338 C   0  0  0  0  0  0  0  0  0  0  0  0
   -1.6985    0.3453    0.1430 C   0  0  0  0  0  0  0  0  0  0  0  0
   -3.0782    0.5894    0.0282 N   0  0  0  0  0  0  0  0  0  0  0  0
   -3.7934    1.5541    0.8250 C   0  0  0  0  0  0  0  0  0  0  0  0
   -5.1112    0.9712    1.3093 C   0  0  0  0  0  0  0  0  0  0  0  0
   -5.9437    0.5592    0.1257 C   0  0  0  0  0  0  0  0  0  0  0  0
   -7.0868    1.5488   -0.1188 C   0  0  0  0  0  0  0  0  0  0  0  0
   -8.0534    0.6747   -0.8901 C   0  0  0  0  0  0  0  0  0  0  0  0
   -7.9618   -0.6267   -0.2997 N   0  0  0  0  0  0  0  0  0  0  0  0
   -6.7108   -0.7167    0.3880 C   0  0  0  0  0  0  0  0  0  0  0  0
   -5.1624    0.4399   -1.1416 C   0  0  0  0  0  0  0  0  0  0  0  0
   -3.8181   -0.1810   -0.9524 C   0  0  0  0  0  0  0  0  0  0  0  0
   -0.9771    1.0206    1.0485 N   0  0  0  0  0  0  0  0  0  0  0  0
    0.3305    0.8387    1.2114 C   0  0  0  0  0  0  0  0  0  0  0  0
    4.1504   -3.9473    1.6011 H   0  0  0  0  0  0  0  0  0  0  0  0
    3.4783   -2.5142    2.4324 H   0  0  0  0  0  0  0  0  0  0  0  0
    6.8350   -2.8388    2.1213 H   0  0  0  0  0  0  0  0  0  0  0  0
    8.4077   -1.3553    0.9324 H   0  0  0  0  0  0  0  0  0  0  0  0
    6.3920    2.1382   -1.2179 H   0  0  0  0  0  0  0  0  0  0  0  0
    8.2242    3.4907   -2.4590 H   0  0  0  0  0  0  0  0  0  0  0  0
    9.6260   -0.8579   -0.9828 H   0  0  0  0  0  0  0  0  0  0  0  0
    5.1753    0.3227   -1.2198 H   0  0  0  0  0  0  0  0  0  0  0  0
    2.8115   -1.7356   -0.8528 H   0  0  0  0  0  0  0  0  0  0  0  0
    0.8396   -1.5112   -1.1216 H   0  0  0  0  0  0  0  0  0  0  0  0
   -1.5416   -1.1502   -1.3870 H   0  0  0  0  0  0  0  0  0  0  0  0
   -4.0637    2.4023    0.1501 H   0  0  0  0  0  0  0  0  0  0  0  0
   -3.2145    1.8954    1.7093 H   0  0  0  0  0  0  0  0  0  0  0  0
   -5.6143    1.7346    1.9451 H   0  0  0  0  0  0  0  0  0  0  0  0
   -4.9020    0.0451    1.9194 H   0  0  0  0  0  0  0  0  0  0  0  0
   -6.7318    2.3971   -0.7423 H   0  0  0  0  0  0  0  0  0  0  0  0
   -7.5460    1.8831    0.8317 H   0  0  0  0  0  0  0  0  0  0  0  0
   -7.6910    0.6396   -1.9505 H   0  0  0  0  0  0  0  0  0  0  0  0
   -9.0788    1.0903   -0.8987 H   0  0  0  0  0  0  0  0  0  0  0  0
   -7.9862   -1.3819   -1.0241 H   0  0  0  0  0  0  0  0  0  0  0  0
   -6.1322   -1.6285    0.1095 H   0  0  0  0  0  0  0  0  0  0  0  0
   -6.8484   -0.7737    1.4965 H   0  0  0  0  0  0  0  0  0  0  0  0
   -5.7223   -0.2038   -1.8708 H   0  0  0  0  0  0  0  0  0  0  0  0
   -5.0654    1.4400   -1.6094 H   0  0  0  0  0  0  0  0  0  0  0  0
   -3.2682   -0.1567   -1.9145 H   0  0  0  0  0  0  0  0  0  0  0  0
   -3.8954   -1.2336   -0.6376 H   0  0  0  0  0  0  0  0  0  0  0  0
    0.8729    1.4093    1.9584 H   0  0  0  0  0  0  0  0  0  0  0  0
  1  2  1  0
  2  3  2  0
  3  4  1  0
  4  5  2  0
  5  6  1  0
  6  7  1  0
  7  8  2  0
  8  9  1  0
  9 10  1  0
  5 11  1  0
 11 12  2  0
 12 13  1  0
 13 14  1  0
 14 15  2  0
 14 16  1  0
 16 17  2  0
 17 18  1  0
 18 19  2  0
 19 20  1  0
 20 21  1  0
 21 22  1  0
 22 23  1  0
 23 24  1  0
 24 25  1  0
 25 26  1  0
 26 27  1  0
 23 28  1  0
 28 29  1  0
 19 30  1  0
 30 31  2  0
 12  2  1  0
 31 16  1  0
 10  6  2  0
 29 20  1  0
 27 23  1  0
  1 32  1  0
  1 33  1  0
  3 34  1  0
  4 35  1  0
  7 36  1  0
  8 37  1  0
 10 38  1  0
 11 39  1  0
 13 40  1  0
 17 41  1  0
 18 42  1  0
 21 43  1  0
 21 44  1  0
 22 45  1  0
 22 46  1  0
 24 47  1  0
 24 48  1  0
 25 49  1  0
 25 50  1  0
 26 51  1  0
 27 52  1  0
 27 53  1  0
 28 54  1  0
 28 55  1  0
 29 56  1  0
 29 57  1  0
 31 58  1  0
M  END
$$$$
