@<TRIPOS>MOLECULE
*****
 32 34 0 0 0
SMALL
GASTEIGER

@<TRIPOS>ATOM
      1 O          -2.0283   -2.9646    0.2393 O.2     1  UNL1       -0.2830
      2 C          -1.5882   -1.7817    0.1297 C.ar    1  UNL1        0.2379
      3 C          -0.2086   -1.5336    0.1163 C.ar    1  UNL1        0.2082
      4 O           0.5836   -2.6379    0.2276 O.3     1  UNL1       -0.5007
      5 C           0.3386   -0.2900    0.0017 C.ar    1  UNL1        0.1807
      6 C           1.7556    0.0194   -0.0173 C.ar    1  UNL1        0.0247
      7 C           2.1465    1.3589   -0.1423 C.ar    1  UNL1       -0.0473
      8 C           3.4444    1.7774   -0.1725 C.ar    1  UNL1       -0.0159
      9 C           4.4292    0.8386   -0.0756 C.ar    1  UNL1        0.1583
     10 O           5.7541    1.2383   -0.1039 O.3     1  UNL1       -0.5033
     11 C           4.1311   -0.4863    0.0486 C.ar    1  UNL1        0.1589
     12 O           5.1393   -1.4382    0.1470 O.3     1  UNL1       -0.5033
     13 C           2.7867   -0.8663    0.0749 C.ar    1  UNL1       -0.0057
     14 O          -0.5439    0.7083   -0.1001 O.2     1  UNL1       -0.4507
     15 C          -1.8311    0.5566   -0.0952 C.ar    1  UNL1        0.1465
     16 C          -2.6547    1.6563   -0.2063 C.ar    1  UNL1        0.0231
     17 C          -4.0273    1.5161   -0.2031 C.ar    1  UNL1        0.1239
     18 O          -4.8352    2.6191   -0.3144 O.3     1  UNL1       -0.5065
     19 C          -4.5889    0.2456   -0.0861 C.ar    1  UNL1        0.0223
     20 C          -3.7842   -0.8634    0.0258 C.ar    1  UNL1        0.1348
     21 O          -4.3344   -2.1252    0.1421 O.3     1  UNL1       -0.5058
     22 C          -2.4291   -0.6970    0.0200 C.ar    1  UNL1        0.1092
     23 H           0.3426   -3.4819   -0.2677 H       1  UNL1        0.2924
     24 H           1.3777    2.1107   -0.2197 H       1  UNL1        0.0626
     25 H           3.7266    2.8076   -0.2688 H       1  UNL1        0.0655
     26 H           6.0157    2.1472    0.2727 H       1  UNL1        0.2923
     27 H           5.0376   -2.1604    0.8225 H       1  UNL1        0.2923
     28 H           2.6005   -1.9001    0.1722 H       1  UNL1        0.0662
     29 H          -2.2771    2.6652   -0.2998 H       1  UNL1        0.0691
     30 H          -4.5756    3.4492   -0.8367 H       1  UNL1        0.2921
     31 H          -5.6519    0.0867   -0.0788 H       1  UNL1        0.0691
     32 H          -4.2511   -2.5747    1.0481 H       1  UNL1        0.2922
@<TRIPOS>BOND
     1     1     2    2
     2     2     3   ar
     3     3     4    1
     4     3     5   ar
     5     5     6    1
     6     6     7   ar
     7     7     8   ar
     8     8     9   ar
     9     9    10    1
    10     9    11   ar
    11    11    12    1
    12    11    13   ar
    13     5    14   ar
    14    14    15   ar
    15    15    16   ar
    16    16    17   ar
    17    17    18    1
    18    17    19   ar
    19    19    20   ar
    20    20    21    1
    21    20    22   ar
    22    22     2   ar
    23    13     6   ar
    24    22    15   ar
    25     4    23    1
    26     7    24    1
    27     8    25    1
    28    10    26    1
    29    12    27    1
    30    13    28    1
    31    16    29    1
    32    18    30    1
    33    19    31    1
    34    21    32    1
