
     RDKit          3D

 62 66  0  0  0  0  0  0  0  0999 V2000
   -0.2007   -0.8370   -0.8534 C   0  0  2  0  0  0  0  0  0  0  0  0
   -0.9236   -1.3190   -2.0635 C   0  0  0  0  0  0  0  0  0  0  0  0
   -2.3793   -1.1645   -1.6045 C   0  0  0  0  0  0  0  0  0  0  0  0
   -2.3711   -0.0883   -0.5321 C   0  0  2  0  0  0  0  0  0  0  0  0
   -2.8352   -0.6008    0.8000 C   0  0  0  0  0  0  0  0  0  0  0  0
   -4.2582   -1.0565    0.7241 C   0  0  0  0  0  0  0  0  0  0  0  0
   -5.2027    0.0410    0.2989 C   0  0  0  0  0  0  0  0  0  0  0  0
   -5.9832    0.6162    1.4470 C   0  0  0  0  0  0  0  0  0  0  0  0
   -6.1935   -0.4346   -0.7617 C   0  0  0  0  0  0  0  0  0  0  0  0
   -4.4314    1.1419   -0.3353 C   0  0  0  0  0  0  0  0  0  0  0  0
   -4.9233    2.3168   -0.2751 O   0  0  0  0  0  0  0  0  0  0  0  0
   -3.2221    0.9502   -0.9780 O   0  0  0  0  0  0  0  0  0  0  0  0
   -0.9757    0.4389   -0.5049 C   0  0  2  0  0  0  0  0  0  0  0  0
   -0.8234    1.5183   -1.5204 C   0  0  0  0  0  0  0  0  0  0  0  0
   -0.5021    0.8455    0.8647 C   0  0  0  0  0  0  0  0  0  0  0  0
    0.9681    1.0854    0.8802 C   0  0  0  0  0  0  0  0  0  0  0  0
    1.7163   -0.1249    0.3884 C   0  0  2  0  0  0  0  0  0  0  0  0
    3.1657    0.0119    0.4416 C   0  0  0  0  0  0  0  0  0  0  0  0
    3.7017    0.4539    1.6340 C   0  0  0  0  0  0  0  0  0  0  0  0
    5.0734    0.6035    1.7447 C   0  0  0  0  0  0  0  0  0  0  0  0
    5.8852    0.3089    0.6626 C   0  0  0  0  0  0  0  0  0  0  0  0
    5.3652   -0.1279   -0.5178 C   0  0  0  0  0  0  0  0  0  0  0  0
    3.9886   -0.2824   -0.6422 C   0  0  0  0  0  0  0  0  0  0  0  0
    3.4263   -0.7584   -1.9300 C   0  0  0  0  0  0  0  0  0  0  0  0
    2.1039   -1.4635   -1.6806 C   0  0  0  0  0  0  0  0  0  0  0  0
    1.2146   -0.4360   -1.0277 C   0  0  1  0  0  0  0  0  0  0  0  0
    7.3373    0.4381    0.6925 C   0  0  0  0  0  0  0  0  0  0  0  0
    8.1700    0.8642    1.7642 N   0  0  0  0  0  0  0  0  0  0  0  0
    8.1173    0.1762   -0.2838 O   0  0  0  0  0  0  0  0  0  0  0  0
   -0.3238   -1.5317   -0.0257 H   0  0  0  0  0  0  0  0  0  0  0  0
   -0.7171   -0.7679   -2.9763 H   0  0  0  0  0  0  0  0  0  0  0  0
   -0.7511   -2.4153   -2.1935 H   0  0  0  0  0  0  0  0  0  0  0  0
   -2.7314   -2.1142   -1.1285 H   0  0  0  0  0  0  0  0  0  0  0  0
   -2.9905   -0.8996   -2.4864 H   0  0  0  0  0  0  0  0  0  0  0  0
   -2.2053   -1.4356    1.1122 H   0  0  0  0  0  0  0  0  0  0  0  0
   -2.7898    0.2662    1.4956 H   0  0  0  0  0  0  0  0  0  0  0  0
   -4.3868   -1.9085    0.0458 H   0  0  0  0  0  0  0  0  0  0  0  0
   -4.6083   -1.4085    1.7210 H   0  0  0  0  0  0  0  0  0  0  0  0
   -5.3204    1.3154    1.9892 H   0  0  0  0  0  0  0  0  0  0  0  0
   -6.3454   -0.1378    2.1533 H   0  0  0  0  0  0  0  0  0  0  0  0
   -6.8312    1.1860    1.0259 H   0  0  0  0  0  0  0  0  0  0  0  0
   -6.8034    0.4581   -1.0155 H   0  0  0  0  0  0  0  0  0  0  0  0
   -5.5690   -0.6681   -1.6666 H   0  0  0  0  0  0  0  0  0  0  0  0
   -6.8139   -1.2736   -0.4216 H   0  0  0  0  0  0  0  0  0  0  0  0
   -1.7854    2.0975   -1.6306 H   0  0  0  0  0  0  0  0  0  0  0  0
   -0.0671    2.2922   -1.2087 H   0  0  0  0  0  0  0  0  0  0  0  0
   -0.5284    1.2120   -2.5221 H   0  0  0  0  0  0  0  0  0  0  0  0
   -1.0298    1.7792    1.1572 H   0  0  0  0  0  0  0  0  0  0  0  0
   -0.7377    0.0133    1.5504 H   0  0  0  0  0  0  0  0  0  0  0  0
    1.2772    2.0035    0.3518 H   0  0  0  0  0  0  0  0  0  0  0  0
    1.2536    1.2341    1.9572 H   0  0  0  0  0  0  0  0  0  0  0  0
    1.3925   -0.9853    1.0129 H   0  0  0  0  0  0  0  0  0  0  0  0
    3.1405    0.7050    2.5239 H   0  0  0  0  0  0  0  0  0  0  0  0
    5.5909    0.9488    2.6518 H   0  0  0  0  0  0  0  0  0  0  0  0
    5.9797   -0.3707   -1.3964 H   0  0  0  0  0  0  0  0  0  0  0  0
    3.2498    0.0928   -2.6313 H   0  0  0  0  0  0  0  0  0  0  0  0
    4.1286   -1.4563   -2.4185 H   0  0  0  0  0  0  0  0  0  0  0  0
    2.2780   -2.2637   -0.9494 H   0  0  0  0  0  0  0  0  0  0  0  0
    1.6371   -1.7763   -2.6131 H   0  0  0  0  0  0  0  0  0  0  0  0
    1.2365    0.5464   -1.5663 H   0  0  0  0  0  0  0  0  0  0  0  0
    8.6649    1.7784    1.9570 H   0  0  0  0  0  0  0  0  0  0  0  0
    8.4986    0.3671    2.6345 H   0  0  0  0  0  0  0  0  0  0  0  0
  1  2  1  0
  2  3  1  0
  3  4  1  0
  4  5  1  0
  5  6  1  0
  6  7  1  0
  7  8  1  0
  7  9  1  0
  7 10  1  0
 10 11  2  0
 10 12  1  0
  4 13  1  0
 13 14  1  6
 13 15  1  0
 15 16  1  0
 16 17  1  0
 17 18  1  0
 18 19  2  0
 19 20  1  0
 20 21  2  0
 21 22  1  0
 22 23  2  0
 23 24  1  0
 24 25  1  0
 25 26  1  0
 21 27  1  0
 27 28  1  0
 27 29  2  0
 13  1  1  0
 26 17  1  0
 26  1  1  0
  4 12  1  6
 23 18  1  0
  1 30  1  1
  2 31  1  0
  2 32  1  0
  3 33  1  0
  3 34  1  0
  5 35  1  0
  5 36  1  0
  6 37  1  0
  6 38  1  0
  8 39  1  0
  8 40  1  0
  8 41  1  0
  9 42  1  0
  9 43  1  0
  9 44  1  0
 14 45  1  0
 14 46  1  0
 14 47  1  0
 15 48  1  0
 15 49  1  0
 16 50  1  0
 16 51  1  0
 17 52  1  1
 19 53  1  0
 20 54  1  0
 22 55  1  0
 24 56  1  0
 24 57  1  0
 25 58  1  0
 25 59  1  0
 26 60  1  6
 28 61  1  0
 28 62  1  0
M  END
$$$$
