
     RDKit          3D

 63 65  0  0  0  0  0  0  0  0999 V2000
    8.6510   -2.0578   -0.0710 C   0  0  0  0  0  0  0  0  0  0  0  0
    7.6517   -0.9606    0.0341 C   0  0  0  0  0  0  0  0  0  0  0  0
    6.2945   -1.2185    0.1644 C   0  0  0  0  0  0  0  0  0  0  0  0
    5.3873   -0.1883    0.2598 C   0  0  0  0  0  0  0  0  0  0  0  0
    3.9386   -0.4669    0.3975 C   0  0  0  0  0  0  0  0  0  0  0  0
    3.2401   -0.2161   -0.9322 C   0  0  0  0  0  0  0  0  0  0  0  0
    1.7457   -0.5004   -0.8032 C   0  0  0  0  0  0  0  0  0  0  0  0
    1.1254    0.3796    0.2278 C   0  0  0  0  0  0  0  0  0  0  0  0
   -0.3180    0.7403   -0.0444 C   0  0  0  0  0  0  0  0  0  0  0  0
   -0.8803   -0.2923   -0.8665 N   0  0  0  0  0  0  0  0  0  0  0  0
   -2.6042   -0.0875   -1.0665 S   0  0  0  0  0  6  0  0  0  0  0  0
   -3.0341   -1.2170   -1.9593 O   0  0  0  0  0  0  0  0  0  0  0  0
   -2.8093    1.1902   -1.7807 O   0  0  0  0  0  0  0  0  0  0  0  0
   -3.4310   -0.1807    0.4818 C   0  0  0  0  0  0  0  0  0  0  0  0
   -4.9256   -0.0071    0.4050 C   0  0  0  0  0  0  0  0  0  0  0  0
   -5.3807   -0.1206    1.8026 N   0  0  0  0  0  0  0  0  0  0  0  0
   -6.0007    0.8875    2.4291 O   0  0  0  0  0  0  0  0  0  0  0  0
   -5.1305   -1.3432    2.4786 C   0  0  0  0  0  0  0  0  0  0  0  0
   -5.5079   -1.4578    3.6620 O   0  0  0  0  0  0  0  0  0  0  0  0
   -5.3449    1.3373   -0.0799 C   0  0  0  0  0  0  0  0  0  0  0  0
   -6.8444    1.4580    0.0535 C   0  0  0  0  0  0  0  0  0  0  0  0
   -7.4729    0.2628    0.3852 O   0  0  0  0  0  0  0  0  0  0  0  0
   -7.0884   -0.7781   -0.4291 C   0  0  0  0  0  0  0  0  0  0  0  0
   -5.6092   -1.0737   -0.3708 C   0  0  0  0  0  0  0  0  0  0  0  0
   -0.2977   -0.1056   -2.2071 C   0  0  0  0  0  0  0  0  0  0  0  0
    1.1734   -0.3537   -2.1876 C   0  0  0  0  0  0  0  0  0  0  0  0
    5.8369    1.0962    0.2249 C   0  0  0  0  0  0  0  0  0  0  0  0
    4.9588    2.2839    0.3184 C   0  0  0  0  0  0  0  0  0  0  0  0
    7.2041    1.3095    0.0933 C   0  0  0  0  0  0  0  0  0  0  0  0
    8.0773    0.2980    0.0014 N   0  0  0  0  0  0  0  0  0  0  0  0
    8.4788   -2.8085    0.7139 H   0  0  0  0  0  0  0  0  0  0  0  0
    9.6647   -1.6679    0.0164 H   0  0  0  0  0  0  0  0  0  0  0  0
    8.5647   -2.5316   -1.0837 H   0  0  0  0  0  0  0  0  0  0  0  0
    5.9907   -2.2544    0.1865 H   0  0  0  0  0  0  0  0  0  0  0  0
    3.7979   -1.5391    0.6741 H   0  0  0  0  0  0  0  0  0  0  0  0
    3.5014    0.1887    1.1714 H   0  0  0  0  0  0  0  0  0  0  0  0
    3.6382   -0.9650   -1.6501 H   0  0  0  0  0  0  0  0  0  0  0  0
    3.3575    0.8157   -1.2738 H   0  0  0  0  0  0  0  0  0  0  0  0
    1.6730   -1.5856   -0.5124 H   0  0  0  0  0  0  0  0  0  0  0  0
    1.1344   -0.2030    1.1967 H   0  0  0  0  0  0  0  0  0  0  0  0
    1.7255    1.2945    0.4445 H   0  0  0  0  0  0  0  0  0  0  0  0
   -0.3708    1.7464   -0.5377 H   0  0  0  0  0  0  0  0  0  0  0  0
   -0.8397    0.8438    0.9188 H   0  0  0  0  0  0  0  0  0  0  0  0
   -3.0530    0.5793    1.1913 H   0  0  0  0  0  0  0  0  0  0  0  0
   -3.2386   -1.1692    0.9467 H   0  0  0  0  0  0  0  0  0  0  0  0
   -5.6184    1.1274    3.2906 H   0  0  0  0  0  0  0  0  0  0  0  0
   -4.6337   -2.1803    2.0318 H   0  0  0  0  0  0  0  0  0  0  0  0
   -4.8406    2.1723    0.4755 H   0  0  0  0  0  0  0  0  0  0  0  0
   -5.0729    1.4212   -1.1599 H   0  0  0  0  0  0  0  0  0  0  0  0
   -7.1330    2.1899    0.8538 H   0  0  0  0  0  0  0  0  0  0  0  0
   -7.2900    1.8046   -0.9177 H   0  0  0  0  0  0  0  0  0  0  0  0
   -7.4344   -0.5200   -1.4590 H   0  0  0  0  0  0  0  0  0  0  0  0
   -7.6626   -1.6827   -0.1418 H   0  0  0  0  0  0  0  0  0  0  0  0
   -5.4282   -2.0539    0.1595 H   0  0  0  0  0  0  0  0  0  0  0  0
   -5.2812   -1.1718   -1.4180 H   0  0  0  0  0  0  0  0  0  0  0  0
   -0.4603    0.9452   -2.5501 H   0  0  0  0  0  0  0  0  0  0  0  0
   -0.8268   -0.7536   -2.9178 H   0  0  0  0  0  0  0  0  0  0  0  0
    1.7594    0.4013   -2.7426 H   0  0  0  0  0  0  0  0  0  0  0  0
    1.3720   -1.3253   -2.7296 H   0  0  0  0  0  0  0  0  0  0  0  0
    4.7038    2.7106   -0.6814 H   0  0  0  0  0  0  0  0  0  0  0  0
    5.5478    3.1035    0.8257 H   0  0  0  0  0  0  0  0  0  0  0  0
    4.0731    2.1326    0.9570 H   0  0  0  0  0  0  0  0  0  0  0  0
    7.5962    2.3175    0.0622 H   0  0  0  0  0  0  0  0  0  0  0  0
  1  2  1  0
  2  3  2  0
  3  4  1  0
  4  5  1  0
  5  6  1  0
  6  7  1  0
  7  8  1  0
  8  9  1  0
  9 10  1  0
 10 11  1  0
 11 12  2  0
 11 13  2  0
 11 14  1  0
 14 15  1  0
 15 16  1  0
 16 17  1  0
 16 18  1  0
 18 19  2  0
 15 20  1  0
 20 21  1  0
 21 22  1  0
 22 23  1  0
 23 24  1  0
 10 25  1  0
 25 26  1  0
  4 27  2  0
 27 28  1  0
 27 29  1  0
 29 30  2  0
 30  2  1  0
 26  7  1  0
 24 15  1  0
  1 31  1  0
  1 32  1  0
  1 33  1  0
  3 34  1  0
  5 35  1  0
  5 36  1  0
  6 37  1  0
  6 38  1  0
  7 39  1  0
  8 40  1  0
  8 41  1  0
  9 42  1  0
  9 43  1  0
 14 44  1  0
 14 45  1  0
 17 46  1  0
 18 47  1  0
 20 48  1  0
 20 49  1  0
 21 50  1  0
 21 51  1  0
 23 52  1  0
 23 53  1  0
 24 54  1  0
 24 55  1  0
 25 56  1  0
 25 57  1  0
 26 58  1  0
 26 59  1  0
 28 60  1  0
 28 61  1  0
 28 62  1  0
 29 63  1  0
M  END
$$$$
