@<TRIPOS>MOLECULE
*****
 63 65 0 0 0
SMALL
GASTEIGER

@<TRIPOS>ATOM
      1 C           8.6510   -2.0578   -0.0710 C.3     1  UNL1       -0.0224
      2 C           7.6517   -0.9606    0.0341 C.ar    1  UNL1        0.0385
      3 C           6.2945   -1.2185    0.1644 C.ar    1  UNL1       -0.0372
      4 C           5.3873   -0.1883    0.2598 C.ar    1  UNL1       -0.0413
      5 C           3.9386   -0.4669    0.3975 C.3     1  UNL1       -0.0271
      6 C           3.2401   -0.2161   -0.9322 C.3     1  UNL1       -0.0461
      7 C           1.7457   -0.5004   -0.8032 C.3     1  UNL1       -0.0383
      8 C           1.1254    0.3796    0.2278 C.3     1  UNL1       -0.0357
      9 C          -0.3180    0.7403   -0.0444 C.3     1  UNL1        0.0204
     10 N          -0.8803   -0.2923   -0.8665 N.3     1  UNL1       -0.1810
     11 S          -2.6042   -0.0875   -1.0665 S.O2    1  UNL1        0.0339
     12 O          -3.0341   -1.2170   -1.9593 O.2     1  UNL1       -0.1580
     13 O          -2.8093    1.1902   -1.7807 O.2     1  UNL1       -0.1580
     14 C          -3.4310   -0.1807    0.4818 C.3     1  UNL1        0.1057
     15 C          -4.9256   -0.0071    0.4050 C.3     1  UNL1        0.0884
     16 N          -5.3807   -0.1206    1.8026 N.am    1  UNL1       -0.1784
     17 O          -6.0007    0.8875    2.4291 O.3     1  UNL1       -0.2921
     18 C          -5.1305   -1.3432    2.4786 C.2     1  UNL1        0.2256
     19 O          -5.5079   -1.4578    3.6620 O.2     1  UNL1       -0.2772
     20 C          -5.3449    1.3373   -0.0799 C.3     1  UNL1       -0.0039
     21 C          -6.8444    1.4580    0.0535 C.3     1  UNL1        0.0497
     22 O          -7.4729    0.2628    0.3852 O.3     1  UNL1       -0.3796
     23 C          -7.0884   -0.7781   -0.4291 C.3     1  UNL1        0.0497
     24 C          -5.6092   -1.0737   -0.3708 C.3     1  UNL1       -0.0039
     25 C          -0.2977   -0.1056   -2.2071 C.3     1  UNL1        0.0204
     26 C           1.1734   -0.3537   -2.1876 C.3     1  UNL1       -0.0357
     27 C           5.8369    1.0962    0.2249 C.ar    1  UNL1       -0.0292
     28 C           4.9588    2.2839    0.3184 C.3     1  UNL1       -0.0380
     29 C           7.2041    1.3095    0.0933 C.ar    1  UNL1        0.0310
     30 N           8.0773    0.2980    0.0014 N.ar    1  UNL1       -0.2599
     31 H           8.4788   -2.8085    0.7139 H       1  UNL1        0.0292
     32 H           9.6647   -1.6679    0.0164 H       1  UNL1        0.0292
     33 H           8.5647   -2.5316   -1.0837 H       1  UNL1        0.0292
     34 H           5.9907   -2.2544    0.1865 H       1  UNL1        0.0638
     35 H           3.7979   -1.5391    0.6741 H       1  UNL1        0.0313
     36 H           3.5014    0.1887    1.1714 H       1  UNL1        0.0313
     37 H           3.6382   -0.9650   -1.6501 H       1  UNL1        0.0271
     38 H           3.3575    0.8157   -1.2738 H       1  UNL1        0.0271
     39 H           1.6730   -1.5856   -0.5124 H       1  UNL1        0.0302
     40 H           1.1344   -0.2030    1.1967 H       1  UNL1        0.0281
     41 H           1.7255    1.2945    0.4445 H       1  UNL1        0.0281
     42 H          -0.3708    1.7464   -0.5377 H       1  UNL1        0.0444
     43 H          -0.8397    0.8438    0.9188 H       1  UNL1        0.0444
     44 H          -3.0530    0.5793    1.1913 H       1  UNL1        0.0538
     45 H          -3.2386   -1.1692    0.9467 H       1  UNL1        0.0538
     46 H          -5.6184    1.1274    3.2906 H       1  UNL1        0.2417
     47 H          -4.6337   -2.1803    2.0318 H       1  UNL1        0.1274
     48 H          -4.8406    2.1723    0.4755 H       1  UNL1        0.0309
     49 H          -5.0729    1.4212   -1.1599 H       1  UNL1        0.0309
     50 H          -7.1330    2.1899    0.8538 H       1  UNL1        0.0560
     51 H          -7.2900    1.8046   -0.9177 H       1  UNL1        0.0560
     52 H          -7.4344   -0.5200   -1.4590 H       1  UNL1        0.0560
     53 H          -7.6626   -1.6827   -0.1418 H       1  UNL1        0.0560
     54 H          -5.4282   -2.0539    0.1595 H       1  UNL1        0.0309
     55 H          -5.2812   -1.1718   -1.4180 H       1  UNL1        0.0309
     56 H          -0.4603    0.9452   -2.5501 H       1  UNL1        0.0444
     57 H          -0.8268   -0.7536   -2.9178 H       1  UNL1        0.0444
     58 H           1.7594    0.4013   -2.7426 H       1  UNL1        0.0281
     59 H           1.3720   -1.3253   -2.7296 H       1  UNL1        0.0281
     60 H           4.7038    2.7106   -0.6814 H       1  UNL1        0.0278
     61 H           5.5478    3.1035    0.8257 H       1  UNL1        0.0278
     62 H           4.0731    2.1326    0.9570 H       1  UNL1        0.0278
     63 H           7.5962    2.3175    0.0622 H       1  UNL1        0.0832
@<TRIPOS>BOND
     1     1     2    1
     2     2     3   ar
     3     3     4   ar
     4     4     5    1
     5     5     6    1
     6     6     7    1
     7     7     8    1
     8     8     9    1
     9     9    10    1
    10    10    11    1
    11    11    12    2
    12    11    13    2
    13    11    14    1
    14    14    15    1
    15    15    16    1
    16    16    17    1
    17    16    18   am
    18    18    19    2
    19    15    20    1
    20    20    21    1
    21    21    22    1
    22    22    23    1
    23    23    24    1
    24    10    25    1
    25    25    26    1
    26     4    27   ar
    27    27    28    1
    28    27    29   ar
    29    29    30   ar
    30    30     2   ar
    31    26     7    1
    32    24    15    1
    33     1    31    1
    34     1    32    1
    35     1    33    1
    36     3    34    1
    37     5    35    1
    38     5    36    1
    39     6    37    1
    40     6    38    1
    41     7    39    1
    42     8    40    1
    43     8    41    1
    44     9    42    1
    45     9    43    1
    46    14    44    1
    47    14    45    1
    48    17    46    1
    49    18    47    1
    50    20    48    1
    51    20    49    1
    52    21    50    1
    53    21    51    1
    54    23    52    1
    55    23    53    1
    56    24    54    1
    57    24    55    1
    58    25    56    1
    59    25    57    1
    60    26    58    1
    61    26    59    1
    62    28    60    1
    63    28    61    1
    64    28    62    1
    65    29    63    1
