
     RDKit          3D

 44 47  0  0  0  0  0  0  0  0999 V2000
   -2.2863   -0.2478    2.0599 C   0  0  0  0  0  0  0  0  0  0  0  0
   -2.9196   -0.9166    0.9741 N   0  0  0  0  0  0  0  0  0  0  0  0
   -3.2840   -2.2048    0.9343 C   0  0  0  0  0  0  0  0  0  0  0  0
   -3.8664   -2.4698   -0.2973 C   0  0  0  0  0  0  0  0  0  0  0  0
   -3.8394   -1.3244   -0.9778 N   0  0  0  0  0  0  0  0  0  0  0  0
   -3.2569   -0.3572   -0.2030 C   0  0  0  0  0  0  0  0  0  0  0  0
   -3.1087    1.0127   -0.6553 C   0  0  2  0  0  0  0  0  0  0  0  0
   -2.0677    1.2490   -1.6806 C   0  0  0  0  0  0  0  0  0  0  0  0
   -0.7047    0.9563   -1.3785 N   0  0  0  0  0  0  0  0  0  0  0  0
   -0.1074   -0.2926   -1.1077 C   0  0  0  0  0  0  0  0  0  0  0  0
   -0.8000   -1.3200   -1.1329 O   0  0  0  0  0  0  0  0  0  0  0  0
    1.3113   -0.4140   -0.7965 C   0  0  0  0  0  0  0  0  0  0  0  0
    2.2462    0.6005   -0.7192 C   0  0  0  0  0  0  0  0  0  0  0  0
    3.4418    0.0111   -0.4000 C   0  0  0  0  0  0  0  0  0  0  0  0
    4.7185    0.4644   -0.1856 C   0  0  0  0  0  0  0  0  0  0  0  0
    5.7204   -0.4000    0.1250 C   0  0  0  0  0  0  0  0  0  0  0  0
    7.1271    0.0194    0.3706 C   0  0  0  0  0  0  0  0  0  0  0  0
    7.7313   -0.8936    1.2079 F   0  0  0  0  0  0  0  0  0  0  0  0
    7.7676    0.0062   -0.8590 F   0  0  0  0  0  0  0  0  0  0  0  0
    7.2069    1.3103    0.8508 F   0  0  0  0  0  0  0  0  0  0  0  0
    5.4348   -1.7428    0.2219 C   0  0  0  0  0  0  0  0  0  0  0  0
    4.1651   -2.2512    0.0154 C   0  0  0  0  0  0  0  0  0  0  0  0
    3.1774   -1.3477   -0.2969 C   0  0  0  0  0  0  0  0  0  0  0  0
    1.9077   -1.5524   -0.5388 O   0  0  0  0  0  0  0  0  0  0  0  0
   -3.0125    1.9576    0.4507 N   0  0  0  0  0  0  0  0  0  0  0  0
   -4.3080    2.4235    0.7468 C   0  0  0  0  0  0  0  0  0  0  0  0
   -4.7256    3.0606    1.7733 O   0  0  0  0  0  0  0  0  0  0  0  0
   -5.1670    2.0646   -0.3339 N   0  0  0  0  0  0  0  0  0  0  0  0
   -4.4295    1.3770   -1.3110 C   0  0  0  0  0  0  0  0  0  0  0  0
   -4.7109    1.0856   -2.4744 O   0  0  0  0  0  0  0  0  0  0  0  0
   -2.0542   -0.9561    2.9088 H   0  0  0  0  0  0  0  0  0  0  0  0
   -1.2834    0.1720    1.7912 H   0  0  0  0  0  0  0  0  0  0  0  0
   -2.9144    0.5592    2.4643 H   0  0  0  0  0  0  0  0  0  0  0  0
   -3.1687   -2.9709    1.7110 H   0  0  0  0  0  0  0  0  0  0  0  0
   -4.2730   -3.3872   -0.6803 H   0  0  0  0  0  0  0  0  0  0  0  0
   -2.1060    2.3336   -2.0242 H   0  0  0  0  0  0  0  0  0  0  0  0
   -2.3903    0.7036   -2.6392 H   0  0  0  0  0  0  0  0  0  0  0  0
    0.0170    1.7745   -1.3377 H   0  0  0  0  0  0  0  0  0  0  0  0
    2.0389    1.6288   -0.8825 H   0  0  0  0  0  0  0  0  0  0  0  0
    4.9139    1.5180   -0.2677 H   0  0  0  0  0  0  0  0  0  0  0  0
    6.2214   -2.4465    0.4687 H   0  0  0  0  0  0  0  0  0  0  0  0
    3.9849   -3.3050    0.1006 H   0  0  0  0  0  0  0  0  0  0  0  0
   -2.1487    2.2269    0.9197 H   0  0  0  0  0  0  0  0  0  0  0  0
   -6.1988    2.2854   -0.3849 H   0  0  0  0  0  0  0  0  0  0  0  0
  1  2  1  0
  2  3  1  0
  3  4  2  0
  4  5  1  0
  5  6  2  0
  6  7  1  0
  7  8  1  6
  8  9  1  0
  9 10  1  0
 10 11  2  0
 10 12  1  0
 12 13  2  0
 13 14  1  0
 14 15  2  0
 15 16  1  0
 16 17  1  0
 17 18  1  0
 17 19  1  0
 17 20  1  0
 16 21  2  0
 21 22  1  0
 22 23  2  0
 23 24  1  0
  7 25  1  0
 25 26  1  0
 26 27  2  0
 26 28  1  0
 28 29  1  0
 29 30  2  0
  6  2  1  0
 29  7  1  0
 24 12  1  0
 23 14  1  0
  1 31  1  0
  1 32  1  0
  1 33  1  0
  3 34  1  0
  4 35  1  0
  8 36  1  0
  8 37  1  0
  9 38  1  0
 13 39  1  0
 15 40  1  0
 21 41  1  0
 22 42  1  0
 25 43  1  0
 28 44  1  0
M  END
$$$$
