@<TRIPOS>MOLECULE
*****
 44 47 0 0 0
SMALL
GASTEIGER

@<TRIPOS>ATOM
      1 C          -2.2863   -0.2478    2.0599 C.3     1  UNL1        0.0130
      2 N          -2.9196   -0.9166    0.9741 N.ar    1  UNL1       -0.3352
      3 C          -3.2840   -2.2048    0.9343 C.ar    1  UNL1        0.0240
      4 C          -3.8664   -2.4698   -0.2973 C.ar    1  UNL1        0.0458
      5 N          -3.8394   -1.3244   -0.9778 N.ar    1  UNL1       -0.2378
      6 C          -3.2569   -0.3572   -0.2030 C.ar    1  UNL1        0.1438
      7 C          -3.1087    1.0127   -0.6553 C.3     1  UNL1        0.1860
      8 C          -2.0677    1.2490   -1.6806 C.3     1  UNL1        0.0491
      9 N          -0.7047    0.9563   -1.3785 N.am    1  UNL1       -0.3059
     10 C          -0.1074   -0.2926   -1.1077 C.2     1  UNL1        0.2795
     11 O          -0.8000   -1.3200   -1.1329 O.2     1  UNL1       -0.2668
     12 C           1.3113   -0.4140   -0.7965 C.ar    1  UNL1        0.1905
     13 C           2.2462    0.6005   -0.7192 C.ar    1  UNL1       -0.0035
     14 C           3.4418    0.0111   -0.4000 C.ar    1  UNL1        0.0214
     15 C           4.7185    0.4644   -0.1856 C.ar    1  UNL1       -0.0393
     16 C           5.7204   -0.4000    0.1250 C.ar    1  UNL1        0.0556
     17 C           7.1271    0.0194    0.3706 C.3     1  UNL1        0.4174
     18 F           7.7313   -0.8936    1.2079 F       1  UNL1       -0.1659
     19 F           7.7676    0.0062   -0.8590 F       1  UNL1       -0.1659
     20 F           7.2069    1.3103    0.8508 F       1  UNL1       -0.1659
     21 C           5.4348   -1.7428    0.2219 C.ar    1  UNL1       -0.0466
     22 C           4.1651   -2.2512    0.0154 C.ar    1  UNL1       -0.0182
     23 C           3.1774   -1.3477   -0.2969 C.ar    1  UNL1        0.1359
     24 O           1.9077   -1.5524   -0.5388 O.2     1  UNL1       -0.4502
     25 N          -3.0125    1.9576    0.4507 N.am    1  UNL1       -0.2777
     26 C          -4.3080    2.4235    0.7468 C.2     1  UNL1        0.3071
     27 O          -4.7256    3.0606    1.7733 O.2     1  UNL1       -0.2524
     28 N          -5.1670    2.0646   -0.3339 N.am    1  UNL1       -0.2380
     29 C          -4.4295    1.3770   -1.3110 C.2     1  UNL1        0.2531
     30 O          -4.7109    1.0856   -2.4744 O.2     1  UNL1       -0.2724
     31 H          -2.0542   -0.9561    2.9088 H       1  UNL1        0.0456
     32 H          -1.2834    0.1720    1.7912 H       1  UNL1        0.0456
     33 H          -2.9144    0.5592    2.4643 H       1  UNL1        0.0456
     34 H          -3.1687   -2.9709    1.7110 H       1  UNL1        0.0825
     35 H          -4.2730   -3.3872   -0.6803 H       1  UNL1        0.0845
     36 H          -2.1060    2.3336   -2.0242 H       1  UNL1        0.0492
     37 H          -2.3903    0.7036   -2.6392 H       1  UNL1        0.0492
     38 H           0.0170    1.7745   -1.3377 H       1  UNL1        0.1492
     39 H           2.0389    1.6288   -0.8825 H       1  UNL1        0.0663
     40 H           4.9139    1.5180   -0.2677 H       1  UNL1        0.0630
     41 H           6.2214   -2.4465    0.4687 H       1  UNL1        0.0624
     42 H           3.9849   -3.3050    0.1006 H       1  UNL1        0.0655
     43 H          -2.1487    2.2269    0.9197 H       1  UNL1        0.1517
     44 H          -6.1988    2.2854   -0.3849 H       1  UNL1        0.1591
@<TRIPOS>BOND
     1     1     2    1
     2     2     3   ar
     3     3     4   ar
     4     4     5   ar
     5     5     6   ar
     6     6     7    1
     7     7     8    1
     8     8     9    1
     9     9    10   am
    10    10    11    2
    11    10    12    1
    12    12    13   ar
    13    13    14   ar
    14    14    15   ar
    15    15    16   ar
    16    16    17    1
    17    17    18    1
    18    17    19    1
    19    17    20    1
    20    16    21   ar
    21    21    22   ar
    22    22    23   ar
    23    23    24   ar
    24     7    25    1
    25    25    26   am
    26    26    27    2
    27    26    28   am
    28    28    29   am
    29    29    30    2
    30     6     2   ar
    31    29     7    1
    32    24    12   ar
    33    23    14   ar
    34     1    31    1
    35     1    32    1
    36     1    33    1
    37     3    34    1
    38     4    35    1
    39     8    36    1
    40     8    37    1
    41     9    38    1
    42    13    39    1
    43    15    40    1
    44    21    41    1
    45    22    42    1
    46    25    43    1
    47    28    44    1
