@<TRIPOS>MOLECULE
*****
 52 57 0 0 0
SMALL
GASTEIGER

@<TRIPOS>ATOM
      1 C          -3.9658    1.8066   -0.8829 C.3     1  UNL1       -0.0203
      2 C          -3.3991    0.4498   -0.6439 C.ar    1  UNL1        0.0660
      3 N          -4.1153   -0.6515   -0.4198 N.ar    1  UNL1       -0.1752
      4 N          -3.3461   -1.7003   -0.2433 N.ar    1  UNL1       -0.2556
      5 C          -3.7877   -3.0557    0.0217 C.3     1  UNL1        0.0537
      6 C          -5.1758   -3.2270    0.5987 C.3     1  UNL1       -0.0285
      7 C          -4.9752   -3.5572   -0.8293 C.3     1  UNL1       -0.0285
      8 C          -2.0642   -1.2667   -0.3571 C.ar    1  UNL1        0.1297
      9 C          -2.0653    0.0887   -0.6104 C.ar    1  UNL1        0.0305
     10 C          -0.6799    0.6071   -0.7427 C.3     1  UNL1        0.0881
     11 C          -0.4065    1.7031    0.2156 C.ar    1  UNL1        0.0132
     12 C          -0.5821    1.5627    1.5767 C.ar    1  UNL1       -0.0510
     13 C          -0.3241    2.5954    2.4722 C.ar    1  UNL1       -0.0259
     14 C           0.1245    3.8103    1.9969 C.ar    1  UNL1        0.1261
     15 F           0.3820    4.8316    2.8575 F       1  UNL1       -0.2054
     16 C           0.3092    3.9761    0.6290 C.ar    1  UNL1        0.0091
     17 C           0.0453    2.9397   -0.2184 C.ar    1  UNL1        0.1314
     18 F           0.2230    3.0907   -1.5642 F       1  UNL1       -0.2050
     19 N           0.1860   -0.5273   -0.5524 N.am    1  UNL1       -0.2530
     20 C           1.6086   -0.4942   -0.5945 C.ar    1  UNL1        0.0545
     21 C           2.2937   -0.6951   -1.7802 C.ar    1  UNL1       -0.0324
     22 C           3.6704   -0.6689   -1.8505 C.ar    1  UNL1       -0.0041
     23 C           4.3947   -0.8860   -3.1286 C.3     1  UNL1       -0.0361
     24 C           4.3706   -0.4324   -0.6869 C.ar    1  UNL1        0.1641
     25 N           5.6795   -0.3428   -0.4051 N.ar    1  UNL1       -0.1292
     26 N           5.8096   -0.0979    0.8919 N.ar    1  UNL1       -0.1340
     27 C           4.5998   -0.0243    1.4732 C.ar    1  UNL1        0.1347
     28 C           4.2574    0.2311    2.8996 C.3     1  UNL1       -0.0041
     29 N           3.7146   -0.2337    0.4825 N.ar    1  UNL1       -0.2846
     30 C           2.3539   -0.2615    0.5420 C.ar    1  UNL1        0.0344
     31 C          -0.6593   -1.6458   -0.3219 C.2     1  UNL1        0.2700
     32 O          -0.2477   -2.8176   -0.1134 O.2     1  UNL1       -0.2679
     33 H          -4.6834    1.9944   -0.0606 H       1  UNL1        0.0293
     34 H          -4.5196    1.8740   -1.8380 H       1  UNL1        0.0293
     35 H          -3.1667    2.5779   -0.8599 H       1  UNL1        0.0293
     36 H          -3.0364   -3.8086    0.3335 H       1  UNL1        0.0545
     37 H          -5.3369   -4.1062    1.2679 H       1  UNL1        0.0286
     38 H          -5.7457   -2.3180    0.8622 H       1  UNL1        0.0286
     39 H          -5.3936   -2.8427   -1.5770 H       1  UNL1        0.0286
     40 H          -4.9232   -4.5853   -1.2030 H       1  UNL1        0.0286
     41 H          -0.6026    1.0262   -1.7740 H       1  UNL1        0.0607
     42 H          -0.9326    0.6204    1.9720 H       1  UNL1        0.0623
     43 H          -0.4759    2.4469    3.5531 H       1  UNL1        0.0646
     44 H           0.6651    4.9364    0.2386 H       1  UNL1        0.0675
     45 H           1.6871   -0.8772   -2.6669 H       1  UNL1        0.0640
     46 H           3.8004   -0.5548   -3.9869 H       1  UNL1        0.0279
     47 H           4.7275   -1.9402   -3.2163 H       1  UNL1        0.0279
     48 H           5.3254   -0.2544   -3.1099 H       1  UNL1        0.0279
     49 H           3.5348   -0.5512    3.2755 H       1  UNL1        0.0308
     50 H           5.1823    0.1304    3.5262 H       1  UNL1        0.0308
     51 H           3.8413    1.2275    3.0712 H       1  UNL1        0.0308
     52 H           1.8241   -0.1023    1.4801 H       1  UNL1        0.0833
@<TRIPOS>BOND
     1     1     2    1
     2     2     3   ar
     3     3     4   ar
     4     4     5    1
     5     5     6    1
     6     6     7    1
     7     4     8   ar
     8     8     9   ar
     9     9    10    1
    10    10    11    1
    11    11    12   ar
    12    12    13   ar
    13    13    14   ar
    14    14    15    1
    15    14    16   ar
    16    16    17   ar
    17    17    18    1
    18    10    19    1
    19    19    20    1
    20    20    21   ar
    21    21    22   ar
    22    22    23    1
    23    22    24   ar
    24    24    25   ar
    25    25    26   ar
    26    26    27   ar
    27    27    28    1
    28    27    29   ar
    29    29    30   ar
    30    19    31   am
    31    31    32    2
    32     9     2   ar
    33    17    11   ar
    34    30    20   ar
    35     7     5    1
    36    31     8    1
    37    29    24   ar
    38     1    33    1
    39     1    34    1
    40     1    35    1
    41     5    36    1
    42     6    37    1
    43     6    38    1
    44     7    39    1
    45     7    40    1
    46    10    41    1
    47    12    42    1
    48    13    43    1
    49    16    44    1
    50    21    45    1
    51    23    46    1
    52    23    47    1
    53    23    48    1
    54    28    49    1
    55    28    50    1
    56    28    51    1
    57    30    52    1
