
     RDKit          3D

 64 69  0  0  0  0  0  0  0  0999 V2000
   -2.3755   -0.3782   -3.1803 C   0  0  0  0  0  0  0  0  0  0  0  0
   -1.8788    0.9461   -2.6156 C   0  0  0  0  0  0  0  0  0  0  0  0
   -0.7759    0.6491   -1.6813 C   0  0  0  0  0  0  0  0  0  0  0  0
    0.5072    0.9006   -2.1224 C   0  0  0  0  0  0  0  0  0  0  0  0
    1.5827    0.6273   -1.2601 C   0  0  0  0  0  0  0  0  0  0  0  0
    1.3672    0.1225   -0.0089 C   0  0  0  0  0  0  0  0  0  0  0  0
    0.0508   -0.1233    0.4121 C   0  0  0  0  0  0  0  0  0  0  0  0
   -1.0268    0.1437   -0.4342 C   0  0  0  0  0  0  0  0  0  0  0  0
   -2.3522   -0.0992   -0.0208 N   0  0  0  0  0  0  0  0  0  0  0  0
   -3.4197    0.8605    0.0962 C   0  0  0  0  0  0  0  0  0  0  0  0
   -4.0763    0.5846    1.4692 C   0  0  0  0  0  0  0  0  0  0  0  0
   -4.8263   -0.6315    1.2972 N   0  0  0  0  0  0  0  0  0  0  0  0
   -6.1075   -0.4014    0.6547 C   0  0  0  0  0  0  0  0  0  0  0  0
   -7.0508    0.5179    1.3578 C   0  0  0  0  0  0  0  0  0  0  0  0
   -8.0425   -0.4599    1.3415 O   0  0  0  0  0  0  0  0  0  0  0  0
   -7.1010   -1.4509    1.1712 C   0  0  0  0  0  0  0  0  0  0  0  0
   -4.1581   -1.6760    0.5937 C   0  0  0  0  0  0  0  0  0  0  0  0
   -2.7036   -1.4670    0.3579 C   0  0  0  0  0  0  0  0  0  0  0  0
    2.4344   -0.1818    0.9405 C   0  0  0  0  0  0  0  0  0  0  0  0
    2.2966   -1.6724    1.2888 C   0  0  0  0  0  0  0  0  0  0  0  0
    2.1632    0.5481    2.2495 C   0  0  0  0  0  0  0  0  0  0  0  0
    3.7962    0.0731    0.4533 C   0  0  0  0  0  0  0  0  0  0  0  0
    4.9690   -0.1139    1.0788 N   0  0  0  0  0  0  0  0  0  0  0  0
    5.9834    0.2550    0.2779 C   0  0  0  0  0  0  0  0  0  0  0  0
    7.3536    0.2755    0.4090 C   0  0  0  0  0  0  0  0  0  0  0  0
    8.1460    0.7259   -0.6224 C   0  0  0  0  0  0  0  0  0  0  0  0
    9.5768    0.7803   -0.5600 C   0  0  0  0  0  0  0  0  0  0  0  0
   10.7523    0.8064   -0.5009 N   0  0  0  0  0  0  0  0  0  0  0  0
    7.5731    1.1645   -1.8071 C   0  0  0  0  0  0  0  0  0  0  0  0
    6.1972    1.1461   -1.9448 C   0  0  0  0  0  0  0  0  0  0  0  0
    5.3986    0.6967   -0.9164 C   0  0  0  0  0  0  0  0  0  0  0  0
    4.0314    0.5825   -0.8056 C   0  0  0  0  0  0  0  0  0  0  0  0
    2.9422    0.8831   -1.7193 C   0  0  0  0  0  0  0  0  0  0  0  0
    3.1325    1.3501   -2.8767 O   0  0  0  0  0  0  0  0  0  0  0  0
   -3.4654   -0.3410   -3.2595 H   0  0  0  0  0  0  0  0  0  0  0  0
   -2.1116   -1.1784   -2.4721 H   0  0  0  0  0  0  0  0  0  0  0  0
   -1.8761   -0.6218   -4.1474 H   0  0  0  0  0  0  0  0  0  0  0  0
   -1.4819    1.4928   -3.5149 H   0  0  0  0  0  0  0  0  0  0  0  0
   -2.7360    1.4621   -2.1787 H   0  0  0  0  0  0  0  0  0  0  0  0
    0.7254    1.2974   -3.0984 H   0  0  0  0  0  0  0  0  0  0  0  0
   -0.1595   -0.5227    1.3894 H   0  0  0  0  0  0  0  0  0  0  0  0
   -4.2714    0.6529   -0.6190 H   0  0  0  0  0  0  0  0  0  0  0  0
   -3.1173    1.9049    0.1364 H   0  0  0  0  0  0  0  0  0  0  0  0
   -4.8067    1.3981    1.6501 H   0  0  0  0  0  0  0  0  0  0  0  0
   -3.3231    0.4663    2.2495 H   0  0  0  0  0  0  0  0  0  0  0  0
   -6.0855   -0.3635   -0.4472 H   0  0  0  0  0  0  0  0  0  0  0  0
   -6.7767    0.7902    2.3771 H   0  0  0  0  0  0  0  0  0  0  0  0
   -7.2926    1.4243    0.7475 H   0  0  0  0  0  0  0  0  0  0  0  0
   -7.3985   -2.1846    0.4110 H   0  0  0  0  0  0  0  0  0  0  0  0
   -6.7866   -1.9388    2.1172 H   0  0  0  0  0  0  0  0  0  0  0  0
   -4.7071   -1.9706   -0.3301 H   0  0  0  0  0  0  0  0  0  0  0  0
   -4.2362   -2.5947    1.2514 H   0  0  0  0  0  0  0  0  0  0  0  0
   -2.2000   -1.6083    1.3618 H   0  0  0  0  0  0  0  0  0  0  0  0
   -2.3301   -2.2165   -0.3416 H   0  0  0  0  0  0  0  0  0  0  0  0
    2.1745   -2.2271    0.3378 H   0  0  0  0  0  0  0  0  0  0  0  0
    3.2388   -2.0084    1.8102 H   0  0  0  0  0  0  0  0  0  0  0  0
    1.4297   -1.7779    1.9481 H   0  0  0  0  0  0  0  0  0  0  0  0
    1.1303    0.4842    2.5795 H   0  0  0  0  0  0  0  0  0  0  0  0
    2.8809    0.1256    3.0123 H   0  0  0  0  0  0  0  0  0  0  0  0
    2.4101    1.6160    2.0705 H   0  0  0  0  0  0  0  0  0  0  0  0
    5.1125   -0.4881    2.0434 H   0  0  0  0  0  0  0  0  0  0  0  0
    7.8268   -0.0580    1.3135 H   0  0  0  0  0  0  0  0  0  0  0  0
    8.1495    1.5209   -2.6303 H   0  0  0  0  0  0  0  0  0  0  0  0
    5.7244    1.4808   -2.8512 H   0  0  0  0  0  0  0  0  0  0  0  0
  1  2  1  0
  2  3  1  0
  3  4  2  0
  4  5  1  0
  5  6  2  0
  6  7  1  0
  7  8  2  0
  8  9  1  0
  9 10  1  0
 10 11  1  0
 11 12  1  0
 12 13  1  0
 13 14  1  0
 14 15  1  0
 15 16  1  0
 12 17  1  0
 17 18  1  0
  6 19  1  0
 19 20  1  0
 19 21  1  0
 19 22  1  0
 22 23  1  0
 23 24  1  0
 24 25  2  0
 25 26  1  0
 26 27  1  0
 27 28  3  0
 26 29  2  0
 29 30  1  0
 30 31  2  0
 31 32  1  0
 32 33  1  0
 33 34  2  0
  8  3  1  0
 18  9  1  0
 32 22  2  0
 33  5  1  0
 16 13  1  0
 31 24  1  0
  1 35  1  0
  1 36  1  0
  1 37  1  0
  2 38  1  0
  2 39  1  0
  4 40  1  0
  7 41  1  0
 10 42  1  0
 10 43  1  0
 11 44  1  0
 11 45  1  0
 13 46  1  0
 14 47  1  0
 14 48  1  0
 16 49  1  0
 16 50  1  0
 17 51  1  0
 17 52  1  0
 18 53  1  0
 18 54  1  0
 20 55  1  0
 20 56  1  0
 20 57  1  0
 21 58  1  0
 21 59  1  0
 21 60  1  0
 23 61  1  0
 25 62  1  0
 29 63  1  0
 30 64  1  0
M  END
$$$$
