@<TRIPOS>MOLECULE
*****
 64 69 0 0 0
SMALL
GASTEIGER

@<TRIPOS>ATOM
      1 C          -2.3755   -0.3782   -3.1803 C.3     1  UNL1       -0.0612
      2 C          -1.8788    0.9461   -2.6156 C.3     1  UNL1       -0.0288
      3 C          -0.7759    0.6491   -1.6813 C.ar    1  UNL1       -0.0259
      4 C           0.5072    0.9006   -2.1224 C.ar    1  UNL1       -0.0457
      5 C           1.5827    0.6273   -1.2601 C.ar    1  UNL1        0.0268
      6 C           1.3672    0.1225   -0.0089 C.ar    1  UNL1       -0.0234
      7 C           0.0508   -0.1233    0.4121 C.ar    1  UNL1       -0.0357
      8 C          -1.0268    0.1437   -0.4342 C.ar    1  UNL1        0.0333
      9 N          -2.3522   -0.0992   -0.0208 N.pl3   1  UNL1       -0.3272
     10 C          -3.4197    0.8605    0.0962 C.3     1  UNL1        0.0250
     11 C          -4.0763    0.5846    1.4692 C.3     1  UNL1        0.0151
     12 N          -4.8263   -0.6315    1.2972 N.3     1  UNL1       -0.2921
     13 C          -6.1075   -0.4014    0.6547 C.3     1  UNL1        0.0572
     14 C          -7.0508    0.5179    1.3578 C.3     1  UNL1        0.0654
     15 O          -8.0425   -0.4599    1.3415 O.3     1  UNL1       -0.3765
     16 C          -7.1010   -1.4509    1.1712 C.3     1  UNL1        0.0654
     17 C          -4.1581   -1.6760    0.5937 C.3     1  UNL1        0.0151
     18 C          -2.7036   -1.4670    0.3579 C.3     1  UNL1        0.0250
     19 C           2.4344   -0.1818    0.9405 C.3     1  UNL1        0.0315
     20 C           2.2966   -1.6724    1.2888 C.3     1  UNL1       -0.0503
     21 C           2.1632    0.5481    2.2495 C.3     1  UNL1       -0.0503
     22 C           3.7962    0.0731    0.4533 C.ar    1  UNL1        0.0380
     23 N           4.9690   -0.1139    1.0788 N.ar    1  UNL1       -0.3566
     24 C           5.9834    0.2550    0.2779 C.ar    1  UNL1        0.0486
     25 C           7.3536    0.2755    0.4090 C.ar    1  UNL1       -0.0204
     26 C           8.1460    0.7259   -0.6224 C.ar    1  UNL1        0.0537
     27 C           9.5768    0.7803   -0.5600 C.1     1  UNL1        0.0992
     28 N          10.7523    0.8064   -0.5009 N.1     1  UNL1       -0.1909
     29 C           7.5731    1.1645   -1.8071 C.ar    1  UNL1       -0.0436
     30 C           6.1972    1.1461   -1.9448 C.ar    1  UNL1       -0.0507
     31 C           5.3986    0.6967   -0.9164 C.ar    1  UNL1        0.0109
     32 C           4.0314    0.5825   -0.8056 C.ar    1  UNL1        0.0513
     33 C           2.9422    0.8831   -1.7193 C.2     1  UNL1        0.1957
     34 O           3.1325    1.3501   -2.8767 O.2     1  UNL1       -0.2866
     35 H          -3.4654   -0.3410   -3.2595 H       1  UNL1        0.0233
     36 H          -2.1116   -1.1784   -2.4721 H       1  UNL1        0.0233
     37 H          -1.8761   -0.6218   -4.1474 H       1  UNL1        0.0233
     38 H          -1.4819    1.4928   -3.5149 H       1  UNL1        0.0311
     39 H          -2.7360    1.4621   -2.1787 H       1  UNL1        0.0311
     40 H           0.7254    1.2974   -3.0984 H       1  UNL1        0.0628
     41 H          -0.1595   -0.5227    1.3894 H       1  UNL1        0.0639
     42 H          -4.2714    0.6529   -0.6190 H       1  UNL1        0.0476
     43 H          -3.1173    1.9049    0.1364 H       1  UNL1        0.0476
     44 H          -4.8067    1.3981    1.6501 H       1  UNL1        0.0442
     45 H          -3.3231    0.4663    2.2495 H       1  UNL1        0.0442
     46 H          -6.0855   -0.3635   -0.4472 H       1  UNL1        0.0508
     47 H          -6.7767    0.7902    2.3771 H       1  UNL1        0.0576
     48 H          -7.2926    1.4243    0.7475 H       1  UNL1        0.0576
     49 H          -7.3985   -2.1846    0.4110 H       1  UNL1        0.0576
     50 H          -6.7866   -1.9388    2.1172 H       1  UNL1        0.0576
     51 H          -4.7071   -1.9706   -0.3301 H       1  UNL1        0.0442
     52 H          -4.2362   -2.5947    1.2514 H       1  UNL1        0.0442
     53 H          -2.2000   -1.6083    1.3618 H       1  UNL1        0.0476
     54 H          -2.3301   -2.2165   -0.3416 H       1  UNL1        0.0476
     55 H           2.1745   -2.2271    0.3378 H       1  UNL1        0.0242
     56 H           3.2388   -2.0084    1.8102 H       1  UNL1        0.0242
     57 H           1.4297   -1.7779    1.9481 H       1  UNL1        0.0242
     58 H           1.1303    0.4842    2.5795 H       1  UNL1        0.0242
     59 H           2.8809    0.1256    3.0123 H       1  UNL1        0.0242
     60 H           2.4101    1.6160    2.0705 H       1  UNL1        0.0242
     61 H           5.1125   -0.4881    2.0434 H       1  UNL1        0.1656
     62 H           7.8268   -0.0580    1.3135 H       1  UNL1        0.0651
     63 H           8.1495    1.5209   -2.6303 H       1  UNL1        0.0631
     64 H           5.7244    1.4808   -2.8512 H       1  UNL1        0.0625
@<TRIPOS>BOND
     1     1     2    1
     2     2     3    1
     3     3     4   ar
     4     4     5   ar
     5     5     6   ar
     6     6     7   ar
     7     7     8   ar
     8     8     9    1
     9     9    10    1
    10    10    11    1
    11    11    12    1
    12    12    13    1
    13    13    14    1
    14    14    15    1
    15    15    16    1
    16    12    17    1
    17    17    18    1
    18     6    19    1
    19    19    20    1
    20    19    21    1
    21    19    22    1
    22    22    23   ar
    23    23    24   ar
    24    24    25   ar
    25    25    26   ar
    26    26    27    1
    27    27    28    3
    28    26    29   ar
    29    29    30   ar
    30    30    31   ar
    31    31    32   ar
    32    32    33    1
    33    33    34    2
    34     8     3   ar
    35    18     9    1
    36    32    22   ar
    37    33     5    1
    38    16    13    1
    39    31    24   ar
    40     1    35    1
    41     1    36    1
    42     1    37    1
    43     2    38    1
    44     2    39    1
    45     4    40    1
    46     7    41    1
    47    10    42    1
    48    10    43    1
    49    11    44    1
    50    11    45    1
    51    13    46    1
    52    14    47    1
    53    14    48    1
    54    16    49    1
    55    16    50    1
    56    17    51    1
    57    17    52    1
    58    18    53    1
    59    18    54    1
    60    20    55    1
    61    20    56    1
    62    20    57    1
    63    21    58    1
    64    21    59    1
    65    21    60    1
    66    23    61    1
    67    25    62    1
    68    29    63    1
    69    30    64    1
