
     RDKit          3D

 32 32  0  0  0  0  0  0  0  0999 V2000
   -5.6171    0.0700   -1.1622 C   0  0  0  0  0  0  0  0  0  0  0  0
   -5.0196    1.4115   -0.7957 C   0  0  0  0  0  0  0  0  0  0  0  0
   -3.6083    1.3188   -0.8454 O   0  0  0  0  0  0  0  0  0  0  0  0
   -2.8828    0.4406   -0.0600 C   0  0  0  0  0  0  0  0  0  0  0  0
   -3.4730   -0.3248    0.7458 O   0  0  0  0  0  0  0  0  0  0  0  0
   -1.3897    0.4199   -0.1880 C   0  0  0  0  0  0  0  0  0  0  0  0
   -0.7786   -0.5855    0.7335 C   0  0  0  0  0  0  0  0  0  0  0  0
    0.6968   -0.5529    0.5551 C   0  0  0  0  0  0  0  0  0  0  0  0
    1.3275   -1.3602   -0.3735 C   0  0  0  0  0  0  0  0  0  0  0  0
    2.7059   -1.3572   -0.5685 C   0  0  0  0  0  0  0  0  0  0  0  0
    3.4372   -0.4938    0.2225 C   0  0  0  0  0  0  0  0  0  0  0  0
    2.8829    0.3446    1.1724 C   0  0  0  0  0  0  0  0  0  0  0  0
    1.4943    0.2836    1.3088 C   0  0  0  0  0  0  0  0  0  0  0  0
    5.1802   -0.4645    0.0024 S   0  0  0  0  0  0  0  0  0  0  0  0
    5.5634    0.7082   -1.1878 N   0  0  0  0  0  0  0  0  0  0  0  0
    5.6733   -1.8395   -0.3294 O   0  0  0  0  0  0  0  0  0  0  0  0
    5.8923   -0.0604    1.2809 O   0  0  0  0  0  0  0  0  0  0  0  0
   -6.3589    0.1111   -1.9659 H   0  0  0  0  0  0  0  0  0  0  0  0
   -6.1096   -0.3209   -0.2280 H   0  0  0  0  0  0  0  0  0  0  0  0
   -4.8493   -0.6816   -1.4652 H   0  0  0  0  0  0  0  0  0  0  0  0
   -5.4076    1.8273    0.1460 H   0  0  0  0  0  0  0  0  0  0  0  0
   -5.3226    2.1147   -1.6216 H   0  0  0  0  0  0  0  0  0  0  0  0
   -1.0671    0.1746   -1.2186 H   0  0  0  0  0  0  0  0  0  0  0  0
   -1.0403    1.4202    0.1308 H   0  0  0  0  0  0  0  0  0  0  0  0
   -1.0346   -0.4068    1.7992 H   0  0  0  0  0  0  0  0  0  0  0  0
   -1.2066   -1.5871    0.4688 H   0  0  0  0  0  0  0  0  0  0  0  0
    0.7204   -2.0270   -0.9782 H   0  0  0  0  0  0  0  0  0  0  0  0
    3.1965   -1.9867   -1.2925 H   0  0  0  0  0  0  0  0  0  0  0  0
    3.4805    1.0014    1.7682 H   0  0  0  0  0  0  0  0  0  0  0  0
    0.9759    0.9000    2.0231 H   0  0  0  0  0  0  0  0  0  0  0  0
    5.4167    0.3881   -2.1672 H   0  0  0  0  0  0  0  0  0  0  0  0
    6.5217    1.1144   -1.0449 H   0  0  0  0  0  0  0  0  0  0  0  0
  1  2  1  0
  2  3  1  0
  3  4  1  0
  4  5  2  0
  4  6  1  0
  6  7  1  0
  7  8  1  0
  8  9  2  0
  9 10  1  0
 10 11  2  0
 11 12  1  0
 12 13  2  0
 11 14  1  0
 14 15  1  0
 14 16  2  0
 14 17  2  0
 13  8  1  0
  1 18  1  0
  1 19  1  0
  1 20  1  0
  2 21  1  0
  2 22  1  0
  6 23  1  0
  6 24  1  0
  7 25  1  0
  7 26  1  0
  9 27  1  0
 10 28  1  0
 12 29  1  0
 13 30  1  0
 15 31  1  0
 15 32  1  0
M  END
$$$$
