@<TRIPOS>MOLECULE
*****
 32 32 0 0 0
SMALL
GASTEIGER

@<TRIPOS>ATOM
      1 C          -5.6171    0.0700   -1.1622 C.3     1  UNL1       -0.0306
      2 C          -5.0196    1.4115   -0.7957 C.3     1  UNL1        0.0896
      3 O          -3.6083    1.3188   -0.8454 O.3     1  UNL1       -0.4649
      4 C          -2.8828    0.4406   -0.0600 C.2     1  UNL1        0.3074
      5 O          -3.4730   -0.3248    0.7458 O.2     1  UNL1       -0.2508
      6 C          -1.3897    0.4199   -0.1880 C.3     1  UNL1        0.0489
      7 C          -0.7786   -0.5855    0.7335 C.3     1  UNL1       -0.0176
      8 C           0.6968   -0.5529    0.5551 C.ar    1  UNL1       -0.0467
      9 C           1.3275   -1.3602   -0.3735 C.ar    1  UNL1       -0.0567
     10 C           2.7059   -1.3572   -0.5685 C.ar    1  UNL1       -0.0351
     11 C           3.4372   -0.4938    0.2225 C.ar    1  UNL1        0.1050
     12 C           2.8829    0.3446    1.1724 C.ar    1  UNL1       -0.0351
     13 C           1.4943    0.2836    1.3088 C.ar    1  UNL1       -0.0567
     14 S           5.1802   -0.4645    0.0024 S.O2    1  UNL1        0.0559
     15 N           5.5634    0.7082   -1.1878 N.3     1  UNL1       -0.2035
     16 O           5.6733   -1.8395   -0.3294 O.2     1  UNL1       -0.1533
     17 O           5.8923   -0.0604    1.2809 O.2     1  UNL1       -0.1533
     18 H          -6.3589    0.1111   -1.9659 H       1  UNL1        0.0262
     19 H          -6.1096   -0.3209   -0.2280 H       1  UNL1        0.0262
     20 H          -4.8493   -0.6816   -1.4652 H       1  UNL1        0.0262
     21 H          -5.4076    1.8273    0.1460 H       1  UNL1        0.0694
     22 H          -5.3226    2.1147   -1.6216 H       1  UNL1        0.0694
     23 H          -1.0671    0.1746   -1.2186 H       1  UNL1        0.0381
     24 H          -1.0403    1.4202    0.1308 H       1  UNL1        0.0381
     25 H          -1.0346   -0.4068    1.7992 H       1  UNL1        0.0318
     26 H          -1.2066   -1.5871    0.4688 H       1  UNL1        0.0318
     27 H           0.7204   -2.0270   -0.9782 H       1  UNL1        0.0621
     28 H           3.1965   -1.9867   -1.2925 H       1  UNL1        0.0637
     29 H           3.4805    1.0014    1.7682 H       1  UNL1        0.0637
     30 H           0.9759    0.9000    2.0231 H       1  UNL1        0.0621
     31 H           5.4167    0.3881   -2.1672 H       1  UNL1        0.1442
     32 H           6.5217    1.1144   -1.0449 H       1  UNL1        0.1442
@<TRIPOS>BOND
     1     1     2    1
     2     2     3    1
     3     3     4    1
     4     4     5    2
     5     4     6    1
     6     6     7    1
     7     7     8    1
     8     8     9   ar
     9     9    10   ar
    10    10    11   ar
    11    11    12   ar
    12    12    13   ar
    13    11    14    1
    14    14    15    1
    15    14    16    2
    16    14    17    2
    17    13     8   ar
    18     1    18    1
    19     1    19    1
    20     1    20    1
    21     2    21    1
    22     2    22    1
    23     6    23    1
    24     6    24    1
    25     7    25    1
    26     7    26    1
    27     9    27    1
    28    10    28    1
    29    12    29    1
    30    13    30    1
    31    15    31    1
    32    15    32    1
