@<TRIPOS>MOLECULE
*****
 48 51 0 0 0
SMALL
GASTEIGER

@<TRIPOS>ATOM
      1 C          -3.0199    2.2659    1.8637 C.3     1  UNL1       -0.0432
      2 C          -3.8918    1.3461    1.1019 C.2     1  UNL1       -0.0674
      3 C          -5.3489    1.5339    1.2150 C.3     1  UNL1       -0.0432
      4 C          -3.3560    0.4287    0.3548 C.2     1  UNL1       -0.0119
      5 C          -4.1049   -0.5362   -0.4403 C.ar    1  UNL1       -0.0145
      6 C          -3.7239   -0.8508   -1.7407 C.ar    1  UNL1       -0.0359
      7 C          -4.3842   -1.7623   -2.5286 C.ar    1  UNL1        0.0281
      8 N          -5.4531   -2.3923   -2.0387 N.ar    1  UNL1       -0.2632
      9 C          -5.8539   -2.1187   -0.7883 C.ar    1  UNL1        0.0281
     10 C          -5.2137   -1.2105    0.0272 C.ar    1  UNL1       -0.0359
     11 C          -1.9028    0.3353    0.3104 C.ar    1  UNL1       -0.0173
     12 C          -1.2606    1.0117   -0.7006 C.ar    1  UNL1       -0.0534
     13 C           0.1075    0.9739   -0.8243 C.ar    1  UNL1       -0.0535
     14 C           0.8609    0.2518    0.0712 C.ar    1  UNL1       -0.0178
     15 C           2.3122    0.2490   -0.1140 C.ar    1  UNL1       -0.0173
     16 C           3.0135    1.3082   -0.6357 C.ar    1  UNL1       -0.0534
     17 C           4.3783    1.3229   -0.8155 C.ar    1  UNL1       -0.0533
     18 C           5.0911    0.1980   -0.4470 C.ar    1  UNL1       -0.0144
     19 C           6.4609    0.2224   -0.6313 C.ar    1  UNL1       -0.0125
     20 C           7.2135   -0.8720   -0.2798 C.ar    1  UNL1        0.1175
     21 O           8.5721   -0.8391   -0.4665 O.3     1  UNL1       -0.5067
     22 C           6.5590   -1.9754    0.2547 C.ar    1  UNL1       -0.0196
     23 C           5.1918   -1.9890    0.4340 C.ar    1  UNL1       -0.0506
     24 C           4.4369   -0.8920    0.0815 C.ar    1  UNL1       -0.0171
     25 C           3.0660   -0.8670    0.2457 C.ar    1  UNL1       -0.0463
     26 C           0.2456   -0.4438    1.1058 C.ar    1  UNL1       -0.0535
     27 C          -1.1399   -0.3852    1.2025 C.ar    1  UNL1       -0.0534
     28 H          -2.9530    1.9605    2.9352 H       1  UNL1        0.0275
     29 H          -3.3502    3.3274    1.8097 H       1  UNL1        0.0275
     30 H          -1.9854    2.2570    1.4215 H       1  UNL1        0.0275
     31 H          -5.9323    1.2058    0.3458 H       1  UNL1        0.0275
     32 H          -5.7234    1.0585    2.1593 H       1  UNL1        0.0275
     33 H          -5.6037    2.6412    1.3081 H       1  UNL1        0.0275
     34 H          -2.8597   -0.3515   -2.1539 H       1  UNL1        0.0639
     35 H          -4.0627   -1.9803   -3.5290 H       1  UNL1        0.0830
     36 H          -6.7249   -2.6392   -0.4042 H       1  UNL1        0.0830
     37 H          -5.5503   -1.0141    1.0409 H       1  UNL1        0.0639
     38 H          -1.7886    1.6132   -1.4454 H       1  UNL1        0.0624
     39 H           0.5922    1.5108   -1.6228 H       1  UNL1        0.0624
     40 H           2.4597    2.1892   -0.9253 H       1  UNL1        0.0624
     41 H           4.9106    2.1731   -1.2311 H       1  UNL1        0.0624
     42 H           6.9483    1.0994   -1.0526 H       1  UNL1        0.0660
     43 H           9.1869   -0.0834   -0.2951 H       1  UNL1        0.2921
     44 H           7.1706   -2.8186    0.5215 H       1  UNL1        0.0654
     45 H           4.6690   -2.8373    0.8469 H       1  UNL1        0.0625
     46 H           2.5339   -1.7015    0.6527 H       1  UNL1        0.0630
     47 H           0.8485   -1.0073    1.8034 H       1  UNL1        0.0624
     48 H          -1.6413   -0.9169    1.9974 H       1  UNL1        0.0624
@<TRIPOS>BOND
     1     1     2    1
     2     2     3    1
     3     2     4    2
     4     4     5    1
     5     5     6   ar
     6     6     7   ar
     7     7     8   ar
     8     8     9   ar
     9     9    10   ar
    10     4    11    1
    11    11    12   ar
    12    12    13   ar
    13    13    14   ar
    14    14    15    1
    15    15    16   ar
    16    16    17   ar
    17    17    18   ar
    18    18    19   ar
    19    19    20   ar
    20    20    21    1
    21    20    22   ar
    22    22    23   ar
    23    23    24   ar
    24    24    25   ar
    25    14    26   ar
    26    26    27   ar
    27    10     5   ar
    28    27    11   ar
    29    25    15   ar
    30    24    18   ar
    31     1    28    1
    32     1    29    1
    33     1    30    1
    34     3    31    1
    35     3    32    1
    36     3    33    1
    37     6    34    1
    38     7    35    1
    39     9    36    1
    40    10    37    1
    41    12    38    1
    42    13    39    1
    43    16    40    1
    44    17    41    1
    45    19    42    1
    46    21    43    1
    47    22    44    1
    48    23    45    1
    49    25    46    1
    50    26    47    1
    51    27    48    1
