@<TRIPOS>MOLECULE
*****
 80 84 0 0 0
SMALL
GASTEIGER

@<TRIPOS>ATOM
      1 C          -5.7376    1.8305   -2.7168 C.3     1  UNL1        0.0364
      2 O          -4.4674    1.4910   -2.3087 O.3     1  UNL1       -0.3830
      3 C          -3.7426    0.9046   -3.3240 C.3     1  UNL1        0.0473
      4 C          -2.3612    0.4919   -3.0138 C.3     1  UNL1       -0.0294
      5 C          -2.2155   -0.5890   -1.9206 C.3     1  UNL1       -0.0498
      6 C          -2.7566   -0.1099   -0.6742 C.3     1  UNL1       -0.0376
      7 C          -2.6634   -0.8984    0.6077 C.3     1  UNL1        0.0430
      8 C          -1.2934   -1.1975    1.0871 C.3     1  UNL1        0.0255
      9 N          -0.3441   -0.1986    1.3548 N.am    1  UNL1       -0.3139
     10 C           0.9390   -0.7006    1.8617 C.2     1  UNL1        0.2174
     11 O           1.0744   -1.9305    2.0066 O.2     1  UNL1       -0.2755
     12 C           2.0297    0.2066    2.1897 C.3     1  UNL1        0.0495
     13 C           1.6815    1.2244    3.2564 C.3     1  UNL1        0.0071
     14 N           1.8393    2.5852    2.7093 N.3     1  UNL1       -0.3137
     15 C           3.2427    2.7502    2.4099 C.3     1  UNL1        0.0130
     16 C           3.5818    1.9115    1.2090 C.3     1  UNL1        0.0420
     17 N           3.6821    2.7845    0.0681 N.3     1  UNL1       -0.1857
     18 S           5.2293    2.7677   -0.6754 S.O2    1  UNL1        0.0587
     19 O           5.1812    3.8001   -1.7942 O.2     1  UNL1       -0.1530
     20 O           6.2287    3.3080    0.3241 O.2     1  UNL1       -0.1530
     21 C           5.6828    1.2228   -1.2967 C.ar    1  UNL1        0.1053
     22 C           5.3655    0.8174   -2.5760 C.ar    1  UNL1       -0.0351
     23 C           5.7479   -0.4426   -3.0487 C.ar    1  UNL1       -0.0570
     24 C           6.4480   -1.2861   -2.2285 C.ar    1  UNL1       -0.0503
     25 C           6.8655   -2.6388   -2.7102 C.3     1  UNL1       -0.0397
     26 C           6.7756   -0.9082   -0.9549 C.ar    1  UNL1       -0.0570
     27 C           6.3875    0.3426   -0.5075 C.ar    1  UNL1       -0.0351
     28 C           2.5044    0.8938    0.9239 C.3     1  UNL1       -0.0225
     29 C          -3.4253   -0.1174    1.5991 C.ar    1  UNL1        0.0070
     30 C          -3.0576    1.2041    1.9021 C.ar    1  UNL1       -0.0542
     31 C          -3.7380    1.9906    2.8139 C.ar    1  UNL1       -0.0612
     32 C          -4.8255    1.5114    3.4780 C.ar    1  UNL1       -0.0583
     33 C          -5.2008    0.2267    3.1942 C.ar    1  UNL1       -0.0190
     34 C          -4.5127   -0.5832    2.2653 C.ar    1  UNL1        0.1325
     35 O          -5.0142   -1.8625    2.0753 O.3     1  UNL1       -0.4554
     36 C          -4.3535   -2.6657    1.1645 C.ar    1  UNL1        0.1325
     37 C          -4.8622   -3.9773    0.9742 C.ar    1  UNL1       -0.0190
     38 C          -4.2635   -4.8411    0.0968 C.ar    1  UNL1       -0.0583
     39 C          -3.1591   -4.4085   -0.5934 C.ar    1  UNL1       -0.0612
     40 C          -2.6353   -3.1472   -0.4383 C.ar    1  UNL1       -0.0542
     41 C          -3.2670   -2.2807    0.4627 C.ar    1  UNL1        0.0070
     42 H          -6.3093    0.9328   -3.0573 H       1  UNL1        0.0523
     43 H          -6.2992    2.2532   -1.8455 H       1  UNL1        0.0523
     44 H          -5.6832    2.6143   -3.4739 H       1  UNL1        0.0523
     45 H          -4.3053    0.0167   -3.7087 H       1  UNL1        0.0560
     46 H          -3.6708    1.6491   -4.1777 H       1  UNL1        0.0560
     47 H          -1.7748    0.1710   -3.9082 H       1  UNL1        0.0287
     48 H          -1.8122    1.4220   -2.6718 H       1  UNL1        0.0287
     49 H          -1.1312   -0.8182   -1.8834 H       1  UNL1        0.0266
     50 H          -2.7115   -1.5162   -2.3384 H       1  UNL1        0.0266
     51 H          -3.8641    0.0606   -0.7967 H       1  UNL1        0.0277
     52 H          -2.3579    0.8999   -0.4454 H       1  UNL1        0.0277
     53 H          -1.4655   -1.7200    2.1073 H       1  UNL1        0.0474
     54 H          -0.8157   -2.0564    0.5181 H       1  UNL1        0.0474
     55 H          -0.3644    0.8246    1.2456 H       1  UNL1        0.1487
     56 H           2.8919   -0.3768    2.5635 H       1  UNL1        0.0407
     57 H           0.6651    1.1539    3.6346 H       1  UNL1        0.0431
     58 H           2.3802    1.1646    4.1141 H       1  UNL1        0.0431
     59 H           1.2882    2.6790    1.8334 H       1  UNL1        0.1220
     60 H           3.8679    2.3734    3.2664 H       1  UNL1        0.0440
     61 H           3.4555    3.8247    2.2209 H       1  UNL1        0.0440
     62 H           4.5779    1.4017    1.3610 H       1  UNL1        0.0490
     63 H           2.8935    2.6386   -0.5698 H       1  UNL1        0.1484
     64 H           4.8211    1.4458   -3.2448 H       1  UNL1        0.0637
     65 H           5.5095   -0.7794   -4.0473 H       1  UNL1        0.0621
     66 H           6.3083   -2.8937   -3.6206 H       1  UNL1        0.0278
     67 H           6.6390   -3.3406   -1.8570 H       1  UNL1        0.0278
     68 H           7.9497   -2.7054   -2.8632 H       1  UNL1        0.0278
     69 H           7.3288   -1.6000   -0.3362 H       1  UNL1        0.0621
     70 H           6.6566    0.6115    0.4858 H       1  UNL1        0.0637
     71 H           2.9601    0.1014    0.2902 H       1  UNL1        0.0289
     72 H           1.6598    1.3157    0.3645 H       1  UNL1        0.0289
     73 H          -2.2508    1.6877    1.4140 H       1  UNL1        0.0622
     74 H          -3.4029    3.0105    3.0084 H       1  UNL1        0.0618
     75 H          -5.3326    2.1490    4.1825 H       1  UNL1        0.0619
     76 H          -6.0590   -0.1863    3.7019 H       1  UNL1        0.0654
     77 H          -5.7366   -4.2416    1.5574 H       1  UNL1        0.0654
     78 H          -4.6706   -5.8379   -0.0325 H       1  UNL1        0.0619
     79 H          -2.6710   -5.0824   -1.2939 H       1  UNL1        0.0618
     80 H          -1.7546   -2.8293   -0.9498 H       1  UNL1        0.0622
@<TRIPOS>BOND
     1     1     2    1
     2     2     3    1
     3     3     4    1
     4     4     5    1
     5     5     6    1
     6     6     7    1
     7     7     8    1
     8     8     9    1
     9     9    10   am
    10    10    11    2
    11    10    12    1
    12    12    13    1
    13    13    14    1
    14    14    15    1
    15    15    16    1
    16    16    17    1
    17    17    18    1
    18    18    19    2
    19    18    20    2
    20    18    21    1
    21    21    22   ar
    22    22    23   ar
    23    23    24   ar
    24    24    25    1
    25    24    26   ar
    26    26    27   ar
    27    16    28    1
    28     7    29    1
    29    29    30   ar
    30    30    31   ar
    31    31    32   ar
    32    32    33   ar
    33    33    34   ar
    34    34    35    1
    35    35    36    1
    36    36    37   ar
    37    37    38   ar
    38    38    39   ar
    39    39    40   ar
    40    40    41   ar
    41    41     7    1
    42    28    12    1
    43    34    29   ar
    44    41    36   ar
    45    27    21   ar
    46     1    42    1
    47     1    43    1
    48     1    44    1
    49     3    45    1
    50     3    46    1
    51     4    47    1
    52     4    48    1
    53     5    49    1
    54     5    50    1
    55     6    51    1
    56     6    52    1
    57     8    53    1
    58     8    54    1
    59     9    55    1
    60    12    56    1
    61    13    57    1
    62    13    58    1
    63    14    59    1
    64    15    60    1
    65    15    61    1
    66    16    62    1
    67    17    63    1
    68    22    64    1
    69    23    65    1
    70    25    66    1
    71    25    67    1
    72    25    68    1
    73    26    69    1
    74    27    70    1
    75    28    71    1
    76    28    72    1
    77    30    73    1
    78    31    74    1
    79    32    75    1
    80    33    76    1
    81    37    77    1
    82    38    78    1
    83    39    79    1
    84    40    80    1
