
     RDKit          3D

 80 84  0  0  0  0  0  0  0  0999 V2000
   -5.7376    1.8305   -2.7168 C   0  0  0  0  0  0  0  0  0  0  0  0
   -4.4674    1.4910   -2.3087 O   0  0  0  0  0  0  0  0  0  0  0  0
   -3.7426    0.9046   -3.3240 C   0  0  0  0  0  0  0  0  0  0  0  0
   -2.3612    0.4919   -3.0138 C   0  0  0  0  0  0  0  0  0  0  0  0
   -2.2155   -0.5890   -1.9206 C   0  0  0  0  0  0  0  0  0  0  0  0
   -2.7566   -0.1099   -0.6742 C   0  0  0  0  0  0  0  0  0  0  0  0
   -2.6634   -0.8984    0.6077 C   0  0  0  0  0  0  0  0  0  0  0  0
   -1.2934   -1.1975    1.0871 C   0  0  0  0  0  0  0  0  0  0  0  0
   -0.3441   -0.1986    1.3548 N   0  0  0  0  0  0  0  0  0  0  0  0
    0.9390   -0.7006    1.8617 C   0  0  0  0  0  0  0  0  0  0  0  0
    1.0744   -1.9305    2.0066 O   0  0  0  0  0  0  0  0  0  0  0  0
    2.0297    0.2066    2.1897 C   0  0  2  0  0  0  0  0  0  0  0  0
    1.6815    1.2244    3.2564 C   0  0  0  0  0  0  0  0  0  0  0  0
    1.8393    2.5852    2.7093 N   0  0  0  0  0  0  0  0  0  0  0  0
    3.2427    2.7502    2.4099 C   0  0  0  0  0  0  0  0  0  0  0  0
    3.5818    1.9115    1.2090 C   0  0  2  0  0  0  0  0  0  0  0  0
    3.6821    2.7845    0.0681 N   0  0  0  0  0  0  0  0  0  0  0  0
    5.2293    2.7677   -0.6754 S   0  0  0  0  0  6  0  0  0  0  0  0
    5.1812    3.8001   -1.7942 O   0  0  0  0  0  0  0  0  0  0  0  0
    6.2287    3.3080    0.3241 O   0  0  0  0  0  0  0  0  0  0  0  0
    5.6828    1.2228   -1.2967 C   0  0  0  0  0  0  0  0  0  0  0  0
    5.3655    0.8174   -2.5760 C   0  0  0  0  0  0  0  0  0  0  0  0
    5.7479   -0.4426   -3.0487 C   0  0  0  0  0  0  0  0  0  0  0  0
    6.4480   -1.2861   -2.2285 C   0  0  0  0  0  0  0  0  0  0  0  0
    6.8655   -2.6388   -2.7102 C   0  0  0  0  0  0  0  0  0  0  0  0
    6.7756   -0.9082   -0.9549 C   0  0  0  0  0  0  0  0  0  0  0  0
    6.3875    0.3426   -0.5075 C   0  0  0  0  0  0  0  0  0  0  0  0
    2.5044    0.8938    0.9239 C   0  0  0  0  0  0  0  0  0  0  0  0
   -3.4253   -0.1174    1.5991 C   0  0  0  0  0  0  0  0  0  0  0  0
   -3.0576    1.2041    1.9021 C   0  0  0  0  0  0  0  0  0  0  0  0
   -3.7380    1.9906    2.8139 C   0  0  0  0  0  0  0  0  0  0  0  0
   -4.8255    1.5114    3.4780 C   0  0  0  0  0  0  0  0  0  0  0  0
   -5.2008    0.2267    3.1942 C   0  0  0  0  0  0  0  0  0  0  0  0
   -4.5127   -0.5832    2.2653 C   0  0  0  0  0  0  0  0  0  0  0  0
   -5.0142   -1.8625    2.0753 O   0  0  0  0  0  0  0  0  0  0  0  0
   -4.3535   -2.6657    1.1645 C   0  0  0  0  0  0  0  0  0  0  0  0
   -4.8622   -3.9773    0.9742 C   0  0  0  0  0  0  0  0  0  0  0  0
   -4.2635   -4.8411    0.0968 C   0  0  0  0  0  0  0  0  0  0  0  0
   -3.1591   -4.4085   -0.5934 C   0  0  0  0  0  0  0  0  0  0  0  0
   -2.6353   -3.1472   -0.4383 C   0  0  0  0  0  0  0  0  0  0  0  0
   -3.2670   -2.2807    0.4627 C   0  0  0  0  0  0  0  0  0  0  0  0
   -6.3093    0.9328   -3.0573 H   0  0  0  0  0  0  0  0  0  0  0  0
   -6.2992    2.2532   -1.8455 H   0  0  0  0  0  0  0  0  0  0  0  0
   -5.6832    2.6143   -3.4739 H   0  0  0  0  0  0  0  0  0  0  0  0
   -4.3053    0.0167   -3.7087 H   0  0  0  0  0  0  0  0  0  0  0  0
   -3.6708    1.6491   -4.1777 H   0  0  0  0  0  0  0  0  0  0  0  0
   -1.7748    0.1710   -3.9082 H   0  0  0  0  0  0  0  0  0  0  0  0
   -1.8122    1.4220   -2.6718 H   0  0  0  0  0  0  0  0  0  0  0  0
   -1.1312   -0.8182   -1.8834 H   0  0  0  0  0  0  0  0  0  0  0  0
   -2.7115   -1.5162   -2.3384 H   0  0  0  0  0  0  0  0  0  0  0  0
   -3.8641    0.0606   -0.7967 H   0  0  0  0  0  0  0  0  0  0  0  0
   -2.3579    0.8999   -0.4454 H   0  0  0  0  0  0  0  0  0  0  0  0
   -1.4655   -1.7200    2.1073 H   0  0  0  0  0  0  0  0  0  0  0  0
   -0.8157   -2.0564    0.5181 H   0  0  0  0  0  0  0  0  0  0  0  0
   -0.3644    0.8246    1.2456 H   0  0  0  0  0  0  0  0  0  0  0  0
    2.8919   -0.3768    2.5635 H   0  0  0  0  0  0  0  0  0  0  0  0
    0.6651    1.1539    3.6346 H   0  0  0  0  0  0  0  0  0  0  0  0
    2.3802    1.1646    4.1141 H   0  0  0  0  0  0  0  0  0  0  0  0
    1.2882    2.6790    1.8334 H   0  0  0  0  0  0  0  0  0  0  0  0
    3.8679    2.3734    3.2664 H   0  0  0  0  0  0  0  0  0  0  0  0
    3.4555    3.8247    2.2209 H   0  0  0  0  0  0  0  0  0  0  0  0
    4.5779    1.4017    1.3610 H   0  0  0  0  0  0  0  0  0  0  0  0
    2.8935    2.6386   -0.5698 H   0  0  0  0  0  0  0  0  0  0  0  0
    4.8211    1.4458   -3.2448 H   0  0  0  0  0  0  0  0  0  0  0  0
    5.5095   -0.7794   -4.0473 H   0  0  0  0  0  0  0  0  0  0  0  0
    6.3083   -2.8937   -3.6206 H   0  0  0  0  0  0  0  0  0  0  0  0
    6.6390   -3.3406   -1.8570 H   0  0  0  0  0  0  0  0  0  0  0  0
    7.9497   -2.7054   -2.8632 H   0  0  0  0  0  0  0  0  0  0  0  0
    7.3288   -1.6000   -0.3362 H   0  0  0  0  0  0  0  0  0  0  0  0
    6.6566    0.6115    0.4858 H   0  0  0  0  0  0  0  0  0  0  0  0
    2.9601    0.1014    0.2902 H   0  0  0  0  0  0  0  0  0  0  0  0
    1.6598    1.3157    0.3645 H   0  0  0  0  0  0  0  0  0  0  0  0
   -2.2508    1.6877    1.4140 H   0  0  0  0  0  0  0  0  0  0  0  0
   -3.4029    3.0105    3.0084 H   0  0  0  0  0  0  0  0  0  0  0  0
   -5.3326    2.1490    4.1825 H   0  0  0  0  0  0  0  0  0  0  0  0
   -6.0590   -0.1863    3.7019 H   0  0  0  0  0  0  0  0  0  0  0  0
   -5.7366   -4.2416    1.5574 H   0  0  0  0  0  0  0  0  0  0  0  0
   -4.6706   -5.8379   -0.0325 H   0  0  0  0  0  0  0  0  0  0  0  0
   -2.6710   -5.0824   -1.2939 H   0  0  0  0  0  0  0  0  0  0  0  0
   -1.7546   -2.8293   -0.9498 H   0  0  0  0  0  0  0  0  0  0  0  0
  1  2  1  0
  2  3  1  0
  3  4  1  0
  4  5  1  0
  5  6  1  0
  6  7  1  0
  7  8  1  0
  8  9  1  0
  9 10  1  0
 10 11  2  0
 10 12  1  0
 12 13  1  0
 13 14  1  0
 14 15  1  0
 15 16  1  0
 16 17  1  0
 17 18  1  0
 18 19  2  0
 18 20  2  0
 18 21  1  0
 21 22  2  0
 22 23  1  0
 23 24  2  0
 24 25  1  0
 24 26  1  0
 26 27  2  0
 16 28  1  0
  7 29  1  0
 29 30  2  0
 30 31  1  0
 31 32  2  0
 32 33  1  0
 33 34  2  0
 34 35  1  0
 35 36  1  0
 36 37  2  0
 37 38  1  0
 38 39  2  0
 39 40  1  0
 40 41  2  0
 41  7  1  0
 28 12  1  0
 34 29  1  0
 41 36  1  0
 27 21  1  0
  1 42  1  0
  1 43  1  0
  1 44  1  0
  3 45  1  0
  3 46  1  0
  4 47  1  0
  4 48  1  0
  5 49  1  0
  5 50  1  0
  6 51  1  0
  6 52  1  0
  8 53  1  0
  8 54  1  0
  9 55  1  0
 12 56  1  1
 13 57  1  0
 13 58  1  0
 14 59  1  0
 15 60  1  0
 15 61  1  0
 16 62  1  1
 17 63  1  0
 22 64  1  0
 23 65  1  0
 25 66  1  0
 25 67  1  0
 25 68  1  0
 26 69  1  0
 27 70  1  0
 28 71  1  0
 28 72  1  0
 30 73  1  0
 31 74  1  0
 32 75  1  0
 33 76  1  0
 37 77  1  0
 38 78  1  0
 39 79  1  0
 40 80  1  0
M  END
$$$$
