@<TRIPOS>MOLECULE
*****
 57 58 0 0 0
SMALL
GASTEIGER

@<TRIPOS>ATOM
      1 C           5.0446    0.0811    1.9164 C.3     1  UNL1       -0.0524
      2 C           4.5739   -1.0649    1.0703 C.3     1  UNL1       -0.0038
      3 N           4.0725   -0.7018   -0.1992 N.3     1  UNL1       -0.2996
      4 C           4.9954   -0.1841   -1.1221 C.3     1  UNL1       -0.0038
      5 C           4.4481    0.1012   -2.4866 C.3     1  UNL1       -0.0524
      6 C           2.7378   -0.2654   -0.3055 C.3     1  UNL1        0.0332
      7 C           1.6989   -1.3197   -0.0874 C.3     1  UNL1        0.1051
      8 O           0.4301   -0.7255   -0.2121 O.3     1  UNL1       -0.4630
      9 C          -0.1271    0.2402    0.5674 C.2     1  UNL1        0.3136
     10 O           0.5374    0.7037    1.5579 O.2     1  UNL1       -0.2502
     11 C          -1.5209    0.6574    0.1479 C.3     1  UNL1        0.0706
     12 C          -2.0386    1.4932    1.2971 C.3     1  UNL1       -0.0370
     13 C          -1.6400    2.9330    1.2199 C.3     1  UNL1       -0.0520
     14 C          -2.3634    3.6077    0.1064 C.3     1  UNL1       -0.0530
     15 C          -2.4262    2.6793   -1.0665 C.3     1  UNL1       -0.0520
     16 C          -1.3900    1.5856   -1.0211 C.3     1  UNL1       -0.0370
     17 C          -2.2567   -0.5901   -0.1184 C.3     1  UNL1       -0.0253
     18 C          -2.3387   -1.4214    1.1538 C.3     1  UNL1       -0.0492
     19 C          -2.6727   -2.8560    0.7467 C.3     1  UNL1       -0.0528
     20 C          -4.0718   -2.7818    0.1270 C.3     1  UNL1       -0.0530
     21 C          -3.9504   -1.9544   -1.1435 C.3     1  UNL1       -0.0528
     22 C          -3.6062   -0.5136   -0.7228 C.3     1  UNL1       -0.0492
     23 H           4.8755   -0.1731    2.9953 H       1  UNL1        0.0242
     24 H           6.1623    0.2516    1.8528 H       1  UNL1        0.0242
     25 H           4.4682    1.0225    1.7674 H       1  UNL1        0.0242
     26 H           3.8677   -1.6598    1.6859 H       1  UNL1        0.0424
     27 H           5.4632   -1.7406    0.9341 H       1  UNL1        0.0424
     28 H           5.4353    0.7959   -0.7726 H       1  UNL1        0.0424
     29 H           5.8842   -0.8527   -1.2253 H       1  UNL1        0.0424
     30 H           3.8101   -0.7150   -2.8790 H       1  UNL1        0.0242
     31 H           5.3119    0.1438   -3.2147 H       1  UNL1        0.0242
     32 H           3.9121    1.0504   -2.5599 H       1  UNL1        0.0242
     33 H           2.5023    0.6079    0.3174 H       1  UNL1        0.0460
     34 H           2.5723    0.0833   -1.3750 H       1  UNL1        0.0460
     35 H           1.7283   -1.7874    0.9148 H       1  UNL1        0.0710
     36 H           1.7184   -2.1036   -0.8964 H       1  UNL1        0.0710
     37 H          -3.1551    1.4839    1.3765 H       1  UNL1        0.0276
     38 H          -1.5830    1.0996    2.2572 H       1  UNL1        0.0276
     39 H          -0.5572    3.0991    1.1008 H       1  UNL1        0.0266
     40 H          -1.8968    3.3839    2.2197 H       1  UNL1        0.0266
     41 H          -3.3925    3.8751    0.4831 H       1  UNL1        0.0265
     42 H          -1.9113    4.5731   -0.2059 H       1  UNL1        0.0265
     43 H          -2.2024    3.2560   -2.0119 H       1  UNL1        0.0266
     44 H          -3.4576    2.3444   -1.1735 H       1  UNL1        0.0266
     45 H          -1.2918    1.1038   -1.9913 H       1  UNL1        0.0276
     46 H          -0.4101    2.1372   -0.8773 H       1  UNL1        0.0276
     47 H          -1.6377   -1.2452   -0.8166 H       1  UNL1        0.0311
     48 H          -3.1688   -1.0986    1.8202 H       1  UNL1        0.0268
     49 H          -1.3577   -1.4180    1.6519 H       1  UNL1        0.0268
     50 H          -1.9607   -3.2496   -0.0007 H       1  UNL1        0.0265
     51 H          -2.6533   -3.4309    1.6854 H       1  UNL1        0.0265
     52 H          -4.7143   -2.1994    0.8113 H       1  UNL1        0.0265
     53 H          -4.4552   -3.7958   -0.1041 H       1  UNL1        0.0265
     54 H          -3.1008   -2.3777   -1.7503 H       1  UNL1        0.0265
     55 H          -4.8839   -1.9986   -1.7054 H       1  UNL1        0.0265
     56 H          -4.4241   -0.2056   -0.0457 H       1  UNL1        0.0268
     57 H          -3.6338    0.0365   -1.6935 H       1  UNL1        0.0268
@<TRIPOS>BOND
     1     1     2    1
     2     2     3    1
     3     3     4    1
     4     4     5    1
     5     3     6    1
     6     6     7    1
     7     7     8    1
     8     8     9    1
     9     9    10    2
    10     9    11    1
    11    11    12    1
    12    12    13    1
    13    13    14    1
    14    14    15    1
    15    15    16    1
    16    11    17    1
    17    17    18    1
    18    18    19    1
    19    19    20    1
    20    20    21    1
    21    21    22    1
    22    16    11    1
    23    22    17    1
    24     1    23    1
    25     1    24    1
    26     1    25    1
    27     2    26    1
    28     2    27    1
    29     4    28    1
    30     4    29    1
    31     5    30    1
    32     5    31    1
    33     5    32    1
    34     6    33    1
    35     6    34    1
    36     7    35    1
    37     7    36    1
    38    12    37    1
    39    12    38    1
    40    13    39    1
    41    13    40    1
    42    14    41    1
    43    14    42    1
    44    15    43    1
    45    15    44    1
    46    16    45    1
    47    16    46    1
    48    17    47    1
    49    18    48    1
    50    18    49    1
    51    19    50    1
    52    19    51    1
    53    20    52    1
    54    20    53    1
    55    21    54    1
    56    21    55    1
    57    22    56    1
    58    22    57    1
