@<TRIPOS>MOLECULE
*****
 48 51 0 0 0
SMALL
GASTEIGER

@<TRIPOS>ATOM
      1 C           3.0071   -0.2104    1.9875 C.3     1  UNL1       -0.0375
      2 C           4.0510   -0.1070    0.9494 C.ar    1  UNL1       -0.0194
      3 C           5.3435    0.3303    1.3120 C.ar    1  UNL1       -0.0436
      4 C           6.3791    0.3960    0.4190 C.ar    1  UNL1        0.0731
      5 C           7.7347    0.8605    0.8231 C.3     1  UNL1        0.4188
      6 F           7.5864    2.1269    1.3444 F       1  UNL1       -0.1658
      7 F           8.2773    0.0192    1.7730 F       1  UNL1       -0.1658
      8 F           8.5495    0.9180   -0.2721 F       1  UNL1       -0.1658
      9 C           6.1083    0.0121   -0.8725 C.ar    1  UNL1        0.0401
     10 N           4.8973   -0.4033   -1.2404 N.ar    1  UNL1       -0.2495
     11 C           3.8716   -0.4624   -0.3361 C.ar    1  UNL1        0.1286
     12 C           2.5848   -0.8528   -0.8852 C.2     1  UNL1        0.2668
     13 O           2.6610   -1.7070   -1.8396 O.2     1  UNL1       -0.2682
     14 N           1.3269   -0.3958   -0.4872 N.am    1  UNL1       -0.2802
     15 C           0.0830   -0.8115   -1.0358 C.ar    1  UNL1        0.0341
     16 C          -0.0169   -1.7361   -2.0267 C.ar    1  UNL1       -0.0391
     17 C          -1.2841   -2.0870   -2.5096 C.ar    1  UNL1       -0.0413
     18 C          -2.4052   -1.4998   -1.9828 C.ar    1  UNL1        0.0467
     19 CL         -3.9851   -2.0379   -2.5546 Cl      1  UNL1       -0.0832
     20 C          -2.3615   -0.5542   -0.9778 C.ar    1  UNL1        0.0059
     21 C          -3.5766    0.1516   -0.4867 C.3     1  UNL1        0.1590
     22 C          -4.1414    1.0511   -1.5278 C.3     1  UNL1        0.2685
     23 F          -4.5270    0.4823   -2.7039 F       1  UNL1       -0.2062
     24 F          -3.2232    2.0553   -1.8897 F       1  UNL1       -0.2062
     25 N          -4.5406   -0.8476   -0.0884 N.2     1  UNL1       -0.2194
     26 C          -5.5712   -0.5410    0.6390 C.2     1  UNL1        0.2764
     27 N          -6.5595   -1.4530    1.0678 N.pl3   1  UNL1       -0.3134
     28 O          -5.5968    0.8457    0.9677 O.2     1  UNL1       -0.4622
     29 C          -4.4177    1.4076    1.5174 C.3     1  UNL1        0.1091
     30 C          -3.6477    2.3929    0.7818 C.3     1  UNL1       -0.0064
     31 C          -3.2115    1.0021    0.7377 C.3     1  UNL1        0.0344
     32 C          -1.0998   -0.2352   -0.5284 C.ar    1  UNL1       -0.0334
     33 H           3.5037   -0.4339    2.9955 H       1  UNL1        0.0278
     34 H           2.3237   -1.0262    1.7333 H       1  UNL1        0.0278
     35 H           2.5251    0.7600    2.1242 H       1  UNL1        0.0278
     36 H           5.4856    0.6171    2.3447 H       1  UNL1        0.0627
     37 H           6.9029    0.0500   -1.6054 H       1  UNL1        0.0835
     38 H           1.3084    0.3567    0.2707 H       1  UNL1        0.1552
     39 H           0.8147   -2.2446   -2.4923 H       1  UNL1        0.0636
     40 H          -1.3565   -2.8235   -3.2987 H       1  UNL1        0.0633
     41 H          -5.0202    1.6451   -1.1149 H       1  UNL1        0.1047
     42 H          -7.4201   -1.5355    0.4771 H       1  UNL1        0.1466
     43 H          -6.4883   -2.0440    1.9265 H       1  UNL1        0.1466
     44 H          -4.3898    1.4236    2.6185 H       1  UNL1        0.0737
     45 H          -2.9896    3.0797    1.4041 H       1  UNL1        0.0306
     46 H          -4.1264    2.9622   -0.0215 H       1  UNL1        0.0306
     47 H          -2.4046    0.6036    1.3663 H       1  UNL1        0.0366
     48 H          -0.9644    0.5000    0.2366 H       1  UNL1        0.0640
@<TRIPOS>BOND
     1     1     2    1
     2     2     3   ar
     3     3     4   ar
     4     4     5    1
     5     5     6    1
     6     5     7    1
     7     5     8    1
     8     4     9   ar
     9     9    10   ar
    10    10    11   ar
    11    11    12    1
    12    12    13    2
    13    12    14   am
    14    14    15    1
    15    15    16   ar
    16    16    17   ar
    17    17    18   ar
    18    18    19    1
    19    18    20   ar
    20    20    21    1
    21    21    22    1
    22    22    23    1
    23    22    24    1
    24    21    25    1
    25    25    26    2
    26    26    27    1
    27    26    28    1
    28    28    29    1
    29    29    30    1
    30    30    31    1
    31    20    32   ar
    32    11     2   ar
    33    32    15   ar
    34    31    21    1
    35    31    29    1
    36     1    33    1
    37     1    34    1
    38     1    35    1
    39     3    36    1
    40     9    37    1
    41    14    38    1
    42    16    39    1
    43    17    40    1
    44    22    41    1
    45    27    42    1
    46    27    43    1
    47    29    44    1
    48    30    45    1
    49    30    46    1
    50    31    47    1
    51    32    48    1
