
     RDKit          3D

 48 51  0  0  0  0  0  0  0  0999 V2000
    3.0071   -0.2104    1.9875 C   0  0  0  0  0  0  0  0  0  0  0  0
    4.0510   -0.1070    0.9494 C   0  0  0  0  0  0  0  0  0  0  0  0
    5.3435    0.3303    1.3120 C   0  0  0  0  0  0  0  0  0  0  0  0
    6.3791    0.3960    0.4190 C   0  0  0  0  0  0  0  0  0  0  0  0
    7.7347    0.8605    0.8231 C   0  0  0  0  0  0  0  0  0  0  0  0
    7.5864    2.1269    1.3444 F   0  0  0  0  0  0  0  0  0  0  0  0
    8.2773    0.0192    1.7730 F   0  0  0  0  0  0  0  0  0  0  0  0
    8.5495    0.9180   -0.2721 F   0  0  0  0  0  0  0  0  0  0  0  0
    6.1083    0.0121   -0.8725 C   0  0  0  0  0  0  0  0  0  0  0  0
    4.8973   -0.4033   -1.2404 N   0  0  0  0  0  0  0  0  0  0  0  0
    3.8716   -0.4624   -0.3361 C   0  0  0  0  0  0  0  0  0  0  0  0
    2.5848   -0.8528   -0.8852 C   0  0  0  0  0  0  0  0  0  0  0  0
    2.6610   -1.7070   -1.8396 O   0  0  0  0  0  0  0  0  0  0  0  0
    1.3269   -0.3958   -0.4872 N   0  0  0  0  0  0  0  0  0  0  0  0
    0.0830   -0.8115   -1.0358 C   0  0  0  0  0  0  0  0  0  0  0  0
   -0.0169   -1.7361   -2.0267 C   0  0  0  0  0  0  0  0  0  0  0  0
   -1.2841   -2.0870   -2.5096 C   0  0  0  0  0  0  0  0  0  0  0  0
   -2.4052   -1.4998   -1.9828 C   0  0  0  0  0  0  0  0  0  0  0  0
   -3.9851   -2.0379   -2.5546 Cl  0  0  0  0  0  0  0  0  0  0  0  0
   -2.3615   -0.5542   -0.9778 C   0  0  0  0  0  0  0  0  0  0  0  0
   -3.5766    0.1516   -0.4867 C   0  0  1  0  0  0  0  0  0  0  0  0
   -4.1414    1.0511   -1.5278 C   0  0  0  0  0  0  0  0  0  0  0  0
   -4.5270    0.4823   -2.7039 F   0  0  0  0  0  0  0  0  0  0  0  0
   -3.2232    2.0553   -1.8897 F   0  0  0  0  0  0  0  0  0  0  0  0
   -4.5406   -0.8476   -0.0884 N   0  0  0  0  0  0  0  0  0  0  0  0
   -5.5712   -0.5410    0.6390 C   0  0  0  0  0  0  0  0  0  0  0  0
   -6.5595   -1.4530    1.0678 N   0  0  0  0  0  0  0  0  0  0  0  0
   -5.5968    0.8457    0.9677 O   0  0  0  0  0  0  0  0  0  0  0  0
   -4.4177    1.4076    1.5174 C   0  0  2  0  0  0  0  0  0  0  0  0
   -3.6477    2.3929    0.7818 C   0  0  0  0  0  0  0  0  0  0  0  0
   -3.2115    1.0021    0.7377 C   0  0  2  0  0  0  0  0  0  0  0  0
   -1.0998   -0.2352   -0.5284 C   0  0  0  0  0  0  0  0  0  0  0  0
    3.5037   -0.4339    2.9955 H   0  0  0  0  0  0  0  0  0  0  0  0
    2.3237   -1.0262    1.7333 H   0  0  0  0  0  0  0  0  0  0  0  0
    2.5251    0.7600    2.1242 H   0  0  0  0  0  0  0  0  0  0  0  0
    5.4856    0.6171    2.3447 H   0  0  0  0  0  0  0  0  0  0  0  0
    6.9029    0.0500   -1.6054 H   0  0  0  0  0  0  0  0  0  0  0  0
    1.3084    0.3567    0.2707 H   0  0  0  0  0  0  0  0  0  0  0  0
    0.8147   -2.2446   -2.4923 H   0  0  0  0  0  0  0  0  0  0  0  0
   -1.3565   -2.8235   -3.2987 H   0  0  0  0  0  0  0  0  0  0  0  0
   -5.0202    1.6451   -1.1149 H   0  0  0  0  0  0  0  0  0  0  0  0
   -7.4201   -1.5355    0.4771 H   0  0  0  0  0  0  0  0  0  0  0  0
   -6.4883   -2.0440    1.9265 H   0  0  0  0  0  0  0  0  0  0  0  0
   -4.3898    1.4236    2.6185 H   0  0  0  0  0  0  0  0  0  0  0  0
   -2.9896    3.0797    1.4041 H   0  0  0  0  0  0  0  0  0  0  0  0
   -4.1264    2.9622   -0.0215 H   0  0  0  0  0  0  0  0  0  0  0  0
   -2.4046    0.6036    1.3663 H   0  0  0  0  0  0  0  0  0  0  0  0
   -0.9644    0.5000    0.2366 H   0  0  0  0  0  0  0  0  0  0  0  0
  1  2  1  0
  2  3  2  0
  3  4  1  0
  4  5  1  0
  5  6  1  0
  5  7  1  0
  5  8  1  0
  4  9  2  0
  9 10  1  0
 10 11  2  0
 11 12  1  0
 12 13  2  0
 12 14  1  0
 14 15  1  0
 15 16  2  0
 16 17  1  0
 17 18  2  0
 18 19  1  0
 18 20  1  0
 20 21  1  0
 21 22  1  6
 22 23  1  0
 22 24  1  0
 21 25  1  0
 25 26  2  0
 26 27  1  0
 26 28  1  0
 28 29  1  0
 29 30  1  0
 30 31  1  0
 20 32  2  0
 11  2  1  0
 32 15  1  0
 31 21  1  0
 31 29  1  0
  1 33  1  0
  1 34  1  0
  1 35  1  0
  3 36  1  0
  9 37  1  0
 14 38  1  0
 16 39  1  0
 17 40  1  0
 22 41  1  0
 27 42  1  0
 27 43  1  0
 29 44  1  1
 30 45  1  0
 30 46  1  0
 31 47  1  1
 32 48  1  0
M  END
$$$$
