@<TRIPOS>MOLECULE
*****
 54 58 0 0 0
SMALL
GASTEIGER

@<TRIPOS>ATOM
      1 C           7.2721    2.7082   -1.0230 C.3     1  UNL1        0.0833
      2 O           6.0466    2.0151   -1.1102 O.3     1  UNL1       -0.4535
      3 C           5.6403    1.0590   -0.2060 C.2     1  UNL1        0.4033
      4 O           6.4430    0.8168    0.7454 O.2     1  UNL1       -0.2262
      5 N           4.3803    0.3567   -0.3089 N.am    1  UNL1       -0.2557
      6 C           4.1734   -0.6009    0.7561 C.3     1  UNL1        0.0453
      7 C           3.0474   -0.0195    1.5745 C.ar    1  UNL1       -0.0047
      8 C           3.3085    0.1030    2.9049 C.ar    1  UNL1       -0.0367
      9 C           2.3537    0.6847    3.7493 C.ar    1  UNL1        0.0414
     10 CL          2.6719    0.8474    5.4596 Cl      1  UNL1       -0.0835
     11 C           1.1530    1.1264    3.1924 C.ar    1  UNL1       -0.0414
     12 C           0.8654    1.0137    1.8447 C.ar    1  UNL1       -0.0361
     13 C           1.8218    0.4397    1.0759 C.ar    1  UNL1        0.0542
     14 N           1.3910    0.3306   -0.2753 N.ar    1  UNL1       -0.2812
     15 C           2.1774    0.4952   -1.3956 C.ar    1  UNL1        0.1555
     16 N           1.3316    0.3027   -2.4036 N.ar    1  UNL1       -0.1323
     17 N           0.1430    0.0427   -1.9568 N.ar    1  UNL1       -0.1337
     18 C           0.1309    0.0469   -0.5888 C.ar    1  UNL1        0.1412
     19 C          -1.0138   -0.2821    0.2016 C.3     1  UNL1        0.0223
     20 C          -2.1511    0.6499   -0.1962 C.3     1  UNL1       -0.0274
     21 C          -2.8796    0.1144   -1.4086 C.3     1  UNL1        0.0141
     22 N          -3.7048   -0.9466   -0.8708 N.pl3   1  UNL1       -0.3151
     23 C          -5.0404   -1.0641   -1.2830 C.ar    1  UNL1        0.1212
     24 C          -5.8254   -2.0838   -0.7664 C.ar    1  UNL1       -0.0217
     25 C          -7.1454   -2.2548   -1.1299 C.ar    1  UNL1       -0.0571
     26 C          -7.6890   -1.3734   -2.0393 C.ar    1  UNL1       -0.0435
     27 C          -6.8929   -0.3597   -2.5469 C.ar    1  UNL1        0.0297
     28 N          -5.6092   -0.2271   -2.1665 N.ar    1  UNL1       -0.2403
     29 C          -3.0147   -1.7974    0.0730 C.3     1  UNL1        0.0141
     30 C          -1.5431   -1.7094   -0.2013 C.3     1  UNL1       -0.0274
     31 C           3.6318    0.7797   -1.4489 C.3     1  UNL1        0.0784
     32 H           7.9775    2.3663   -1.8017 H       1  UNL1        0.0661
     33 H           7.0248    3.7892   -1.2353 H       1  UNL1        0.0661
     34 H           7.6939    2.6424    0.0077 H       1  UNL1        0.0661
     35 H           5.0787   -0.7012    1.3839 H       1  UNL1        0.0516
     36 H           3.8718   -1.5600    0.2927 H       1  UNL1        0.0516
     37 H           4.2424   -0.2454    3.3024 H       1  UNL1        0.0636
     38 H           0.4301    1.5761    3.8781 H       1  UNL1        0.0633
     39 H          -0.0170    1.4220    1.4576 H       1  UNL1        0.0639
     40 H          -1.0756   -0.3477    1.2495 H       1  UNL1        0.0381
     41 H          -2.8924    0.8023    0.6055 H       1  UNL1        0.0287
     42 H          -1.7330    1.6518   -0.4667 H       1  UNL1        0.0287
     43 H          -3.4819    0.9511   -1.8152 H       1  UNL1        0.0464
     44 H          -2.2053   -0.2380   -2.2047 H       1  UNL1        0.0464
     45 H          -5.3683   -2.7532   -0.0589 H       1  UNL1        0.0652
     46 H          -7.7407   -3.0571   -0.7149 H       1  UNL1        0.0619
     47 H          -8.7305   -1.4556   -2.3682 H       1  UNL1        0.0633
     48 H          -7.3576    0.3142   -3.2608 H       1  UNL1        0.0830
     49 H          -3.2788   -1.5146    1.1126 H       1  UNL1        0.0464
     50 H          -3.3079   -2.8357   -0.1375 H       1  UNL1        0.0464
     51 H          -1.3562   -1.8792   -1.2523 H       1  UNL1        0.0287
     52 H          -1.0277   -2.4789    0.3927 H       1  UNL1        0.0287
     53 H           4.0748    0.4231   -2.4093 H       1  UNL1        0.0546
     54 H           3.7055    1.9143   -1.4420 H       1  UNL1        0.0546
@<TRIPOS>BOND
     1     1     2    1
     2     2     3    1
     3     3     4    2
     4     3     5   am
     5     5     6    1
     6     6     7    1
     7     7     8   ar
     8     8     9   ar
     9     9    10    1
    10     9    11   ar
    11    11    12   ar
    12    12    13   ar
    13    13    14    1
    14    14    15   ar
    15    15    16   ar
    16    16    17   ar
    17    17    18   ar
    18    18    19    1
    19    19    20    1
    20    20    21    1
    21    21    22    1
    22    22    23    1
    23    23    24   ar
    24    24    25   ar
    25    25    26   ar
    26    26    27   ar
    27    27    28   ar
    28    22    29    1
    29    29    30    1
    30    15    31    1
    31    31     5    1
    32    13     7   ar
    33    18    14   ar
    34    30    19    1
    35    28    23   ar
    36     1    32    1
    37     1    33    1
    38     1    34    1
    39     6    35    1
    40     6    36    1
    41     8    37    1
    42    11    38    1
    43    12    39    1
    44    19    40    1
    45    20    41    1
    46    20    42    1
    47    21    43    1
    48    21    44    1
    49    24    45    1
    50    25    46    1
    51    26    47    1
    52    27    48    1
    53    29    49    1
    54    29    50    1
    55    30    51    1
    56    30    52    1
    57    31    53    1
    58    31    54    1
