@<TRIPOS>MOLECULE
*****
 38 37 0 0 0
SMALL
GASTEIGER

@<TRIPOS>ATOM
      1 N1          4.6029   -0.9349    1.5894 N.3     1  <1>        -0.3184
      2 C1          4.4909    0.0613    0.5473 C.3     1  <1>         0.1033
      3 C2          3.9782   -0.4322   -0.7525 C.3     1  <1>        -0.0245
      4 C3          2.6301   -1.0374   -0.7724 C.3     1  <1>        -0.0203
      5 C4          1.4933   -0.1808   -0.3420 C.3     1  <1>         0.0647
      6 N2          0.2791   -1.0050   -0.4542 N.pl3   1  <1>        -0.2760
      7 C5         -1.0095   -0.5042   -0.1209 C.cat   1  <1>         0.3792
      8 N3         -1.0873    0.5541    0.5870 N.pl3   1  <1>        -0.1296
      9 N4         -2.1756   -1.1651   -0.5648 N.pl3   1  <1>        -0.2622
     10 C6         -3.5186   -0.6263   -0.3362 C.3     1  <1>         0.1818
     11 C7         -3.7179    0.7254   -0.9597 C.3     1  <1>         0.0887
     12 C8         -5.1073    1.2158   -0.6886 C.2     1  <1>         0.3086
     13 O1         -6.2790    0.8741   -0.0695 O.3     1  <1>        -0.4805
     14 O2         -5.3630    2.3444   -1.1755 O.2     1  <1>        -0.2509
     15 C9         -3.6977   -0.5653    1.1354 C.2     1  <1>         0.3426
     16 O3         -4.7838   -0.1335    1.8518 O.3     1  <1>        -0.4782
     17 O4         -2.8261   -0.9227    1.9883 O.2     1  <1>        -0.2471
     18 C10         3.8110    1.2790    1.0123 C.2     1  <1>         0.3217
     19 O5          3.6718    2.2528    0.0195 O.3     1  <1>        -0.4795
     20 O6          3.3228    1.6308    2.1312 O.2     1  <1>        -0.2493
     21 H1          4.9334   -1.8267    1.2108 H       1  <1>         0.1190
     22 H2          5.3094   -0.5868    2.2821 H       1  <1>         0.1190
     23 H3          5.5609    0.3822    0.3526 H       1  <1>         0.0574
     24 H4          4.0542    0.3934   -1.4801 H       1  <1>         0.0286
     25 H5          4.6937   -1.2241   -1.1225 H       1  <1>         0.0286
     26 H6          2.5782   -1.9746   -0.1503 H       1  <1>         0.0296
     27 H7          2.4068   -1.3812   -1.8080 H       1  <1>         0.0296
     28 H8          1.5455    0.0682    0.7498 H       1  <1>         0.0655
     29 H9          1.3677    0.7436   -0.9321 H       1  <1>         0.0655
     30 H10         0.2946   -2.0144   -0.7882 H       1  <1>         0.2579
     31 H11        -0.2383    1.0464    0.9176 H       1  <1>         0.3062
     32 H12        -2.0691   -2.0870   -1.0833 H       1  <1>         0.2587
     33 H13        -4.2593   -1.3187   -0.7345 H       1  <1>         0.0816
     34 H14        -2.9657    1.4603   -0.5594 H       1  <1>         0.0417
     35 H15        -3.5310    0.6504   -2.0503 H       1  <1>         0.0417
     36 H16        -7.0681    0.4852   -0.5938 H       1  <1>         0.2951
     37 H17        -4.7226    0.5438    2.5908 H       1  <1>         0.2952
     38 H18         3.3955    3.2098    0.2325 H       1  <1>         0.2951
@<TRIPOS>BOND
     1     1     2    1
     2     2     3    1
     3     3     4    1
     4     4     5    1
     5     5     6    1
     6     6     7    1
     7     7     8    2
     8     7     9    1
     9     9    10    1
    10    10    11    1
    11    11    12    1
    12    12    13    1
    13    12    14    2
    14    10    15    1
    15    15    16    1
    16    15    17    2
    17     2    18    1
    18    18    19    1
    19    18    20    2
    20     1    21    1
    21     1    22    1
    22     2    23    1
    23     3    24    1
    24     3    25    1
    25     4    26    1
    26     4    27    1
    27     5    28    1
    28     5    29    1
    29     6    30    1
    30     8    31    1
    31     9    32    1
    32    10    33    1
    33    11    34    1
    34    11    35    1
    35    13    36    1
    36    16    37    1
    37    19    38    1
