@<TRIPOS>MOLECULE
*****
 52 57 0 0 0
SMALL
GASTEIGER

@<TRIPOS>ATOM
      1 C          -7.2824    1.4490   -2.5248 C.ar    1  UNL1       -0.0597
      2 C          -6.1110    0.8071   -2.8748 C.ar    1  UNL1       -0.0611
      3 C          -5.4287    0.0427   -1.9501 C.ar    1  UNL1       -0.0520
      4 C          -5.9109   -0.0945   -0.6460 C.ar    1  UNL1        0.0082
      5 C          -5.2335   -0.8567    0.2826 C.ar    1  UNL1       -0.0022
      6 C          -4.0078   -1.5288   -0.0834 C.ar    1  UNL1        0.0467
      7 C          -3.8433   -2.7987   -0.5977 C.ar    1  UNL1        0.0597
      8 N          -2.5276   -2.9989   -0.7848 N.ar    1  UNL1       -0.1727
      9 N          -1.8349   -1.9289   -0.4197 N.ar    1  UNL1       -0.2206
     10 C          -0.4991   -1.6646   -0.4259 C.ar    1  UNL1        0.0406
     11 C          -0.0305   -0.4594    0.0104 C.ar    1  UNL1        0.0199
     12 C           1.3994   -0.1556    0.0106 C.ar    1  UNL1        0.0033
     13 C           2.2664   -0.6729   -0.9277 C.ar    1  UNL1       -0.0492
     14 C           3.6195   -0.3735   -0.9154 C.ar    1  UNL1       -0.0211
     15 C           4.1053    0.4616    0.0598 C.ar    1  UNL1        0.1213
     16 N           5.4633    0.8524    0.1838 N.pl3   1  UNL1       -0.3128
     17 C           5.8915    1.6906    1.3146 C.3     1  UNL1        0.0261
     18 C           7.3454    1.4172    1.5717 C.3     1  UNL1        0.0117
     19 N           7.7187    0.0351    1.3465 N.3     1  UNL1       -0.3130
     20 C           7.5084   -0.3894   -0.0210 C.3     1  UNL1        0.0117
     21 C           6.5054    0.4932   -0.7331 C.3     1  UNL1        0.0261
     22 N           3.2260    0.9579    0.9738 N.ar    1  UNL1       -0.2397
     23 C           1.9270    0.6847    0.9810 C.ar    1  UNL1        0.0375
     24 C          -0.9561    0.4829    0.4583 C.ar    1  UNL1        0.0392
     25 N          -2.2597    0.1595    0.4386 N.ar    1  UNL1       -0.2350
     26 C          -2.7233   -1.0180    0.0126 C.ar    1  UNL1        0.1632
     27 C          -5.7851   -0.9373    1.5546 C.ar    1  UNL1       -0.0351
     28 C          -6.9549   -0.2951    1.9006 C.ar    1  UNL1        0.0288
     29 N          -7.5906    0.4398    0.9727 N.ar    1  UNL1       -0.2549
     30 C          -7.0763    0.5384   -0.2815 C.ar    1  UNL1        0.0715
     31 C          -7.7333    1.2950   -1.2311 C.ar    1  UNL1       -0.0357
     32 H          -7.8130    2.0504   -3.2642 H       1  UNL1        0.0618
     33 H          -5.7443    0.9190   -3.8872 H       1  UNL1        0.0618
     34 H          -4.5201   -0.4683   -2.1818 H       1  UNL1        0.0624
     35 H          -4.6700   -3.4837   -0.8000 H       1  UNL1        0.0855
     36 H           0.1768   -2.4337   -0.7851 H       1  UNL1        0.0837
     37 H           1.8903   -1.3349   -1.7030 H       1  UNL1        0.0625
     38 H           4.2798   -0.7902   -1.6571 H       1  UNL1        0.0652
     39 H           5.7288    2.7455    0.9754 H       1  UNL1        0.0477
     40 H           5.2356    1.4149    2.1590 H       1  UNL1        0.0477
     41 H           7.9499    2.1368    1.0184 H       1  UNL1        0.0439
     42 H           7.5322    1.6047    2.6589 H       1  UNL1        0.0439
     43 H           8.7522   -0.0165    1.5215 H       1  UNL1        0.1220
     44 H           8.4242   -0.4515   -0.6155 H       1  UNL1        0.0439
     45 H           7.0661   -1.4092    0.0172 H       1  UNL1        0.0439
     46 H           6.0867    0.0336   -1.6398 H       1  UNL1        0.0477
     47 H           7.0337    1.4556   -0.9997 H       1  UNL1        0.0477
     48 H           1.2594    1.0992    1.7250 H       1  UNL1        0.0836
     49 H          -0.6057    1.4444    0.8084 H       1  UNL1        0.0837
     50 H          -5.2696   -1.5304    2.2984 H       1  UNL1        0.0639
     51 H          -7.3333   -0.4013    2.9203 H       1  UNL1        0.0830
     52 H          -8.6473    1.7806   -0.9148 H       1  UNL1        0.0639
@<TRIPOS>BOND
     1     1     2   ar
     2     2     3   ar
     3     3     4   ar
     4     4     5   ar
     5     5     6    1
     6     6     7   ar
     7     7     8   ar
     8     8     9   ar
     9     9    10   ar
    10    10    11   ar
    11    11    12    1
    12    12    13   ar
    13    13    14   ar
    14    14    15   ar
    15    15    16    1
    16    16    17    1
    17    17    18    1
    18    18    19    1
    19    19    20    1
    20    20    21    1
    21    15    22   ar
    22    22    23   ar
    23    11    24   ar
    24    24    25   ar
    25    25    26   ar
    26     5    27   ar
    27    27    28   ar
    28    28    29   ar
    29    29    30   ar
    30    30    31   ar
    31    31     1   ar
    32    30     4   ar
    33    26     6   ar
    34    26     9   ar
    35    23    12   ar
    36    21    16    1
    37     1    32    1
    38     2    33    1
    39     3    34    1
    40     7    35    1
    41    10    36    1
    42    13    37    1
    43    14    38    1
    44    17    39    1
    45    17    40    1
    46    18    41    1
    47    18    42    1
    48    19    43    1
    49    20    44    1
    50    20    45    1
    51    21    46    1
    52    21    47    1
    53    23    48    1
    54    24    49    1
    55    27    50    1
    56    28    51    1
    57    31    52    1
