
     RDKit          3D

 52 57  0  0  0  0  0  0  0  0999 V2000
   -7.2824    1.4490   -2.5248 C   0  0  0  0  0  0  0  0  0  0  0  0
   -6.1110    0.8071   -2.8748 C   0  0  0  0  0  0  0  0  0  0  0  0
   -5.4287    0.0427   -1.9501 C   0  0  0  0  0  0  0  0  0  0  0  0
   -5.9109   -0.0945   -0.6460 C   0  0  0  0  0  0  0  0  0  0  0  0
   -5.2335   -0.8567    0.2826 C   0  0  0  0  0  0  0  0  0  0  0  0
   -4.0078   -1.5288   -0.0834 C   0  0  0  0  0  0  0  0  0  0  0  0
   -3.8433   -2.7987   -0.5977 C   0  0  0  0  0  0  0  0  0  0  0  0
   -2.5276   -2.9989   -0.7848 N   0  0  0  0  0  0  0  0  0  0  0  0
   -1.8349   -1.9289   -0.4197 N   0  0  0  0  0  0  0  0  0  0  0  0
   -0.4991   -1.6646   -0.4259 C   0  0  0  0  0  0  0  0  0  0  0  0
   -0.0305   -0.4594    0.0104 C   0  0  0  0  0  0  0  0  0  0  0  0
    1.3994   -0.1556    0.0106 C   0  0  0  0  0  0  0  0  0  0  0  0
    2.2664   -0.6729   -0.9277 C   0  0  0  0  0  0  0  0  0  0  0  0
    3.6195   -0.3735   -0.9154 C   0  0  0  0  0  0  0  0  0  0  0  0
    4.1053    0.4616    0.0598 C   0  0  0  0  0  0  0  0  0  0  0  0
    5.4633    0.8524    0.1838 N   0  0  0  0  0  0  0  0  0  0  0  0
    5.8915    1.6906    1.3146 C   0  0  0  0  0  0  0  0  0  0  0  0
    7.3454    1.4172    1.5717 C   0  0  0  0  0  0  0  0  0  0  0  0
    7.7187    0.0351    1.3465 N   0  0  0  0  0  0  0  0  0  0  0  0
    7.5084   -0.3894   -0.0210 C   0  0  0  0  0  0  0  0  0  0  0  0
    6.5054    0.4932   -0.7331 C   0  0  0  0  0  0  0  0  0  0  0  0
    3.2260    0.9579    0.9738 N   0  0  0  0  0  0  0  0  0  0  0  0
    1.9270    0.6847    0.9810 C   0  0  0  0  0  0  0  0  0  0  0  0
   -0.9561    0.4829    0.4583 C   0  0  0  0  0  0  0  0  0  0  0  0
   -2.2597    0.1595    0.4386 N   0  0  0  0  0  0  0  0  0  0  0  0
   -2.7233   -1.0180    0.0126 C   0  0  0  0  0  0  0  0  0  0  0  0
   -5.7851   -0.9373    1.5546 C   0  0  0  0  0  0  0  0  0  0  0  0
   -6.9549   -0.2951    1.9006 C   0  0  0  0  0  0  0  0  0  0  0  0
   -7.5906    0.4398    0.9727 N   0  0  0  0  0  0  0  0  0  0  0  0
   -7.0763    0.5384   -0.2815 C   0  0  0  0  0  0  0  0  0  0  0  0
   -7.7333    1.2950   -1.2311 C   0  0  0  0  0  0  0  0  0  0  0  0
   -7.8130    2.0504   -3.2642 H   0  0  0  0  0  0  0  0  0  0  0  0
   -5.7443    0.9190   -3.8872 H   0  0  0  0  0  0  0  0  0  0  0  0
   -4.5201   -0.4683   -2.1818 H   0  0  0  0  0  0  0  0  0  0  0  0
   -4.6700   -3.4837   -0.8000 H   0  0  0  0  0  0  0  0  0  0  0  0
    0.1768   -2.4337   -0.7851 H   0  0  0  0  0  0  0  0  0  0  0  0
    1.8903   -1.3349   -1.7030 H   0  0  0  0  0  0  0  0  0  0  0  0
    4.2798   -0.7902   -1.6571 H   0  0  0  0  0  0  0  0  0  0  0  0
    5.7288    2.7455    0.9754 H   0  0  0  0  0  0  0  0  0  0  0  0
    5.2356    1.4149    2.1590 H   0  0  0  0  0  0  0  0  0  0  0  0
    7.9499    2.1368    1.0184 H   0  0  0  0  0  0  0  0  0  0  0  0
    7.5322    1.6047    2.6589 H   0  0  0  0  0  0  0  0  0  0  0  0
    8.7522   -0.0165    1.5215 H   0  0  0  0  0  0  0  0  0  0  0  0
    8.4242   -0.4515   -0.6155 H   0  0  0  0  0  0  0  0  0  0  0  0
    7.0661   -1.4092    0.0172 H   0  0  0  0  0  0  0  0  0  0  0  0
    6.0867    0.0336   -1.6398 H   0  0  0  0  0  0  0  0  0  0  0  0
    7.0337    1.4556   -0.9997 H   0  0  0  0  0  0  0  0  0  0  0  0
    1.2594    1.0992    1.7250 H   0  0  0  0  0  0  0  0  0  0  0  0
   -0.6057    1.4444    0.8084 H   0  0  0  0  0  0  0  0  0  0  0  0
   -5.2696   -1.5304    2.2984 H   0  0  0  0  0  0  0  0  0  0  0  0
   -7.3333   -0.4013    2.9203 H   0  0  0  0  0  0  0  0  0  0  0  0
   -8.6473    1.7806   -0.9148 H   0  0  0  0  0  0  0  0  0  0  0  0
  1  2  2  0
  2  3  1  0
  3  4  2  0
  4  5  1  0
  5  6  1  0
  6  7  1  0
  7  8  2  0
  8  9  1  0
  9 10  1  0
 10 11  2  0
 11 12  1  0
 12 13  2  0
 13 14  1  0
 14 15  2  0
 15 16  1  0
 16 17  1  0
 17 18  1  0
 18 19  1  0
 19 20  1  0
 20 21  1  0
 15 22  1  0
 22 23  2  0
 11 24  1  0
 24 25  2  0
 25 26  1  0
  5 27  2  0
 27 28  1  0
 28 29  2  0
 29 30  1  0
 30 31  2  0
 31  1  1  0
 30  4  1  0
 26  6  2  0
 26  9  1  0
 23 12  1  0
 21 16  1  0
  1 32  1  0
  2 33  1  0
  3 34  1  0
  7 35  1  0
 10 36  1  0
 13 37  1  0
 14 38  1  0
 17 39  1  0
 17 40  1  0
 18 41  1  0
 18 42  1  0
 19 43  1  0
 20 44  1  0
 20 45  1  0
 21 46  1  0
 21 47  1  0
 23 48  1  0
 24 49  1  0
 27 50  1  0
 28 51  1  0
 31 52  1  0
M  END
$$$$
