
     RDKit          3D

 57 59  0  0  0  0  0  0  0  0999 V2000
   -4.9139    1.9333   -0.0654 C   0  0  0  0  0  0  0  0  0  0  0  0
   -4.5411    0.4783    0.2247 C   0  0  0  0  0  0  0  0  0  0  0  0
   -3.1094    0.2265   -0.0280 C   0  0  0  0  0  0  0  0  0  0  0  0
   -2.2923   -0.1658    0.9609 C   0  0  0  0  0  0  0  0  0  0  0  0
   -2.8124   -0.3617    2.2999 C   0  0  0  0  0  0  0  0  0  0  0  0
   -3.8130   -1.2221    2.6707 C   0  0  0  0  0  0  0  0  0  0  0  0
   -4.2917   -1.3620    3.9438 C   0  0  0  0  0  0  0  0  0  0  0  0
   -3.7540   -0.6032    4.9431 C   0  0  0  0  0  0  0  0  0  0  0  0
   -2.7423    0.2836    4.6405 C   0  0  0  0  0  0  0  0  0  0  0  0
   -2.2706    0.4087    3.3334 C   0  0  0  0  0  0  0  0  0  0  0  0
   -0.8459   -0.3753    0.7069 C   0  0  0  0  0  0  0  0  0  0  0  0
   -0.2218   -1.4886    1.2347 C   0  0  0  0  0  0  0  0  0  0  0  0
    1.1296   -1.7289    1.0532 C   0  0  0  0  0  0  0  0  0  0  0  0
    1.8920   -0.8280    0.3183 C   0  0  0  0  0  0  0  0  0  0  0  0
    3.2342   -1.0776    0.1448 O   0  0  0  0  0  0  0  0  0  0  0  0
    4.1491   -0.2900   -0.5575 C   0  0  0  0  0  0  0  0  0  0  0  0
    5.5012   -0.9637   -0.4781 C   0  0  0  0  0  0  0  0  0  0  0  0
    6.5475   -0.2688   -1.1568 N   0  0  0  0  0  0  0  0  0  0  0  0
    6.9363    0.9809   -0.5852 C   0  0  0  0  0  0  0  0  0  0  0  0
    6.4292   -0.2771   -2.5824 C   0  0  0  0  0  0  0  0  0  0  0  0
    1.2893    0.2836   -0.2134 C   0  0  0  0  0  0  0  0  0  0  0  0
   -0.0773    0.5008   -0.0137 C   0  0  0  0  0  0  0  0  0  0  0  0
   -2.5624    0.2934   -1.3779 C   0  0  0  0  0  0  0  0  0  0  0  0
   -1.8061   -0.7823   -1.8562 C   0  0  0  0  0  0  0  0  0  0  0  0
   -1.2606   -0.7585   -3.1242 C   0  0  0  0  0  0  0  0  0  0  0  0
   -1.4474    0.3336   -3.9590 C   0  0  0  0  0  0  0  0  0  0  0  0
   -2.1864    1.3909   -3.4989 C   0  0  0  0  0  0  0  0  0  0  0  0
   -2.7342    1.3548   -2.2111 C   0  0  0  0  0  0  0  0  0  0  0  0
   -4.1070    2.6435    0.1654 H   0  0  0  0  0  0  0  0  0  0  0  0
   -5.7362    2.2254    0.6713 H   0  0  0  0  0  0  0  0  0  0  0  0
   -5.3971    2.0424   -1.0413 H   0  0  0  0  0  0  0  0  0  0  0  0
   -5.1618   -0.1587   -0.4598 H   0  0  0  0  0  0  0  0  0  0  0  0
   -4.8419    0.2820    1.2483 H   0  0  0  0  0  0  0  0  0  0  0  0
   -4.2480   -1.8510    1.9058 H   0  0  0  0  0  0  0  0  0  0  0  0
   -5.0915   -2.0676    4.1673 H   0  0  0  0  0  0  0  0  0  0  0  0
   -4.1036   -0.6803    5.9796 H   0  0  0  0  0  0  0  0  0  0  0  0
   -2.3307    0.8733    5.4442 H   0  0  0  0  0  0  0  0  0  0  0  0
   -1.4806    1.1009    3.0976 H   0  0  0  0  0  0  0  0  0  0  0  0
   -0.8309   -2.1883    1.8084 H   0  0  0  0  0  0  0  0  0  0  0  0
    1.6317   -2.5951    1.4584 H   0  0  0  0  0  0  0  0  0  0  0  0
    4.2519    0.7020   -0.0649 H   0  0  0  0  0  0  0  0  0  0  0  0
    3.8153   -0.1325   -1.6016 H   0  0  0  0  0  0  0  0  0  0  0  0
    5.7622   -1.0166    0.6049 H   0  0  0  0  0  0  0  0  0  0  0  0
    5.4382   -1.9867   -0.9226 H   0  0  0  0  0  0  0  0  0  0  0  0
    6.4926    1.1367    0.4212 H   0  0  0  0  0  0  0  0  0  0  0  0
    8.0512    0.9945   -0.4044 H   0  0  0  0  0  0  0  0  0  0  0  0
    6.7348    1.8546   -1.2253 H   0  0  0  0  0  0  0  0  0  0  0  0
    6.7062    0.6559   -3.0815 H   0  0  0  0  0  0  0  0  0  0  0  0
    5.4226   -0.5865   -2.9335 H   0  0  0  0  0  0  0  0  0  0  0  0
    7.1284   -1.0741   -2.9730 H   0  0  0  0  0  0  0  0  0  0  0  0
    1.8984    0.9701   -0.7806 H   0  0  0  0  0  0  0  0  0  0  0  0
   -0.5044    1.3728   -0.4328 H   0  0  0  0  0  0  0  0  0  0  0  0
   -1.6134   -1.6717   -1.2768 H   0  0  0  0  0  0  0  0  0  0  0  0
   -0.6797   -1.5909   -3.4838 H   0  0  0  0  0  0  0  0  0  0  0  0
   -1.0069    0.3381   -4.9633 H   0  0  0  0  0  0  0  0  0  0  0  0
   -2.3377    2.2452   -4.1394 H   0  0  0  0  0  0  0  0  0  0  0  0
   -3.2875    2.2474   -1.9545 H   0  0  0  0  0  0  0  0  0  0  0  0
  1  2  1  0
  2  3  1  0
  3  4  2  0
  4  5  1  0
  5  6  2  0
  6  7  1  0
  7  8  2  0
  8  9  1  0
  9 10  2  0
  4 11  1  0
 11 12  2  0
 12 13  1  0
 13 14  2  0
 14 15  1  0
 15 16  1  0
 16 17  1  0
 17 18  1  0
 18 19  1  0
 18 20  1  0
 14 21  1  0
 21 22  2  0
  3 23  1  0
 23 24  2  0
 24 25  1  0
 25 26  2  0
 26 27  1  0
 27 28  2  0
 10  5  1  0
 22 11  1  0
 28 23  1  0
  1 29  1  0
  1 30  1  0
  1 31  1  0
  2 32  1  0
  2 33  1  0
  6 34  1  0
  7 35  1  0
  8 36  1  0
  9 37  1  0
 10 38  1  0
 12 39  1  0
 13 40  1  0
 16 41  1  0
 16 42  1  0
 17 43  1  0
 17 44  1  0
 19 45  1  0
 19 46  1  0
 19 47  1  0
 20 48  1  0
 20 49  1  0
 20 50  1  0
 21 51  1  0
 22 52  1  0
 24 53  1  0
 25 54  1  0
 26 55  1  0
 27 56  1  0
 28 57  1  0
M  END
$$$$
