@<TRIPOS>MOLECULE
*****
 57 59 0 0 0
SMALL
GASTEIGER

@<TRIPOS>ATOM
      1 C          -4.9139    1.9333   -0.0654 C.3     1  UNL1       -0.0612
      2 C          -4.5411    0.4783    0.2247 C.3     1  UNL1       -0.0294
      3 C          -3.1094    0.2265   -0.0280 C.2     1  UNL1       -0.0322
      4 C          -2.2923   -0.1658    0.9609 C.2     1  UNL1       -0.0070
      5 C          -2.8124   -0.3617    2.2999 C.ar    1  UNL1       -0.0170
      6 C          -3.8130   -1.2221    2.6707 C.ar    1  UNL1       -0.0540
      7 C          -4.2917   -1.3620    3.9438 C.ar    1  UNL1       -0.0612
      8 C          -3.7540   -0.6032    4.9431 C.ar    1  UNL1       -0.0617
      9 C          -2.7423    0.2836    4.6405 C.ar    1  UNL1       -0.0612
     10 C          -2.2706    0.4087    3.3334 C.ar    1  UNL1       -0.0540
     11 C          -0.8459   -0.3753    0.7069 C.ar    1  UNL1       -0.0168
     12 C          -0.2218   -1.4886    1.2347 C.ar    1  UNL1       -0.0506
     13 C           1.1296   -1.7289    1.0532 C.ar    1  UNL1       -0.0194
     14 C           1.8920   -0.8280    0.3183 C.ar    1  UNL1        0.1206
     15 O           3.2342   -1.0776    0.1448 O.3     1  UNL1       -0.4907
     16 C           4.1491   -0.2900   -0.5575 C.3     1  UNL1        0.1022
     17 C           5.5012   -0.9637   -0.4781 C.3     1  UNL1        0.0325
     18 N           6.5475   -0.2688   -1.1568 N.3     1  UNL1       -0.3051
     19 C           6.9363    0.9809   -0.5852 C.3     1  UNL1       -0.0129
     20 C           6.4292   -0.2771   -2.5824 C.3     1  UNL1       -0.0129
     21 C           1.2893    0.2836   -0.2134 C.ar    1  UNL1       -0.0194
     22 C          -0.0773    0.5008   -0.0137 C.ar    1  UNL1       -0.0506
     23 C          -2.5624    0.2934   -1.3779 C.ar    1  UNL1       -0.0213
     24 C          -1.8061   -0.7823   -1.8562 C.ar    1  UNL1       -0.0543
     25 C          -1.2606   -0.7585   -3.1242 C.ar    1  UNL1       -0.0612
     26 C          -1.4474    0.3336   -3.9590 C.ar    1  UNL1       -0.0617
     27 C          -2.1864    1.3909   -3.4989 C.ar    1  UNL1       -0.0612
     28 C          -2.7342    1.3548   -2.2111 C.ar    1  UNL1       -0.0543
     29 H          -4.1070    2.6435    0.1654 H       1  UNL1        0.0233
     30 H          -5.7362    2.2254    0.6713 H       1  UNL1        0.0233
     31 H          -5.3971    2.0424   -1.0413 H       1  UNL1        0.0233
     32 H          -5.1618   -0.1587   -0.4598 H       1  UNL1        0.0311
     33 H          -4.8419    0.2820    1.2483 H       1  UNL1        0.0311
     34 H          -4.2480   -1.8510    1.9058 H       1  UNL1        0.0624
     35 H          -5.0915   -2.0676    4.1673 H       1  UNL1        0.0618
     36 H          -4.1036   -0.6803    5.9796 H       1  UNL1        0.0618
     37 H          -2.3307    0.8733    5.4442 H       1  UNL1        0.0618
     38 H          -1.4806    1.1009    3.0976 H       1  UNL1        0.0624
     39 H          -0.8309   -2.1883    1.8084 H       1  UNL1        0.0625
     40 H           1.6317   -2.5951    1.4584 H       1  UNL1        0.0654
     41 H           4.2519    0.7020   -0.0649 H       1  UNL1        0.0709
     42 H           3.8153   -0.1325   -1.6016 H       1  UNL1        0.0709
     43 H           5.7622   -1.0166    0.6049 H       1  UNL1        0.0460
     44 H           5.4382   -1.9867   -0.9226 H       1  UNL1        0.0460
     45 H           6.4926    1.1367    0.4212 H       1  UNL1        0.0391
     46 H           8.0512    0.9945   -0.4044 H       1  UNL1        0.0391
     47 H           6.7348    1.8546   -1.2253 H       1  UNL1        0.0391
     48 H           6.7062    0.6559   -3.0815 H       1  UNL1        0.0391
     49 H           5.4226   -0.5865   -2.9335 H       1  UNL1        0.0391
     50 H           7.1284   -1.0741   -2.9730 H       1  UNL1        0.0391
     51 H           1.8984    0.9701   -0.7806 H       1  UNL1        0.0654
     52 H          -0.5044    1.3728   -0.4328 H       1  UNL1        0.0625
     53 H          -1.6134   -1.6717   -1.2768 H       1  UNL1        0.0624
     54 H          -0.6797   -1.5909   -3.4838 H       1  UNL1        0.0618
     55 H          -1.0069    0.3381   -4.9633 H       1  UNL1        0.0618
     56 H          -2.3377    2.2452   -4.1394 H       1  UNL1        0.0618
     57 H          -3.2875    2.2474   -1.9545 H       1  UNL1        0.0624
@<TRIPOS>BOND
     1     1     2    1
     2     2     3    1
     3     3     4    2
     4     4     5    1
     5     5     6   ar
     6     6     7   ar
     7     7     8   ar
     8     8     9   ar
     9     9    10   ar
    10     4    11    1
    11    11    12   ar
    12    12    13   ar
    13    13    14   ar
    14    14    15    1
    15    15    16    1
    16    16    17    1
    17    17    18    1
    18    18    19    1
    19    18    20    1
    20    14    21   ar
    21    21    22   ar
    22     3    23    1
    23    23    24   ar
    24    24    25   ar
    25    25    26   ar
    26    26    27   ar
    27    27    28   ar
    28    10     5   ar
    29    22    11   ar
    30    28    23   ar
    31     1    29    1
    32     1    30    1
    33     1    31    1
    34     2    32    1
    35     2    33    1
    36     6    34    1
    37     7    35    1
    38     8    36    1
    39     9    37    1
    40    10    38    1
    41    12    39    1
    42    13    40    1
    43    16    41    1
    44    16    42    1
    45    17    43    1
    46    17    44    1
    47    19    45    1
    48    19    46    1
    49    19    47    1
    50    20    48    1
    51    20    49    1
    52    20    50    1
    53    21    51    1
    54    22    52    1
    55    24    53    1
    56    25    54    1
    57    26    55    1
    58    27    56    1
    59    28    57    1
