@<TRIPOS>MOLECULE
*****
 56 60 0 0 0
SMALL
GASTEIGER

@<TRIPOS>ATOM
      1 O           5.0193    1.6671   -1.4242 O.2     1  UNL1       -0.1744
      2 S           5.0068    0.4679   -0.5304 S.O2    1  UNL1       -0.0310
      3 O           6.3301   -0.2289   -0.5347 O.2     1  UNL1       -0.1744
      4 C           4.4668    0.8698    1.1198 C.3     1  UNL1        0.0663
      5 C           3.2489   -0.0120    1.3745 C.3     1  UNL1       -0.0274
      6 C           2.1205    0.3191    0.3993 C.3     1  UNL1       -0.0180
      7 C           1.9588    1.8354    0.4823 C.3     1  UNL1       -0.0468
      8 C           0.5547    2.2951    0.2515 C.3     1  UNL1       -0.0502
      9 C          -0.3221    1.2935   -0.4610 C.3     1  UNL1       -0.0227
     10 C          -0.4053    0.0386    0.3534 C.3     1  UNL1        0.1301
     11 S          -1.6831    0.3178    1.5985 S.O2    1  UNL1        0.0072
     12 O          -1.8699   -0.9538    2.4088 O.2     1  UNL1       -0.1685
     13 O          -1.2881    1.3662    2.5800 O.2     1  UNL1       -0.1685
     14 C          -3.2241    0.6726    0.8843 C.ar    1  UNL1        0.0893
     15 C          -3.5821    1.9787    0.6322 C.ar    1  UNL1       -0.0355
     16 C          -4.7917    2.3416    0.0642 C.ar    1  UNL1       -0.0416
     17 C          -5.6745    1.3345   -0.2611 C.ar    1  UNL1        0.0411
     18 CL         -7.2416    1.6875   -0.9888 Cl      1  UNL1       -0.0835
     19 C          -5.3311    0.0215   -0.0150 C.ar    1  UNL1       -0.0416
     20 C          -4.1243   -0.3055    0.5492 C.ar    1  UNL1       -0.0355
     21 C          -0.9094   -1.1162   -0.4309 C.ar    1  UNL1        0.0600
     22 C          -1.6291   -1.0008   -1.6042 C.ar    1  UNL1        0.1323
     23 F          -1.8983    0.2016   -2.1027 F       1  UNL1       -0.2050
     24 C          -2.0980   -2.1022   -2.2886 C.ar    1  UNL1       -0.0232
     25 C          -1.8631   -3.3760   -1.8209 C.ar    1  UNL1       -0.0201
     26 C          -1.1504   -3.5155   -0.6573 C.ar    1  UNL1        0.1653
     27 F          -0.9174   -4.7600   -0.1888 F       1  UNL1       -0.2016
     28 C          -0.6825   -2.3902    0.0229 C.ar    1  UNL1        0.1635
     29 O           0.0374   -2.5409    1.1986 O.3     1  UNL1       -0.4883
     30 C           1.1367   -1.6711    1.4085 C.3     1  UNL1        0.0954
     31 C           0.8743   -0.2562    1.0390 C.3     1  UNL1        0.0287
     32 C           2.3946   -0.1467   -0.9822 C.3     1  UNL1       -0.0274
     33 C           3.8064   -0.7208   -1.1437 C.3     1  UNL1        0.0663
     34 H           4.2711    1.9252    1.2728 H       1  UNL1        0.0500
     35 H           5.2565    0.4735    1.8111 H       1  UNL1        0.0500
     36 H           2.9069    0.1559    2.4010 H       1  UNL1        0.0286
     37 H           3.5943   -1.0372    1.1974 H       1  UNL1        0.0286
     38 H           2.6213    2.3333   -0.2548 H       1  UNL1        0.0271
     39 H           2.2826    2.1889    1.5023 H       1  UNL1        0.0271
     40 H           0.5340    3.2577   -0.3412 H       1  UNL1        0.0266
     41 H           0.0948    2.5366    1.2279 H       1  UNL1        0.0266
     42 H          -1.3104    1.7935   -0.5781 H       1  UNL1        0.0290
     43 H           0.0522    1.1112   -1.4944 H       1  UNL1        0.0290
     44 H          -2.9211    2.8096    0.8717 H       1  UNL1        0.0637
     45 H          -5.0440    3.3919   -0.1227 H       1  UNL1        0.0633
     46 H          -6.0646   -0.7633   -0.2889 H       1  UNL1        0.0633
     47 H          -3.9016   -1.3509    0.7224 H       1  UNL1        0.0637
     48 H          -2.6602   -2.0027   -3.2063 H       1  UNL1        0.0647
     49 H          -2.2391   -4.2585   -2.3696 H       1  UNL1        0.0648
     50 H           1.4536   -1.7920    2.4528 H       1  UNL1        0.0700
     51 H           1.9609   -2.0650    0.7802 H       1  UNL1        0.0700
     52 H           0.8252    0.3032    2.0345 H       1  UNL1        0.0364
     53 H           2.4164    0.7717   -1.6432 H       1  UNL1        0.0286
     54 H           1.7039   -0.9036   -1.3722 H       1  UNL1        0.0286
     55 H           3.9232   -1.7026   -0.7001 H       1  UNL1        0.0500
     56 H           3.9747   -0.7882   -2.2338 H       1  UNL1        0.0500
@<TRIPOS>BOND
     1     1     2    2
     2     2     3    2
     3     2     4    1
     4     4     5    1
     5     5     6    1
     6     6     7    1
     7     7     8    1
     8     8     9    1
     9     9    10    1
    10    10    11    1
    11    11    12    2
    12    11    13    2
    13    11    14    1
    14    14    15   ar
    15    15    16   ar
    16    16    17   ar
    17    17    18    1
    18    17    19   ar
    19    19    20   ar
    20    10    21    1
    21    21    22   ar
    22    22    23    1
    23    22    24   ar
    24    24    25   ar
    25    25    26   ar
    26    26    27    1
    27    26    28   ar
    28    28    29    1
    29    29    30    1
    30    30    31    1
    31     6    32    1
    32    32    33    1
    33    33     2    1
    34    31     6    1
    35    31    10    1
    36    20    14   ar
    37    28    21   ar
    38     4    34    1
    39     4    35    1
    40     5    36    1
    41     5    37    1
    42     7    38    1
    43     7    39    1
    44     8    40    1
    45     8    41    1
    46     9    42    1
    47     9    43    1
    48    15    44    1
    49    16    45    1
    50    19    46    1
    51    20    47    1
    52    24    48    1
    53    25    49    1
    54    30    50    1
    55    30    51    1
    56    31    52    1
    57    32    53    1
    58    32    54    1
    59    33    55    1
    60    33    56    1
