@<TRIPOS>MOLECULE
*****
 63 68 0 0 0
SMALL
GASTEIGER

@<TRIPOS>ATOM
      1 C          -4.7664    0.0464   -2.8138 C.3     1  UNL1       -0.0057
      2 C          -4.9786   -1.1667   -1.9871 C.ar    1  UNL1        0.1109
      3 O          -6.1487   -1.7875   -1.8706 O.2     1  UNL1       -0.4674
      4 C          -6.0280   -2.8346   -1.0700 C.ar    1  UNL1        0.0927
      5 C          -4.7071   -2.8796   -0.6563 C.ar    1  UNL1       -0.0144
      6 C          -4.0342   -1.8234   -1.2343 C.ar    1  UNL1        0.0416
      7 C          -2.6373   -1.4485   -1.0995 C.ar    1  UNL1        0.0858
      8 N          -1.6745   -1.9585   -1.9142 N.ar    1  UNL1       -0.2279
      9 C          -0.3766   -1.6250   -1.8157 C.ar    1  UNL1        0.1589
     10 N           0.6221   -2.1661   -2.6743 N.pl3   1  UNL1       -0.3402
     11 C           0.0359   -0.7293   -0.8586 C.ar    1  UNL1        0.1605
     12 O           1.3521   -0.3420   -0.6976 O.3     1  UNL1       -0.4870
     13 C           1.7202    0.5847    0.3030 C.3     1  UNL1        0.1051
     14 C           3.2712    0.7955    0.2458 C.3     1  UNL1        0.0435
     15 N           3.5197    1.7487    1.3000 N.3     1  UNL1       -0.3242
     16 C           3.9321   -0.4958    0.5747 C.3     1  UNL1       -0.0073
     17 C           5.3771   -0.5810    0.6075 C.ar    1  UNL1       -0.0208
     18 C           6.0023   -1.7441    1.1205 C.ar    1  UNL1        0.0060
     19 N           7.3148   -1.5646    1.0472 N.ar    1  UNL1       -0.3604
     20 C           7.5640   -0.3513    0.5157 C.ar    1  UNL1        0.0467
     21 C           8.7366    0.3160    0.2271 C.ar    1  UNL1       -0.0378
     22 C           8.7314    1.5757   -0.3272 C.ar    1  UNL1       -0.0598
     23 C           7.5490    2.2138   -0.6129 C.ar    1  UNL1       -0.0611
     24 C           6.3744    1.5632   -0.3315 C.ar    1  UNL1       -0.0523
     25 C           6.3544    0.3009    0.2240 C.ar    1  UNL1        0.0029
     26 C          -0.9138   -0.1967   -0.0206 C.ar    1  UNL1       -0.0052
     27 C          -2.2588   -0.5462   -0.1270 C.ar    1  UNL1        0.0315
     28 C          -3.2603    0.0054    0.7773 C.ar    1  UNL1        0.0921
     29 C          -3.0606   -0.1634    2.1509 C.ar    1  UNL1        0.0560
     30 N          -3.9292    0.3025    3.0554 N.ar    1  UNL1       -0.2326
     31 C          -5.0466    0.9617    2.6725 C.ar    1  UNL1        0.1747
     32 N          -6.0777    1.5301    3.2916 N.ar    1  UNL1       -0.2587
     33 N          -6.9019    2.0389    2.3915 N.ar    1  UNL1       -0.1752
     34 C          -6.4276    1.8149    1.1535 C.ar    1  UNL1        0.0872
     35 C          -7.0417    2.2158   -0.1556 C.3     1  UNL1       -0.0185
     36 C          -5.2425    1.1276    1.3218 C.ar    1  UNL1        0.1306
     37 N          -4.3644    0.6573    0.3933 N.ar    1  UNL1       -0.2401
     38 H          -5.6598    0.7032   -2.6435 H       1  UNL1        0.0308
     39 H          -3.8240    0.5550   -2.5373 H       1  UNL1        0.0308
     40 H          -4.7070   -0.1944   -3.8905 H       1  UNL1        0.0308
     41 H          -6.8565   -3.4870   -0.8317 H       1  UNL1        0.1029
     42 H          -4.3225   -3.6318    0.0050 H       1  UNL1        0.0656
     43 H           1.4318   -1.5939   -3.0082 H       1  UNL1        0.1438
     44 H           0.5451   -3.1581   -2.9774 H       1  UNL1        0.1438
     45 H           1.2382    1.5581    0.0921 H       1  UNL1        0.0712
     46 H           1.4486    0.2697    1.3103 H       1  UNL1        0.0712
     47 H           3.4514    1.1397   -0.7695 H       1  UNL1        0.0495
     48 H           2.8745    2.5649    1.2927 H       1  UNL1        0.1186
     49 H           3.6198    1.3248    2.2246 H       1  UNL1        0.1186
     50 H           3.4733   -0.9604    1.5100 H       1  UNL1        0.0330
     51 H           3.5795   -1.2322   -0.2234 H       1  UNL1        0.0330
     52 H           5.5113   -2.6234    1.5045 H       1  UNL1        0.0810
     53 H           8.0779   -2.2101    1.3341 H       1  UNL1        0.1653
     54 H           9.7009   -0.1454    0.4333 H       1  UNL1        0.0638
     55 H           9.6566    2.0878   -0.5488 H       1  UNL1        0.0618
     56 H           7.4945    3.2007   -1.0475 H       1  UNL1        0.0618
     57 H           5.4495    2.0555   -0.5548 H       1  UNL1        0.0624
     58 H          -0.6643    0.5263    0.7695 H       1  UNL1        0.0662
     59 H          -2.1713   -0.6879    2.4674 H       1  UNL1        0.0852
     60 H          -6.1943    1.5557    4.3477 H       1  UNL1        0.1906
     61 H          -7.8310    2.9565    0.0906 H       1  UNL1        0.0294
     62 H          -7.5765    1.3480   -0.6127 H       1  UNL1        0.0294
     63 H          -6.3269    2.6837   -0.8430 H       1  UNL1        0.0294
@<TRIPOS>BOND
     1     1     2    1
     2     2     3   ar
     3     3     4   ar
     4     4     5   ar
     5     5     6   ar
     6     6     7    1
     7     7     8   ar
     8     8     9   ar
     9     9    10    1
    10     9    11   ar
    11    11    12    1
    12    12    13    1
    13    13    14    1
    14    14    15    1
    15    14    16    1
    16    16    17    1
    17    17    18   ar
    18    18    19   ar
    19    19    20   ar
    20    20    21   ar
    21    21    22   ar
    22    22    23   ar
    23    23    24   ar
    24    24    25   ar
    25    11    26   ar
    26    26    27   ar
    27    27    28    1
    28    28    29   ar
    29    29    30   ar
    30    30    31   ar
    31    31    32   ar
    32    32    33   ar
    33    33    34   ar
    34    34    35    1
    35    34    36   ar
    36    36    37   ar
    37     6     2   ar
    38    27     7   ar
    39    37    28   ar
    40    25    17   ar
    41    36    31   ar
    42    25    20   ar
    43     1    38    1
    44     1    39    1
    45     1    40    1
    46     4    41    1
    47     5    42    1
    48    10    43    1
    49    10    44    1
    50    13    45    1
    51    13    46    1
    52    14    47    1
    53    15    48    1
    54    15    49    1
    55    16    50    1
    56    16    51    1
    57    18    52    1
    58    19    53    1
    59    21    54    1
    60    22    55    1
    61    23    56    1
    62    24    57    1
    63    26    58    1
    64    29    59    1
    65    32    60    1
    66    35    61    1
    67    35    62    1
    68    35    63    1
