@<TRIPOS>MOLECULE
*****
 49 52 0 0 0
SMALL
GASTEIGER

@<TRIPOS>ATOM
      1 C          -4.3947    2.9041    0.1794 C.3     1  UNL1       -0.0429
      2 C          -4.0486    1.5507    0.7575 C.3     1  UNL1        0.0471
      3 C          -5.2946    0.6954    0.7198 C.3     1  UNL1       -0.0429
      4 N          -2.9661    0.9273   -0.0083 N.ar    1  UNL1       -0.2685
      5 C          -2.0568    0.0821    0.5195 C.ar    1  UNL1        0.0335
      6 C          -1.2148   -0.2877   -0.5059 C.ar    1  UNL1        0.0481
      7 C          -0.0368   -1.1960   -0.5005 C.3     1  UNL1        0.2674
      8 C           1.1933   -0.4518   -0.8843 C.ar    1  UNL1        0.0115
      9 C           1.6659   -0.5967   -2.1695 C.ar    1  UNL1       -0.0513
     10 C           2.8075    0.0586   -2.6133 C.ar    1  UNL1       -0.0254
     11 C           3.4590    0.8712   -1.7059 C.ar    1  UNL1        0.1312
     12 F           4.5810    1.5332   -2.0929 F       1  UNL1       -0.2049
     13 C           3.0274    1.0512   -0.4063 C.ar    1  UNL1        0.0206
     14 C           3.7449    1.9185    0.5168 C.ar    1  UNL1        0.0211
     15 C           3.9936    1.5232    1.8109 C.ar    1  UNL1        0.0385
     16 N           4.6652    2.3305    2.6826 N.ar    1  UNL1       -0.2431
     17 C           5.1029    3.5405    2.2931 C.ar    1  UNL1        0.1159
     18 N           4.8574    3.9216    1.0290 N.ar    1  UNL1       -0.2431
     19 C           4.2000    3.1613    0.1337 C.ar    1  UNL1        0.0385
     20 C           1.8727    0.3685   -0.0101 C.ar    1  UNL1       -0.0435
     21 N          -0.3290   -2.2482   -1.4339 N.2     1  UNL1       -0.0890
     22 C          -0.3603   -3.4095   -0.9066 C.2     1  UNL1        0.3731
     23 N          -0.6277   -4.6575   -1.5920 N.pl3   1  UNL1       -0.2512
     24 N          -0.0904   -3.2725    0.4785 N.am    1  UNL1       -0.1614
     25 C          -0.0322   -4.3780    1.4488 C.3     1  UNL1        0.0573
     26 C           0.1153   -1.9014    0.7779 C.2     1  UNL1        0.3304
     27 O           0.3707   -1.4883    1.9416 O.2     1  UNL1       -0.2520
     28 C          -1.6664    0.3654   -1.6233 C.ar    1  UNL1        0.0571
     29 N          -2.7152    1.0834   -1.2895 N.ar    1  UNL1       -0.1790
     30 H          -5.3535    3.2438    0.6164 H       1  UNL1        0.0250
     31 H          -3.5729    3.6503    0.3536 H       1  UNL1        0.0250
     32 H          -4.5768    2.7755   -0.8995 H       1  UNL1        0.0250
     33 H          -3.7304    1.7303    1.8197 H       1  UNL1        0.0539
     34 H          -5.8039    0.6614    1.7175 H       1  UNL1        0.0250
     35 H          -6.0579    1.0808    0.0152 H       1  UNL1        0.0250
     36 H          -5.0759   -0.3576    0.3998 H       1  UNL1        0.0250
     37 H          -1.9420   -0.2822    1.5310 H       1  UNL1        0.0830
     38 H           1.1485   -1.2343   -2.8711 H       1  UNL1        0.0623
     39 H           3.1501   -0.0817   -3.6395 H       1  UNL1        0.0646
     40 H           3.6370    0.5509    2.1095 H       1  UNL1        0.0837
     41 H           5.6445    4.1968    2.9893 H       1  UNL1        0.1047
     42 H           4.0091    3.4871   -0.8904 H       1  UNL1        0.0837
     43 H           1.4975    0.4817    1.0043 H       1  UNL1        0.0629
     44 H          -1.5924   -5.0155   -1.7269 H       1  UNL1        0.2412
     45 H           0.1600   -5.2188   -1.9624 H       1  UNL1        0.2412
     46 H           1.0099   -4.7382    1.5350 H       1  UNL1        0.0602
     47 H          -0.6729   -5.2233    1.1082 H       1  UNL1        0.0602
     48 H          -0.4558   -4.0175    2.4050 H       1  UNL1        0.0602
     49 H          -1.2452    0.3113   -2.6181 H       1  UNL1        0.0852
@<TRIPOS>BOND
     1     1     2    1
     2     2     3    1
     3     2     4    1
     4     4     5   ar
     5     5     6   ar
     6     6     7    1
     7     7     8    1
     8     8     9   ar
     9     9    10   ar
    10    10    11   ar
    11    11    12    1
    12    11    13   ar
    13    13    14    1
    14    14    15   ar
    15    15    16   ar
    16    16    17   ar
    17    17    18   ar
    18    18    19   ar
    19    13    20   ar
    20     7    21    1
    21    21    22    2
    22    22    23    1
    23    22    24    1
    24    24    25    1
    25    24    26   am
    26    26    27    2
    27     6    28   ar
    28    28    29   ar
    29    29     4   ar
    30    26     7    1
    31    20     8   ar
    32    19    14   ar
    33     1    30    1
    34     1    31    1
    35     1    32    1
    36     2    33    1
    37     3    34    1
    38     3    35    1
    39     3    36    1
    40     5    37    1
    41     9    38    1
    42    10    39    1
    43    15    40    1
    44    17    41    1
    45    19    42    1
    46    20    43    1
    47    23    44    1
    48    23    45    1
    49    25    46    1
    50    25    47    1
    51    25    48    1
    52    28    49    1
