@<TRIPOS>MOLECULE
*****
 69 73 0 0 0
SMALL
GASTEIGER

@<TRIPOS>ATOM
      1 C          -4.7480   -3.1885   -0.6413 C.3     1  UNL1       -0.0220
      2 C          -3.2934   -3.1703   -0.8418 C.ar    1  UNL1        0.0471
      3 C          -2.4388   -2.2231   -0.3315 C.ar    1  UNL1        0.0643
      4 C          -2.6116   -1.0808    0.4598 C.ar    1  UNL1        0.1324
      5 O          -3.8827   -0.7902    0.8408 O.3     1  UNL1       -0.4880
      6 C          -4.3438    0.2753    1.6242 C.3     1  UNL1        0.1021
      7 C          -5.0038   -0.1751    2.9000 C.3     1  UNL1       -0.0275
      8 C          -5.2397    1.1227    0.7689 C.3     1  UNL1        0.0195
      9 C          -5.8078    2.3140    1.4949 C.3     1  UNL1        0.0182
     10 N          -6.3415    3.0929    0.3747 N.am    1  UNL1       -0.3149
     11 C          -5.4161    2.9041   -0.6856 C.2     1  UNL1        0.2135
     12 O          -5.3775    3.5760   -1.7407 O.2     1  UNL1       -0.2758
     13 C          -4.4904    1.7876   -0.3669 C.3     1  UNL1        0.0315
     14 C          -1.4741   -0.3719    0.7686 C.ar    1  UNL1       -0.0113
     15 C          -0.2044   -0.7085    0.3571 C.ar    1  UNL1       -0.0094
     16 C           0.9668    0.1054    0.7302 C.ar    1  UNL1        0.0198
     17 C           1.1975    0.8446    1.8690 C.ar    1  UNL1        0.0571
     18 N           2.4105    1.4213    1.7653 N.ar    1  UNL1       -0.1787
     19 N           2.9560    1.0798    0.6130 N.ar    1  UNL1       -0.2650
     20 C           4.2640    1.5422    0.2083 C.3     1  UNL1        0.0836
     21 C           4.4769    1.4721   -1.2906 C.3     1  UNL1        0.0009
     22 C           6.0013    1.3913   -1.3398 C.3     1  UNL1        0.0668
     23 C           6.4700    0.6076   -2.5423 C.3     1  UNL1       -0.0360
     24 C           6.5012    2.8152   -1.4550 C.3     1  UNL1       -0.0360
     25 O           6.4305    0.8722   -0.1541 O.3     1  UNL1       -0.3659
     26 C           5.3714    0.5994    0.6641 C.3     1  UNL1        0.0869
     27 C           5.6442    0.8804    2.1205 C.3     1  UNL1       -0.0340
     28 C           4.9768   -0.8452    0.4889 C.3     1  UNL1       -0.0340
     29 C           2.0955    0.2749   -0.0419 C.ar    1  UNL1        0.0336
     30 C          -0.0682   -1.8402   -0.4218 C.ar    1  UNL1       -0.0259
     31 C          -1.1794   -2.5951   -0.7654 C.ar    1  UNL1        0.0971
     32 N          -1.3178   -3.7224   -1.5013 N.ar    1  UNL1       -0.1711
     33 N          -2.5955   -4.0842   -1.5568 N.ar    1  UNL1       -0.2704
     34 C          -3.1732   -5.2315   -2.2415 C.3     1  UNL1        0.0305
     35 H          -5.0030   -2.8083    0.3805 H       1  UNL1        0.0293
     36 H          -5.1867   -4.2202   -0.6921 H       1  UNL1        0.0293
     37 H          -5.2627   -2.5416   -1.3966 H       1  UNL1        0.0293
     38 H          -3.4722    0.8922    1.9150 H       1  UNL1        0.0733
     39 H          -4.9311    0.5926    3.6978 H       1  UNL1        0.0265
     40 H          -6.0831   -0.3933    2.7680 H       1  UNL1        0.0265
     41 H          -4.5488   -1.1190    3.2704 H       1  UNL1        0.0265
     42 H          -6.0782    0.5652    0.3324 H       1  UNL1        0.0356
     43 H          -5.0133    2.9585    1.9418 H       1  UNL1        0.0466
     44 H          -6.6148    2.0624    2.1979 H       1  UNL1        0.0466
     45 H          -7.2252    3.6718    0.3571 H       1  UNL1        0.1487
     46 H          -3.5262    2.2084    0.0410 H       1  UNL1        0.0363
     47 H          -4.3142    1.1102   -1.2134 H       1  UNL1        0.0363
     48 H          -1.5684    0.5144    1.3767 H       1  UNL1        0.0660
     49 H           0.4958    0.9236    2.6882 H       1  UNL1        0.0854
     50 H           4.5022    2.5421    0.5710 H       1  UNL1        0.0574
     51 H           4.0973    2.3627   -1.8115 H       1  UNL1        0.0314
     52 H           4.0941    0.5364   -1.7119 H       1  UNL1        0.0314
     53 H           5.8691    0.8660   -3.4379 H       1  UNL1        0.0257
     54 H           7.5347    0.8859   -2.7228 H       1  UNL1        0.0257
     55 H           6.4443   -0.4760   -2.4083 H       1  UNL1        0.0257
     56 H           7.1957    2.9356   -2.2962 H       1  UNL1        0.0257
     57 H           7.0490    3.1357   -0.5219 H       1  UNL1        0.0257
     58 H           5.6800    3.5527   -1.5660 H       1  UNL1        0.0257
     59 H           5.6318    1.9813    2.2901 H       1  UNL1        0.0258
     60 H           6.5942    0.4083    2.4625 H       1  UNL1        0.0258
     61 H           4.7967    0.4652    2.7039 H       1  UNL1        0.0258
     62 H           4.9621   -1.1171   -0.5828 H       1  UNL1        0.0258
     63 H           4.0356   -1.1032    1.0100 H       1  UNL1        0.0258
     64 H           5.7711   -1.4555    0.9637 H       1  UNL1        0.0258
     65 H           2.3061   -0.1427   -1.0127 H       1  UNL1        0.0832
     66 H           0.9368   -2.1121   -0.7511 H       1  UNL1        0.0646
     67 H          -3.6473   -4.9192   -3.1926 H       1  UNL1        0.0473
     68 H          -2.3839   -5.9664   -2.5006 H       1  UNL1        0.0473
     69 H          -3.8923   -5.7489   -1.5839 H       1  UNL1        0.0473
@<TRIPOS>BOND
     1     1     2    1
     2     2     3   ar
     3     3     4   ar
     4     4     5    1
     5     5     6    1
     6     6     7    1
     7     6     8    1
     8     8     9    1
     9     9    10    1
    10    10    11   am
    11    11    12    2
    12    11    13    1
    13     4    14   ar
    14    14    15   ar
    15    15    16    1
    16    16    17   ar
    17    17    18   ar
    18    18    19   ar
    19    19    20    1
    20    20    21    1
    21    21    22    1
    22    22    23    1
    23    22    24    1
    24    22    25    1
    25    25    26    1
    26    26    27    1
    27    26    28    1
    28    19    29   ar
    29    15    30   ar
    30    30    31   ar
    31    31    32   ar
    32    32    33   ar
    33    33    34    1
    34    33     2   ar
    35    31     3   ar
    36    13     8    1
    37    29    16   ar
    38    26    20    1
    39     1    35    1
    40     1    36    1
    41     1    37    1
    42     6    38    1
    43     7    39    1
    44     7    40    1
    45     7    41    1
    46     8    42    1
    47     9    43    1
    48     9    44    1
    49    10    45    1
    50    13    46    1
    51    13    47    1
    52    14    48    1
    53    17    49    1
    54    20    50    1
    55    21    51    1
    56    21    52    1
    57    23    53    1
    58    23    54    1
    59    23    55    1
    60    24    56    1
    61    24    57    1
    62    24    58    1
    63    27    59    1
    64    27    60    1
    65    27    61    1
    66    28    62    1
    67    28    63    1
    68    28    64    1
    69    29    65    1
    70    30    66    1
    71    34    67    1
    72    34    68    1
    73    34    69    1
