
     RDKit          3D

 57 60  0  0  0  0  0  0  0  0999 V2000
   -8.7942    1.5281   -1.1780 C   0  0  0  0  0  0  0  0  0  0  0  0
   -8.0111    1.2791   -0.0277 O   0  0  0  0  0  0  0  0  0  0  0  0
   -6.7415    0.7102   -0.1709 C   0  0  0  0  0  0  0  0  0  0  0  0
   -6.2425    0.3894   -1.4187 C   0  0  0  0  0  0  0  0  0  0  0  0
   -5.0011   -0.1680   -1.5713 C   0  0  0  0  0  0  0  0  0  0  0  0
   -4.2014   -0.4281   -0.4524 C   0  0  0  0  0  0  0  0  0  0  0  0
   -2.9181   -1.0710   -0.6162 C   0  0  0  0  0  0  0  0  0  0  0  0
   -2.8276   -1.9056   -1.5602 O   0  0  0  0  0  0  0  0  0  0  0  0
   -1.7614   -0.8394    0.2036 C   0  0  0  0  0  0  0  0  0  0  0  0
   -0.7316   -1.7738    0.4578 C   0  0  0  0  0  0  0  0  0  0  0  0
   -0.7844   -3.1608   -0.1024 C   0  0  0  0  0  0  0  0  0  0  0  0
    0.2036   -1.2178    1.2250 N   0  0  0  0  0  0  0  0  0  0  0  0
    1.4180   -1.8470    1.7060 C   0  0  0  0  0  0  0  0  0  0  0  0
    2.5670   -1.6632    0.7752 C   0  0  0  0  0  0  0  0  0  0  0  0
    2.8365   -2.5726   -0.2325 C   0  0  0  0  0  0  0  0  0  0  0  0
    3.9049   -2.3827   -1.0823 C   0  0  0  0  0  0  0  0  0  0  0  0
    4.7578   -1.2891   -0.9801 C   0  0  0  0  0  0  0  0  0  0  0  0
    4.5019   -0.3787    0.0156 C   0  0  0  0  0  0  0  0  0  0  0  0
    5.2831    0.7374    0.2036 O   0  0  0  0  0  0  0  0  0  0  0  0
    6.3879    1.1285   -0.5184 C   0  0  1  0  0  0  0  0  0  0  0  0
    6.1706    2.5005   -1.1287 C   0  0  0  0  0  0  0  0  0  0  0  0
    7.6011    1.2119    0.3642 C   0  0  0  0  0  0  0  0  0  0  0  0
    7.4797    0.9249    1.5786 O   0  0  0  0  0  0  0  0  0  0  0  0
    8.8494    1.5908   -0.0986 O   0  0  0  0  0  0  0  0  0  0  0  0
    3.4121   -0.5835    0.8733 C   0  0  0  0  0  0  0  0  0  0  0  0
   -0.1234    0.0560    1.5157 C   0  0  0  0  0  0  0  0  0  0  0  0
    0.5172    1.0128    2.2430 N   0  0  0  0  0  0  0  0  0  0  0  0
   -0.0330    2.2163    2.3535 C   0  0  0  0  0  0  0  0  0  0  0  0
   -1.2367    2.5264    1.7512 C   0  0  0  0  0  0  0  0  0  0  0  0
   -1.8787    1.5442    1.0144 C   0  0  0  0  0  0  0  0  0  0  0  0
   -1.3287    0.2975    0.8911 C   0  0  0  0  0  0  0  0  0  0  0  0
   -4.7168   -0.1011    0.7828 C   0  0  0  0  0  0  0  0  0  0  0  0
   -5.9541    0.4535    0.9210 C   0  0  0  0  0  0  0  0  0  0  0  0
   -8.8351    0.5794   -1.7619 H   0  0  0  0  0  0  0  0  0  0  0  0
   -8.4046    2.3531   -1.7950 H   0  0  0  0  0  0  0  0  0  0  0  0
   -9.8266    1.8315   -0.8481 H   0  0  0  0  0  0  0  0  0  0  0  0
   -6.8533    0.5855   -2.3077 H   0  0  0  0  0  0  0  0  0  0  0  0
   -4.6063   -0.4227   -2.5677 H   0  0  0  0  0  0  0  0  0  0  0  0
   -0.0640   -3.8178    0.4316 H   0  0  0  0  0  0  0  0  0  0  0  0
   -0.4931   -3.1450   -1.1609 H   0  0  0  0  0  0  0  0  0  0  0  0
   -1.8323   -3.5131    0.0375 H   0  0  0  0  0  0  0  0  0  0  0  0
    1.2687   -2.9422    1.8656 H   0  0  0  0  0  0  0  0  0  0  0  0
    1.6872   -1.4572    2.7317 H   0  0  0  0  0  0  0  0  0  0  0  0
    2.1778   -3.4472   -0.3359 H   0  0  0  0  0  0  0  0  0  0  0  0
    4.1322   -3.0976   -1.8887 H   0  0  0  0  0  0  0  0  0  0  0  0
    5.5856   -1.1929   -1.6803 H   0  0  0  0  0  0  0  0  0  0  0  0
    6.6351    0.4500   -1.3358 H   0  0  0  0  0  0  0  0  0  0  0  0
    5.2375    2.4943   -1.6905 H   0  0  0  0  0  0  0  0  0  0  0  0
    6.2758    3.3047   -0.3878 H   0  0  0  0  0  0  0  0  0  0  0  0
    6.9941    2.6525   -1.8709 H   0  0  0  0  0  0  0  0  0  0  0  0
    9.6475    1.2035    0.4079 H   0  0  0  0  0  0  0  0  0  0  0  0
    3.2031    0.1274    1.6595 H   0  0  0  0  0  0  0  0  0  0  0  0
    0.4318    3.0318    2.9260 H   0  0  0  0  0  0  0  0  0  0  0  0
   -1.6958    3.5020    1.8321 H   0  0  0  0  0  0  0  0  0  0  0  0
   -2.8034    1.7788    0.5180 H   0  0  0  0  0  0  0  0  0  0  0  0
   -4.1115   -0.2937    1.6822 H   0  0  0  0  0  0  0  0  0  0  0  0
   -6.3552    0.7100    1.9084 H   0  0  0  0  0  0  0  0  0  0  0  0
  1  2  1  0
  2  3  1  0
  3  4  2  0
  4  5  1  0
  5  6  2  0
  6  7  1  0
  7  8  2  0
  7  9  1  0
  9 10  2  0
 10 11  1  0
 10 12  1  0
 12 13  1  0
 13 14  1  0
 14 15  2  0
 15 16  1  0
 16 17  2  0
 17 18  1  0
 18 19  1  0
 19 20  1  0
 20 21  1  0
 20 22  1  0
 22 23  2  0
 22 24  1  0
 18 25  2  0
 12 26  1  0
 26 27  2  0
 27 28  1  0
 28 29  2  0
 29 30  1  0
 30 31  2  0
  6 32  1  0
 32 33  2  0
 33  3  1  0
 31  9  1  0
 25 14  1  0
 31 26  1  0
  1 34  1  0
  1 35  1  0
  1 36  1  0
  4 37  1  0
  5 38  1  0
 11 39  1  0
 11 40  1  0
 11 41  1  0
 13 42  1  0
 13 43  1  0
 15 44  1  0
 16 45  1  0
 17 46  1  0
 20 47  1  6
 21 48  1  0
 21 49  1  0
 21 50  1  0
 24 51  1  0
 25 52  1  0
 28 53  1  0
 29 54  1  0
 30 55  1  0
 32 56  1  0
 33 57  1  0
M  END
$$$$
