@<TRIPOS>MOLECULE
*****
 57 60 0 0 0
SMALL
GASTEIGER

@<TRIPOS>ATOM
      1 C          -8.7942    1.5281   -1.1780 C.3     1  UNL1        0.0788
      2 O          -8.0111    1.2791   -0.0277 O.3     1  UNL1       -0.4951
      3 C          -6.7415    0.7102   -0.1709 C.ar    1  UNL1        0.1201
      4 C          -6.2425    0.3894   -1.4187 C.ar    1  UNL1       -0.0193
      5 C          -5.0011   -0.1680   -1.5713 C.ar    1  UNL1       -0.0475
      6 C          -4.2014   -0.4281   -0.4524 C.ar    1  UNL1        0.0226
      7 C          -2.9181   -1.0710   -0.6162 C.2     1  UNL1        0.1955
      8 O          -2.8276   -1.9056   -1.5602 O.2     1  UNL1       -0.2866
      9 C          -1.7614   -0.8394    0.2036 C.ar    1  UNL1        0.0520
     10 C          -0.7316   -1.7738    0.4578 C.ar    1  UNL1        0.0293
     11 C          -0.7844   -3.1608   -0.1024 C.3     1  UNL1       -0.0235
     12 N           0.2036   -1.2178    1.2250 N.ar    1  UNL1       -0.3243
     13 C           1.4180   -1.8470    1.7060 C.3     1  UNL1        0.0500
     14 C           2.5670   -1.6632    0.7752 C.ar    1  UNL1       -0.0243
     15 C           2.8365   -2.5726   -0.2325 C.ar    1  UNL1       -0.0566
     16 C           3.9049   -2.3827   -1.0823 C.ar    1  UNL1       -0.0580
     17 C           4.7578   -1.2891   -0.9801 C.ar    1  UNL1       -0.0199
     18 C           4.5019   -0.3787    0.0156 C.ar    1  UNL1        0.1220
     19 O           5.2831    0.7374    0.2036 O.3     1  UNL1       -0.4779
     20 C           6.3879    1.1285   -0.5184 C.3     1  UNL1        0.1931
     21 C           6.1706    2.5005   -1.1287 C.3     1  UNL1       -0.0172
     22 C           7.6011    1.2119    0.3642 C.2     1  UNL1        0.3456
     23 O           7.4797    0.9249    1.5786 O.2     1  UNL1       -0.2468
     24 O           8.8494    1.5908   -0.0986 O.3     1  UNL1       -0.4781
     25 C           3.4121   -0.5835    0.8733 C.ar    1  UNL1       -0.0150
     26 C          -0.1234    0.0560    1.5157 C.ar    1  UNL1        0.1418
     27 N           0.5172    1.0128    2.2430 N.ar    1  UNL1       -0.2373
     28 C          -0.0330    2.2163    2.3535 C.ar    1  UNL1        0.0299
     29 C          -1.2367    2.5264    1.7512 C.ar    1  UNL1       -0.0429
     30 C          -1.8787    1.5442    1.0144 C.ar    1  UNL1       -0.0489
     31 C          -1.3287    0.2975    0.8911 C.ar    1  UNL1        0.0300
     32 C          -4.7168   -0.1011    0.7828 C.ar    1  UNL1       -0.0475
     33 C          -5.9541    0.4535    0.9210 C.ar    1  UNL1       -0.0193
     34 H          -8.8351    0.5794   -1.7619 H       1  UNL1        0.0660
     35 H          -8.4046    2.3531   -1.7950 H       1  UNL1        0.0660
     36 H          -9.8266    1.8315   -0.8481 H       1  UNL1        0.0660
     37 H          -6.8533    0.5855   -2.3077 H       1  UNL1        0.0654
     38 H          -4.6063   -0.4227   -2.5677 H       1  UNL1        0.0626
     39 H          -0.0640   -3.8178    0.4316 H       1  UNL1        0.0292
     40 H          -0.4931   -3.1450   -1.1609 H       1  UNL1        0.0292
     41 H          -1.8323   -3.5131    0.0375 H       1  UNL1        0.0292
     42 H           1.2687   -2.9422    1.8656 H       1  UNL1        0.0542
     43 H           1.6872   -1.4572    2.7317 H       1  UNL1        0.0542
     44 H           2.1778   -3.4472   -0.3359 H       1  UNL1        0.0621
     45 H           4.1322   -3.0976   -1.8887 H       1  UNL1        0.0619
     46 H           5.5856   -1.1929   -1.6803 H       1  UNL1        0.0654
     47 H           6.6351    0.4500   -1.3358 H       1  UNL1        0.0849
     48 H           5.2375    2.4943   -1.6905 H       1  UNL1        0.0271
     49 H           6.2758    3.3047   -0.3878 H       1  UNL1        0.0271
     50 H           6.9941    2.6525   -1.8709 H       1  UNL1        0.0271
     51 H           9.6475    1.2035    0.4079 H       1  UNL1        0.2952
     52 H           3.2031    0.1274    1.6595 H       1  UNL1        0.0657
     53 H           0.4318    3.0318    2.9260 H       1  UNL1        0.0830
     54 H          -1.6958    3.5020    1.8321 H       1  UNL1        0.0633
     55 H          -2.8034    1.7788    0.5180 H       1  UNL1        0.0625
     56 H          -4.1115   -0.2937    1.6822 H       1  UNL1        0.0626
     57 H          -6.3552    0.7100    1.9084 H       1  UNL1        0.0654
@<TRIPOS>BOND
     1     1     2    1
     2     2     3    1
     3     3     4   ar
     4     4     5   ar
     5     5     6   ar
     6     6     7    1
     7     7     8    2
     8     7     9    1
     9     9    10   ar
    10    10    11    1
    11    10    12   ar
    12    12    13    1
    13    13    14    1
    14    14    15   ar
    15    15    16   ar
    16    16    17   ar
    17    17    18   ar
    18    18    19    1
    19    19    20    1
    20    20    21    1
    21    20    22    1
    22    22    23    2
    23    22    24    1
    24    18    25   ar
    25    12    26   ar
    26    26    27   ar
    27    27    28   ar
    28    28    29   ar
    29    29    30   ar
    30    30    31   ar
    31     6    32   ar
    32    32    33   ar
    33    33     3   ar
    34    31     9   ar
    35    25    14   ar
    36    31    26   ar
    37     1    34    1
    38     1    35    1
    39     1    36    1
    40     4    37    1
    41     5    38    1
    42    11    39    1
    43    11    40    1
    44    11    41    1
    45    13    42    1
    46    13    43    1
    47    15    44    1
    48    16    45    1
    49    17    46    1
    50    20    47    1
    51    21    48    1
    52    21    49    1
    53    21    50    1
    54    24    51    1
    55    25    52    1
    56    28    53    1
    57    29    54    1
    58    30    55    1
    59    32    56    1
    60    33    57    1
