
     RDKit          3D

 43 46  0  0  0  0  0  0  0  0999 V2000
    4.4934    1.0986    0.5810 C   0  0  0  0  0  0  0  0  0  0  0  0
    4.0464   -0.0570   -0.2790 C   0  0  0  0  0  0  0  0  0  0  0  0
    5.3089   -0.7614   -0.7681 C   0  0  0  0  0  0  0  0  0  0  0  0
    3.2340   -1.0724    0.4629 C   0  0  0  0  0  0  0  0  0  0  0  0
    1.8127   -0.7399    0.6556 C   0  0  0  0  0  0  0  0  0  0  0  0
    1.3360    0.5785    0.2065 C   0  0  0  0  0  0  0  0  0  0  0  0
   -0.0666    0.5315   -0.2465 N   0  0  0  0  0  0  0  0  0  0  0  0
   -1.1026    0.1326    0.6320 C   0  0  0  0  0  0  0  0  0  0  0  0
   -0.8898   -0.2233    1.9094 N   0  0  0  0  0  0  0  0  0  0  0  0
   -1.8680   -0.6021    2.7460 C   0  0  0  0  0  0  0  0  0  0  0  0
   -3.1483   -0.6336    2.2946 N   0  0  0  0  0  0  0  0  0  0  0  0
   -3.4070   -0.2874    1.0295 C   0  0  0  0  0  0  0  0  0  0  0  0
   -2.3985    0.1012    0.1734 C   0  0  0  0  0  0  0  0  0  0  0  0
   -2.9965    0.3818   -1.0205 N   0  0  0  0  0  0  0  0  0  0  0  0
   -4.3014    0.1886   -0.9441 N   0  0  0  0  0  0  0  0  0  0  0  0
   -5.3212    0.3146   -1.8065 C   0  0  0  0  0  0  0  0  0  0  0  0
   -6.6155    0.0417   -1.4598 C   0  0  0  0  0  0  0  0  0  0  0  0
   -6.9288   -0.3819   -0.1852 C   0  0  0  0  0  0  0  0  0  0  0  0
   -5.8780   -0.5153    0.7151 C   0  0  0  0  0  0  0  0  0  0  0  0
   -4.5854   -0.2297    0.3254 C   0  0  0  0  0  0  0  0  0  0  0  0
    2.1206    1.2714   -0.8370 C   0  0  0  0  0  0  0  0  0  0  0  0
    3.2136    0.4274   -1.4501 C   0  0  0  0  0  0  0  0  0  0  0  0
    3.6895    1.4045    1.2914 H   0  0  0  0  0  0  0  0  0  0  0  0
    4.7786    1.9440   -0.0598 H   0  0  0  0  0  0  0  0  0  0  0  0
    5.3602    0.7456    1.1799 H   0  0  0  0  0  0  0  0  0  0  0  0
    5.7096   -1.3976    0.0511 H   0  0  0  0  0  0  0  0  0  0  0  0
    5.0978   -1.4328   -1.6181 H   0  0  0  0  0  0  0  0  0  0  0  0
    6.0647   -0.0250   -1.0894 H   0  0  0  0  0  0  0  0  0  0  0  0
    3.7685   -1.2430    1.4449 H   0  0  0  0  0  0  0  0  0  0  0  0
    3.3748   -2.0506   -0.0832 H   0  0  0  0  0  0  0  0  0  0  0  0
    1.5619   -0.8911    1.7453 H   0  0  0  0  0  0  0  0  0  0  0  0
    1.1920   -1.5296    0.1353 H   0  0  0  0  0  0  0  0  0  0  0  0
    1.3008    1.2604    1.1087 H   0  0  0  0  0  0  0  0  0  0  0  0
   -0.3187    0.7917   -1.2237 H   0  0  0  0  0  0  0  0  0  0  0  0
   -1.6958   -0.8893    3.7775 H   0  0  0  0  0  0  0  0  0  0  0  0
   -5.1056    0.6448   -2.8123 H   0  0  0  0  0  0  0  0  0  0  0  0
   -7.4269    0.1469   -2.1624 H   0  0  0  0  0  0  0  0  0  0  0  0
   -7.9541   -0.6065    0.1172 H   0  0  0  0  0  0  0  0  0  0  0  0
   -6.1113   -0.8429    1.7047 H   0  0  0  0  0  0  0  0  0  0  0  0
    2.6238    2.2056   -0.4670 H   0  0  0  0  0  0  0  0  0  0  0  0
    1.4843    1.6206   -1.7026 H   0  0  0  0  0  0  0  0  0  0  0  0
    3.7739    1.0574   -2.1490 H   0  0  0  0  0  0  0  0  0  0  0  0
    2.7741   -0.4766   -1.9155 H   0  0  0  0  0  0  0  0  0  0  0  0
  1  2  1  0
  2  3  1  0
  2  4  1  0
  4  5  1  0
  5  6  1  0
  6  7  1  0
  7  8  1  0
  8  9  2  0
  9 10  1  0
 10 11  2  0
 11 12  1  0
 12 13  1  0
 13 14  2  0
 14 15  1  0
 15 16  1  0
 16 17  2  0
 17 18  1  0
 18 19  2  0
 19 20  1  0
  6 21  1  0
 21 22  1  0
 22  2  1  0
 13  8  1  0
 20 15  1  0
 20 12  2  0
  1 23  1  0
  1 24  1  0
  1 25  1  0
  3 26  1  0
  3 27  1  0
  3 28  1  0
  4 29  1  0
  4 30  1  0
  5 31  1  0
  5 32  1  0
  6 33  1  0
  7 34  1  0
 10 35  1  0
 16 36  1  0
 17 37  1  0
 18 38  1  0
 19 39  1  0
 21 40  1  0
 21 41  1  0
 22 42  1  0
 22 43  1  0
M  END
$$$$
