@<TRIPOS>MOLECULE
*****
 43 46 0 0 0
SMALL
GASTEIGER

@<TRIPOS>ATOM
      1 C           4.4934    1.0986    0.5810 C.3     1  UNL1       -0.0598
      2 C           4.0464   -0.0570   -0.2790 C.3     1  UNL1       -0.0348
      3 C           5.3089   -0.7614   -0.7681 C.3     1  UNL1       -0.0598
      4 C           3.2340   -1.0724    0.4629 C.3     1  UNL1       -0.0462
      5 C           1.8127   -0.7399    0.6556 C.3     1  UNL1       -0.0341
      6 C           1.3360    0.5785    0.2065 C.3     1  UNL1        0.0221
      7 N          -0.0666    0.5315   -0.2465 N.pl3   1  UNL1       -0.3244
      8 C          -1.1026    0.1326    0.6320 C.ar    1  UNL1        0.1502
      9 N          -0.8898   -0.2233    1.9094 N.ar    1  UNL1       -0.2187
     10 C          -1.8680   -0.6021    2.7460 C.ar    1  UNL1        0.1189
     11 N          -3.1483   -0.6336    2.2946 N.ar    1  UNL1       -0.2316
     12 C          -3.4070   -0.2874    1.0295 C.ar    1  UNL1        0.1212
     13 C          -2.3985    0.1012    0.1734 C.ar    1  UNL1        0.1515
     14 N          -2.9965    0.3818   -1.0205 N.ar    1  UNL1       -0.1613
     15 N          -4.3014    0.1886   -0.9441 N.ar    1  UNL1       -0.2371
     16 C          -5.3212    0.3146   -1.8065 C.ar    1  UNL1        0.0298
     17 C          -6.6155    0.0417   -1.4598 C.ar    1  UNL1       -0.0435
     18 C          -6.9288   -0.3819   -0.1852 C.ar    1  UNL1       -0.0583
     19 C          -5.8780   -0.5153    0.7151 C.ar    1  UNL1       -0.0341
     20 C          -4.5854   -0.2297    0.3254 C.ar    1  UNL1        0.0929
     21 C           2.1206    1.2714   -0.8370 C.3     1  UNL1       -0.0341
     22 C           3.2136    0.4274   -1.4501 C.3     1  UNL1       -0.0462
     23 H           3.6895    1.4045    1.2914 H       1  UNL1        0.0235
     24 H           4.7786    1.9440   -0.0598 H       1  UNL1        0.0235
     25 H           5.3602    0.7456    1.1799 H       1  UNL1        0.0235
     26 H           5.7096   -1.3976    0.0511 H       1  UNL1        0.0235
     27 H           5.0978   -1.4328   -1.6181 H       1  UNL1        0.0235
     28 H           6.0647   -0.0250   -1.0894 H       1  UNL1        0.0235
     29 H           3.7685   -1.2430    1.4449 H       1  UNL1        0.0271
     30 H           3.3748   -2.0506   -0.0832 H       1  UNL1        0.0271
     31 H           1.5619   -0.8911    1.7453 H       1  UNL1        0.0283
     32 H           1.1920   -1.5296    0.1353 H       1  UNL1        0.0283
     33 H           1.3008    1.2604    1.1087 H       1  UNL1        0.0498
     34 H          -0.3187    0.7917   -1.2237 H       1  UNL1        0.1478
     35 H          -1.6958   -0.8893    3.7775 H       1  UNL1        0.1048
     36 H          -5.1056    0.6448   -2.8123 H       1  UNL1        0.0830
     37 H          -7.4269    0.1469   -2.1624 H       1  UNL1        0.0633
     38 H          -7.9541   -0.6065    0.1172 H       1  UNL1        0.0619
     39 H          -6.1113   -0.8429    1.7047 H       1  UNL1        0.0639
     40 H           2.6238    2.2056   -0.4670 H       1  UNL1        0.0283
     41 H           1.4843    1.6206   -1.7026 H       1  UNL1        0.0283
     42 H           3.7739    1.0574   -2.1490 H       1  UNL1        0.0271
     43 H           2.7741   -0.4766   -1.9155 H       1  UNL1        0.0271
@<TRIPOS>BOND
     1     1     2    1
     2     2     3    1
     3     2     4    1
     4     4     5    1
     5     5     6    1
     6     6     7    1
     7     7     8    1
     8     8     9   ar
     9     9    10   ar
    10    10    11   ar
    11    11    12   ar
    12    12    13   ar
    13    13    14   ar
    14    14    15   ar
    15    15    16   ar
    16    16    17   ar
    17    17    18   ar
    18    18    19   ar
    19    19    20   ar
    20     6    21    1
    21    21    22    1
    22    22     2    1
    23    13     8   ar
    24    20    15   ar
    25    20    12   ar
    26     1    23    1
    27     1    24    1
    28     1    25    1
    29     3    26    1
    30     3    27    1
    31     3    28    1
    32     4    29    1
    33     4    30    1
    34     5    31    1
    35     5    32    1
    36     6    33    1
    37     7    34    1
    38    10    35    1
    39    16    36    1
    40    17    37    1
    41    18    38    1
    42    19    39    1
    43    21    40    1
    44    21    41    1
    45    22    42    1
    46    22    43    1
