
     RDKit          3D

 55 58  0  0  0  0  0  0  0  0999 V2000
    9.7079   -1.3966    2.8932 C   0  0  0  0  0  0  0  0  0  0  0  0
    9.3493   -1.3253    1.4444 C   0  0  0  0  0  0  0  0  0  0  0  0
    8.1382   -0.7025    1.1533 O   0  0  0  0  0  0  0  0  0  0  0  0
    6.9403   -1.2020    1.6591 C   0  0  0  0  0  0  0  0  0  0  0  0
    7.0056   -2.2217    2.3781 O   0  0  0  0  0  0  0  0  0  0  0  0
    5.6638   -0.5406    1.3456 C   0  0  0  0  0  0  0  0  0  0  0  0
    4.4126   -0.9146    1.7460 C   0  0  0  0  0  0  0  0  0  0  0  0
    3.4516   -0.0696    1.2573 C   0  0  0  0  0  0  0  0  0  0  0  0
    2.0734    0.0114    1.3491 C   0  0  0  0  0  0  0  0  0  0  0  0
    1.4083    1.0392    0.6986 C   0  0  0  0  0  0  0  0  0  0  0  0
   -0.0563    1.1194    0.7796 C   0  0  0  0  0  0  0  0  0  0  0  0
   -0.8915    1.4029   -0.2981 C   0  0  0  0  0  0  0  0  0  0  0  0
   -2.1697    1.3643    0.2072 C   0  0  0  0  0  0  0  0  0  0  0  0
   -3.4252    1.6185   -0.5358 C   0  0  0  0  0  0  0  0  0  0  0  0
   -3.3538    2.0314   -1.7159 O   0  0  0  0  0  0  0  0  0  0  0  0
   -4.6925    1.4078    0.0435 N   0  0  0  0  0  0  0  0  0  0  0  0
   -5.9449    1.6290   -0.6014 C   0  0  0  0  0  0  0  0  0  0  0  0
   -6.3032    0.6207   -1.6143 C   0  0  0  0  0  0  0  0  0  0  0  0
   -6.9241   -0.5821   -1.2879 C   0  0  0  0  0  0  0  0  0  0  0  0
   -7.2512   -1.4946   -2.2758 C   0  0  0  0  0  0  0  0  0  0  0  0
   -6.9923   -1.2812   -3.6132 C   0  0  0  0  0  0  0  0  0  0  0  0
   -7.3361   -2.2365   -4.6468 C   0  0  0  0  0  0  0  0  0  0  0  0
   -7.0749   -1.9800   -5.8360 O   0  0  0  0  0  0  0  0  0  0  0  0
   -7.9510   -3.4294   -4.3305 O   0  0  0  0  0  0  0  0  0  0  0  0
   -6.3712   -0.0790   -3.9438 C   0  0  0  0  0  0  0  0  0  0  0  0
   -6.0494    0.8248   -2.9486 C   0  0  0  0  0  0  0  0  0  0  0  0
   -2.0634    1.0735    1.5062 N   0  0  0  0  0  0  0  0  0  0  0  0
   -0.8076    0.9218    1.8768 N   0  0  0  0  0  0  0  0  0  0  0  0
   -0.3448    0.6077    3.2379 C   0  0  0  0  0  0  0  0  0  0  0  0
    2.0941    1.9850   -0.0407 C   0  0  0  0  0  0  0  0  0  0  0  0
    3.4573    1.8747   -0.1111 C   0  0  0  0  0  0  0  0  0  0  0  0
    4.1677    0.8761    0.5138 C   0  0  0  0  0  0  0  0  0  0  0  0
    5.4843    0.5637    0.5890 N   0  0  0  0  0  0  0  0  0  0  0  0
    9.6556   -0.4152    3.4168 H   0  0  0  0  0  0  0  0  0  0  0  0
    9.1318   -2.1901    3.4343 H   0  0  0  0  0  0  0  0  0  0  0  0
   10.7866   -1.7274    2.9504 H   0  0  0  0  0  0  0  0  0  0  0  0
   10.1808   -0.8347    0.8580 H   0  0  0  0  0  0  0  0  0  0  0  0
    9.2839   -2.3735    1.0648 H   0  0  0  0  0  0  0  0  0  0  0  0
    4.1964   -1.7819    2.3793 H   0  0  0  0  0  0  0  0  0  0  0  0
    1.5766   -0.7468    1.9372 H   0  0  0  0  0  0  0  0  0  0  0  0
   -0.6151    1.6130   -1.3306 H   0  0  0  0  0  0  0  0  0  0  0  0
   -4.6872    1.0567    1.0430 H   0  0  0  0  0  0  0  0  0  0  0  0
   -6.7577    1.5704    0.1859 H   0  0  0  0  0  0  0  0  0  0  0  0
   -6.0104    2.6428   -1.0357 H   0  0  0  0  0  0  0  0  0  0  0  0
   -7.1431   -0.7865   -0.2531 H   0  0  0  0  0  0  0  0  0  0  0  0
   -7.7390   -2.4455   -2.0436 H   0  0  0  0  0  0  0  0  0  0  0  0
   -8.4514   -4.0047   -4.9881 H   0  0  0  0  0  0  0  0  0  0  0  0
   -6.1670    0.0894   -4.9973 H   0  0  0  0  0  0  0  0  0  0  0  0
   -5.5689    1.7697   -3.2376 H   0  0  0  0  0  0  0  0  0  0  0  0
   -1.1142    0.9789    3.9812 H   0  0  0  0  0  0  0  0  0  0  0  0
   -0.3249   -0.4834    3.3676 H   0  0  0  0  0  0  0  0  0  0  0  0
    0.5818    1.1421    3.4903 H   0  0  0  0  0  0  0  0  0  0  0  0
    1.5488    2.7961   -0.5541 H   0  0  0  0  0  0  0  0  0  0  0  0
    4.0174    2.6005   -0.6827 H   0  0  0  0  0  0  0  0  0  0  0  0
    6.2678    1.0864    0.1354 H   0  0  0  0  0  0  0  0  0  0  0  0
  1  2  1  0
  2  3  1  0
  3  4  1  0
  4  5  2  0
  4  6  1  0
  6  7  2  0
  7  8  1  0
  8  9  2  0
  9 10  1  0
 10 11  1  0
 11 12  2  0
 12 13  1  0
 13 14  1  0
 14 15  2  0
 14 16  1  0
 16 17  1  0
 17 18  1  0
 18 19  2  0
 19 20  1  0
 20 21  2  0
 21 22  1  0
 22 23  2  0
 22 24  1  0
 21 25  1  0
 25 26  2  0
 13 27  2  0
 27 28  1  0
 28 29  1  0
 10 30  2  0
 30 31  1  0
 31 32  2  0
 32 33  1  0
 33  6  1  0
 32  8  1  0
 28 11  1  0
 26 18  1  0
  1 34  1  0
  1 35  1  0
  1 36  1  0
  2 37  1  0
  2 38  1  0
  7 39  1  0
  9 40  1  0
 12 41  1  0
 16 42  1  0
 17 43  1  0
 17 44  1  0
 19 45  1  0
 20 46  1  0
 24 47  1  0
 25 48  1  0
 26 49  1  0
 29 50  1  0
 29 51  1  0
 29 52  1  0
 30 53  1  0
 31 54  1  0
 33 55  1  0
M  END
$$$$
