@<TRIPOS>MOLECULE
*****
 55 58 0 0 0
SMALL
GASTEIGER

@<TRIPOS>ATOM
      1 C           9.7079   -1.3966    2.8932 C.3     1  UNL1       -0.0306
      2 C           9.3493   -1.3253    1.4444 C.3     1  UNL1        0.0900
      3 O           8.1382   -0.7025    1.1533 O.3     1  UNL1       -0.4604
      4 C           6.9403   -1.2020    1.6591 C.2     1  UNL1        0.3557
      5 O           7.0056   -2.2217    2.3781 O.2     1  UNL1       -0.2433
      6 C           5.6638   -0.5406    1.3456 C.ar    1  UNL1        0.1254
      7 C           4.4126   -0.9146    1.7460 C.ar    1  UNL1       -0.0222
      8 C           3.4516   -0.0696    1.2573 C.ar    1  UNL1        0.0011
      9 C           2.0734    0.0114    1.3491 C.ar    1  UNL1       -0.0434
     10 C           1.4083    1.0392    0.6986 C.ar    1  UNL1        0.0007
     11 C          -0.0563    1.1194    0.7796 C.ar    1  UNL1        0.0693
     12 C          -0.8915    1.4029   -0.2981 C.ar    1  UNL1       -0.0039
     13 C          -2.1697    1.3643    0.2072 C.ar    1  UNL1        0.1476
     14 C          -3.4252    1.6185   -0.5358 C.2     1  UNL1        0.2644
     15 O          -3.3538    2.0314   -1.7159 O.2     1  UNL1       -0.2685
     16 N          -4.6925    1.4078    0.0435 N.am    1  UNL1       -0.3059
     17 C          -5.9449    1.6290   -0.6014 C.3     1  UNL1        0.0372
     18 C          -6.3032    0.6207   -1.6143 C.ar    1  UNL1       -0.0303
     19 C          -6.9241   -0.5821   -1.2879 C.ar    1  UNL1       -0.0563
     20 C          -7.2512   -1.4946   -2.2758 C.ar    1  UNL1       -0.0475
     21 C          -6.9923   -1.2812   -3.6132 C.ar    1  UNL1        0.0589
     22 C          -7.3361   -2.2365   -4.6468 C.2     1  UNL1        0.3368
     23 O          -7.0749   -1.9800   -5.8360 O.2     1  UNL1       -0.2451
     24 O          -7.9510   -3.4294   -4.3305 O.3     1  UNL1       -0.4771
     25 C          -6.3712   -0.0790   -3.9438 C.ar    1  UNL1       -0.0475
     26 C          -6.0494    0.8248   -2.9486 C.ar    1  UNL1       -0.0563
     27 N          -2.0634    1.0735    1.5062 N.ar    1  UNL1       -0.1662
     28 N          -0.8076    0.9218    1.8768 N.ar    1  UNL1       -0.2660
     29 C          -0.3448    0.6077    3.2379 C.3     1  UNL1        0.0309
     30 C           2.0941    1.9850   -0.0407 C.ar    1  UNL1       -0.0506
     31 C           3.4573    1.8747   -0.1111 C.ar    1  UNL1       -0.0372
     32 C           4.1677    0.8761    0.5138 C.ar    1  UNL1        0.0471
     33 N           5.4843    0.5637    0.5890 N.ar    1  UNL1       -0.3490
     34 H           9.6556   -0.4152    3.4168 H       1  UNL1        0.0262
     35 H           9.1318   -2.1901    3.4343 H       1  UNL1        0.0262
     36 H          10.7866   -1.7274    2.9504 H       1  UNL1        0.0262
     37 H          10.1808   -0.8347    0.8580 H       1  UNL1        0.0695
     38 H           9.2839   -2.3735    1.0648 H       1  UNL1        0.0695
     39 H           4.1964   -1.7819    2.3793 H       1  UNL1        0.0647
     40 H           1.5766   -0.7468    1.9372 H       1  UNL1        0.0631
     41 H          -0.6151    1.6130   -1.3306 H       1  UNL1        0.0662
     42 H          -4.6872    1.0567    1.0430 H       1  UNL1        0.1494
     43 H          -6.7577    1.5704    0.1859 H       1  UNL1        0.0512
     44 H          -6.0104    2.6428   -1.0357 H       1  UNL1        0.0512
     45 H          -7.1431   -0.7865   -0.2531 H       1  UNL1        0.0621
     46 H          -7.7390   -2.4455   -2.0436 H       1  UNL1        0.0626
     47 H          -8.4514   -4.0047   -4.9881 H       1  UNL1        0.2954
     48 H          -6.1670    0.0894   -4.9973 H       1  UNL1        0.0626
     49 H          -5.5689    1.7697   -3.2376 H       1  UNL1        0.0621
     50 H          -1.1142    0.9789    3.9812 H       1  UNL1        0.0473
     51 H          -0.3249   -0.4834    3.3676 H       1  UNL1        0.0473
     52 H           0.5818    1.1421    3.4903 H       1  UNL1        0.0473
     53 H           1.5488    2.7961   -0.5541 H       1  UNL1        0.0625
     54 H           4.0174    2.6005   -0.6827 H       1  UNL1        0.0638
     55 H           6.2678    1.0864    0.1354 H       1  UNL1        0.1661
@<TRIPOS>BOND
     1     1     2    1
     2     2     3    1
     3     3     4    1
     4     4     5    2
     5     4     6    1
     6     6     7   ar
     7     7     8   ar
     8     8     9   ar
     9     9    10   ar
    10    10    11    1
    11    11    12   ar
    12    12    13   ar
    13    13    14    1
    14    14    15    2
    15    14    16   am
    16    16    17    1
    17    17    18    1
    18    18    19   ar
    19    19    20   ar
    20    20    21   ar
    21    21    22    1
    22    22    23    2
    23    22    24    1
    24    21    25   ar
    25    25    26   ar
    26    13    27   ar
    27    27    28   ar
    28    28    29    1
    29    10    30   ar
    30    30    31   ar
    31    31    32   ar
    32    32    33   ar
    33    33     6   ar
    34    32     8   ar
    35    28    11   ar
    36    26    18   ar
    37     1    34    1
    38     1    35    1
    39     1    36    1
    40     2    37    1
    41     2    38    1
    42     7    39    1
    43     9    40    1
    44    12    41    1
    45    16    42    1
    46    17    43    1
    47    17    44    1
    48    19    45    1
    49    20    46    1
    50    24    47    1
    51    25    48    1
    52    26    49    1
    53    29    50    1
    54    29    51    1
    55    29    52    1
    56    30    53    1
    57    31    54    1
    58    33    55    1
