@<TRIPOS>MOLECULE
*****
 25 25 0 0 0
SMALL
GASTEIGER

@<TRIPOS>ATOM
      1 N          -4.4206    0.1692    0.6631 N.3     1  UNL1       -0.3297
      2 C          -2.9706    0.2124    0.7237 C.3     1  UNL1       -0.0029
      3 C          -2.3442   -0.1142   -0.6087 C.3     1  UNL1       -0.0153
      4 C          -0.8792   -0.0686   -0.5399 C.ar    1  UNL1       -0.0461
      5 C          -0.2362   -1.2628   -0.2024 C.ar    1  UNL1       -0.0567
      6 C           1.1312   -1.3605   -0.1028 C.ar    1  UNL1       -0.0351
      7 C           1.8651   -0.2186   -0.3516 C.ar    1  UNL1        0.1050
      8 C           1.2984    0.9963   -0.6902 C.ar    1  UNL1       -0.0351
      9 C          -0.0907    1.0440   -0.7783 C.ar    1  UNL1       -0.0567
     10 S           3.6065   -0.3512   -0.2226 S.O2    1  UNL1        0.0559
     11 N           4.0327    0.0113    1.3995 N.3     1  UNL1       -0.2035
     12 O           4.0206   -1.7844   -0.5300 O.2     1  UNL1       -0.1533
     13 O           4.2792    0.4899   -1.2398 O.2     1  UNL1       -0.1533
     14 H          -4.7735   -0.8115    0.6697 H       1  UNL1        0.1182
     15 H          -4.8409    0.7785   -0.0467 H       1  UNL1        0.1182
     16 H          -2.6412   -0.4534    1.5257 H       1  UNL1        0.0425
     17 H          -2.6714    1.2495    1.0025 H       1  UNL1        0.0425
     18 H          -2.7169    0.6599   -1.3102 H       1  UNL1        0.0325
     19 H          -2.6629   -1.1031   -0.9756 H       1  UNL1        0.0325
     20 H          -0.8213   -2.1717   -0.0044 H       1  UNL1        0.0621
     21 H           1.5882   -2.3086    0.1621 H       1  UNL1        0.0637
     22 H           1.9023    1.8722   -0.8788 H       1  UNL1        0.0637
     23 H          -0.5948    1.9557   -1.0367 H       1  UNL1        0.0621
     24 H           4.7248   -0.6159    1.8163 H       1  UNL1        0.1442
     25 H           4.2154    1.0238    1.5563 H       1  UNL1        0.1442
@<TRIPOS>BOND
     1     1     2    1
     2     2     3    1
     3     3     4    1
     4     4     5   ar
     5     5     6   ar
     6     6     7   ar
     7     7     8   ar
     8     8     9   ar
     9     7    10    1
    10    10    11    1
    11    10    12    2
    12    10    13    2
    13     9     4   ar
    14     1    14    1
    15     1    15    1
    16     2    16    1
    17     2    17    1
    18     3    18    1
    19     3    19    1
    20     5    20    1
    21     6    21    1
    22     8    22    1
    23     9    23    1
    24    11    24    1
    25    11    25    1
