
     RDKit          3D

 25 25  0  0  0  0  0  0  0  0999 V2000
   -4.4206    0.1692    0.6631 N   0  0  0  0  0  0  0  0  0  0  0  0
   -2.9706    0.2124    0.7237 C   0  0  0  0  0  0  0  0  0  0  0  0
   -2.3442   -0.1142   -0.6087 C   0  0  0  0  0  0  0  0  0  0  0  0
   -0.8792   -0.0686   -0.5399 C   0  0  0  0  0  0  0  0  0  0  0  0
   -0.2362   -1.2628   -0.2024 C   0  0  0  0  0  0  0  0  0  0  0  0
    1.1312   -1.3605   -0.1028 C   0  0  0  0  0  0  0  0  0  0  0  0
    1.8651   -0.2186   -0.3516 C   0  0  0  0  0  0  0  0  0  0  0  0
    1.2984    0.9963   -0.6902 C   0  0  0  0  0  0  0  0  0  0  0  0
   -0.0907    1.0440   -0.7783 C   0  0  0  0  0  0  0  0  0  0  0  0
    3.6065   -0.3512   -0.2226 S   0  0  0  0  0  0  0  0  0  0  0  0
    4.0327    0.0113    1.3995 N   0  0  0  0  0  0  0  0  0  0  0  0
    4.0206   -1.7844   -0.5300 O   0  0  0  0  0  0  0  0  0  0  0  0
    4.2792    0.4899   -1.2398 O   0  0  0  0  0  0  0  0  0  0  0  0
   -4.7735   -0.8115    0.6697 H   0  0  0  0  0  0  0  0  0  0  0  0
   -4.8409    0.7785   -0.0467 H   0  0  0  0  0  0  0  0  0  0  0  0
   -2.6412   -0.4534    1.5257 H   0  0  0  0  0  0  0  0  0  0  0  0
   -2.6714    1.2495    1.0025 H   0  0  0  0  0  0  0  0  0  0  0  0
   -2.7169    0.6599   -1.3102 H   0  0  0  0  0  0  0  0  0  0  0  0
   -2.6629   -1.1031   -0.9756 H   0  0  0  0  0  0  0  0  0  0  0  0
   -0.8213   -2.1717   -0.0044 H   0  0  0  0  0  0  0  0  0  0  0  0
    1.5882   -2.3086    0.1621 H   0  0  0  0  0  0  0  0  0  0  0  0
    1.9023    1.8722   -0.8788 H   0  0  0  0  0  0  0  0  0  0  0  0
   -0.5948    1.9557   -1.0367 H   0  0  0  0  0  0  0  0  0  0  0  0
    4.7248   -0.6159    1.8163 H   0  0  0  0  0  0  0  0  0  0  0  0
    4.2154    1.0238    1.5563 H   0  0  0  0  0  0  0  0  0  0  0  0
  1  2  1  0
  2  3  1  0
  3  4  1  0
  4  5  2  0
  5  6  1  0
  6  7  2  0
  7  8  1  0
  8  9  2  0
  7 10  1  0
 10 11  1  0
 10 12  2  0
 10 13  2  0
  9  4  1  0
  1 14  1  0
  1 15  1  0
  2 16  1  0
  2 17  1  0
  3 18  1  0
  3 19  1  0
  5 20  1  0
  6 21  1  0
  8 22  1  0
  9 23  1  0
 11 24  1  0
 11 25  1  0
M  END
$$$$
