@<TRIPOS>MOLECULE
*****
 55 57 0 0 0
SMALL
GASTEIGER

@<TRIPOS>ATOM
      1 C           5.1886   -2.5624    1.6306 C.3     1  UNL1       -0.0024
      2 N           4.4229   -1.5643    1.1032 N.pl3   1  UNL1       -0.3463
      3 C           3.6635   -0.5746    0.5801 C.ar    1  UNL1        0.0395
      4 C           2.3328   -0.2772    0.7659 C.ar    1  UNL1       -0.0001
      5 C           1.7111    0.8248    0.1967 C.ar    1  UNL1        0.1257
      6 N           0.3319    1.0858    0.4291 N.pl3   1  UNL1       -0.2830
      7 C          -0.6680    0.5330   -0.4135 C.ar    1  UNL1        0.1461
      8 C          -0.3552   -0.1334   -1.5815 C.ar    1  UNL1        0.0693
      9 N          -1.2779   -0.6969   -2.3843 N.ar    1  UNL1       -0.2364
     10 C          -2.5786   -0.5882   -1.9976 C.ar    1  UNL1        0.2019
     11 C          -3.5742   -1.1483   -2.8655 C.1     1  UNL1        0.1246
     12 N          -4.3904   -1.6163   -3.5565 N.1     1  UNL1       -0.1891
     13 C          -2.9476    0.0574   -0.8501 C.ar    1  UNL1        0.2538
     14 O          -4.2825    0.1172   -0.5243 O.3     1  UNL1       -0.4701
     15 C          -4.8560    0.7454    0.5761 C.3     1  UNL1        0.1117
     16 C          -4.9891   -0.1632    1.7749 C.3     1  UNL1       -0.0265
     17 C          -6.1230    1.4188    0.1827 C.3     1  UNL1        0.0352
     18 N          -7.1129    0.6077   -0.3792 N.3     1  UNL1       -0.3049
     19 C          -8.3244    1.3153   -0.6408 C.3     1  UNL1       -0.0129
     20 C          -7.3563   -0.6762    0.1511 C.3     1  UNL1       -0.0129
     21 N          -1.9841    0.6177   -0.0638 N.ar    1  UNL1       -0.1938
     22 N           2.4359    1.6379   -0.5682 N.ar    1  UNL1       -0.2394
     23 C           3.7474    1.4141   -0.7994 C.ar    1  UNL1        0.0393
     24 C           4.3819    0.3421   -0.2556 C.ar    1  UNL1        0.0241
     25 C           5.7766    0.0387   -0.5013 C.ar    1  UNL1        0.0228
     26 C           6.3131   -1.1265   -0.9963 C.ar    1  UNL1        0.0572
     27 N           7.6419   -0.9938   -1.0502 N.ar    1  UNL1       -0.1793
     28 N           8.0168    0.1964   -0.6171 N.ar    1  UNL1       -0.2739
     29 C           9.4041    0.6252   -0.5551 C.3     1  UNL1        0.0302
     30 C           6.8931    0.8533   -0.2737 C.ar    1  UNL1        0.0330
     31 H           5.0353   -3.5749    1.1209 H       1  UNL1        0.0425
     32 H           6.3189   -2.4322    1.4907 H       1  UNL1        0.0425
     33 H           5.1239   -2.7882    2.7336 H       1  UNL1        0.0425
     34 H           3.3336   -2.1403    1.6878 H       1  UNL1        0.1458
     35 H           1.6860   -0.8971    1.3755 H       1  UNL1        0.0671
     36 H           0.0307    1.6901    1.2248 H       1  UNL1        0.1550
     37 H           0.6906   -0.2119   -1.8724 H       1  UNL1        0.0865
     38 H          -4.0872    1.5177    0.9081 H       1  UNL1        0.0743
     39 H          -5.7166    0.2653    2.4858 H       1  UNL1        0.0266
     40 H          -4.0053   -0.1120    2.3357 H       1  UNL1        0.0266
     41 H          -5.1100   -1.2239    1.5463 H       1  UNL1        0.0266
     42 H          -5.9402    2.2941   -0.5017 H       1  UNL1        0.0462
     43 H          -6.5562    1.9093    1.1075 H       1  UNL1        0.0462
     44 H          -8.2796    2.3918   -0.3733 H       1  UNL1        0.0391
     45 H          -8.4747    1.3051   -1.7526 H       1  UNL1        0.0391
     46 H          -9.2241    0.8147   -0.2175 H       1  UNL1        0.0391
     47 H          -7.4357   -0.7768    1.2372 H       1  UNL1        0.0391
     48 H          -6.5639   -1.3595   -0.2931 H       1  UNL1        0.0391
     49 H          -8.3050   -1.1434   -0.2479 H       1  UNL1        0.0391
     50 H           4.2929    2.1081   -1.4324 H       1  UNL1        0.0837
     51 H           5.7070   -1.9947   -1.2848 H       1  UNL1        0.0854
     52 H           9.6868    0.9700   -1.5685 H       1  UNL1        0.0473
     53 H          10.0476   -0.2364   -0.2292 H       1  UNL1        0.0473
     54 H           9.4465    1.4637    0.1405 H       1  UNL1        0.0473
     55 H           6.8576    1.8518    0.1178 H       1  UNL1        0.0832
@<TRIPOS>BOND
     1     1     2    1
     2     2     3    1
     3     3     4   ar
     4     4     5   ar
     5     5     6    1
     6     6     7    1
     7     7     8   ar
     8     8     9   ar
     9     9    10   ar
    10    10    11    1
    11    11    12    3
    12    10    13   ar
    13    13    14    1
    14    14    15    1
    15    15    16    1
    16    15    17    1
    17    17    18    1
    18    18    19    1
    19    18    20    1
    20    13    21   ar
    21     5    22   ar
    22    22    23   ar
    23    23    24   ar
    24    24    25    1
    25    25    26   ar
    26    26    27   ar
    27    27    28   ar
    28    28    29    1
    29    28    30   ar
    30    24     3   ar
    31    30    25   ar
    32    21     7   ar
    33     1    31    1
    34     1    32    1
    35     1    33    1
    36     2    34    1
    37     4    35    1
    38     6    36    1
    39     8    37    1
    40    15    38    1
    41    16    39    1
    42    16    40    1
    43    16    41    1
    44    17    42    1
    45    17    43    1
    46    19    44    1
    47    19    45    1
    48    19    46    1
    49    20    47    1
    50    20    48    1
    51    20    49    1
    52    23    50    1
    53    26    51    1
    54    29    52    1
    55    29    53    1
    56    29    54    1
    57    30    55    1
