
     RDKit          3D

 55 57  0  0  0  0  0  0  0  0999 V2000
    5.1886   -2.5624    1.6306 C   0  0  0  0  0  0  0  0  0  0  0  0
    4.4229   -1.5643    1.1032 N   0  0  0  0  0  0  0  0  0  0  0  0
    3.6635   -0.5746    0.5801 C   0  0  0  0  0  0  0  0  0  0  0  0
    2.3328   -0.2772    0.7659 C   0  0  0  0  0  0  0  0  0  0  0  0
    1.7111    0.8248    0.1967 C   0  0  0  0  0  0  0  0  0  0  0  0
    0.3319    1.0858    0.4291 N   0  0  0  0  0  0  0  0  0  0  0  0
   -0.6680    0.5330   -0.4135 C   0  0  0  0  0  0  0  0  0  0  0  0
   -0.3552   -0.1334   -1.5815 C   0  0  0  0  0  0  0  0  0  0  0  0
   -1.2779   -0.6969   -2.3843 N   0  0  0  0  0  0  0  0  0  0  0  0
   -2.5786   -0.5882   -1.9976 C   0  0  0  0  0  0  0  0  0  0  0  0
   -3.5742   -1.1483   -2.8655 C   0  0  0  0  0  0  0  0  0  0  0  0
   -4.3904   -1.6163   -3.5565 N   0  0  0  0  0  0  0  0  0  0  0  0
   -2.9476    0.0574   -0.8501 C   0  0  0  0  0  0  0  0  0  0  0  0
   -4.2825    0.1172   -0.5243 O   0  0  0  0  0  0  0  0  0  0  0  0
   -4.8560    0.7454    0.5761 C   0  0  2  0  0  0  0  0  0  0  0  0
   -4.9891   -0.1632    1.7749 C   0  0  0  0  0  0  0  0  0  0  0  0
   -6.1230    1.4188    0.1827 C   0  0  0  0  0  0  0  0  0  0  0  0
   -7.1129    0.6077   -0.3792 N   0  0  0  0  0  0  0  0  0  0  0  0
   -8.3244    1.3153   -0.6408 C   0  0  0  0  0  0  0  0  0  0  0  0
   -7.3563   -0.6762    0.1511 C   0  0  0  0  0  0  0  0  0  0  0  0
   -1.9841    0.6177   -0.0638 N   0  0  0  0  0  0  0  0  0  0  0  0
    2.4359    1.6379   -0.5682 N   0  0  0  0  0  0  0  0  0  0  0  0
    3.7474    1.4141   -0.7994 C   0  0  0  0  0  0  0  0  0  0  0  0
    4.3819    0.3421   -0.2556 C   0  0  0  0  0  0  0  0  0  0  0  0
    5.7766    0.0387   -0.5013 C   0  0  0  0  0  0  0  0  0  0  0  0
    6.3131   -1.1265   -0.9963 C   0  0  0  0  0  0  0  0  0  0  0  0
    7.6419   -0.9938   -1.0502 N   0  0  0  0  0  0  0  0  0  0  0  0
    8.0168    0.1964   -0.6171 N   0  0  0  0  0  0  0  0  0  0  0  0
    9.4041    0.6252   -0.5551 C   0  0  0  0  0  0  0  0  0  0  0  0
    6.8931    0.8533   -0.2737 C   0  0  0  0  0  0  0  0  0  0  0  0
    5.0353   -3.5749    1.1209 H   0  0  0  0  0  0  0  0  0  0  0  0
    6.3189   -2.4322    1.4907 H   0  0  0  0  0  0  0  0  0  0  0  0
    5.1239   -2.7882    2.7336 H   0  0  0  0  0  0  0  0  0  0  0  0
    3.3336   -2.1403    1.6878 H   0  0  0  0  0  0  0  0  0  0  0  0
    1.6860   -0.8971    1.3755 H   0  0  0  0  0  0  0  0  0  0  0  0
    0.0307    1.6901    1.2248 H   0  0  0  0  0  0  0  0  0  0  0  0
    0.6906   -0.2119   -1.8724 H   0  0  0  0  0  0  0  0  0  0  0  0
   -4.0872    1.5177    0.9081 H   0  0  0  0  0  0  0  0  0  0  0  0
   -5.7166    0.2653    2.4858 H   0  0  0  0  0  0  0  0  0  0  0  0
   -4.0053   -0.1120    2.3357 H   0  0  0  0  0  0  0  0  0  0  0  0
   -5.1100   -1.2239    1.5463 H   0  0  0  0  0  0  0  0  0  0  0  0
   -5.9402    2.2941   -0.5017 H   0  0  0  0  0  0  0  0  0  0  0  0
   -6.5562    1.9093    1.1075 H   0  0  0  0  0  0  0  0  0  0  0  0
   -8.2796    2.3918   -0.3733 H   0  0  0  0  0  0  0  0  0  0  0  0
   -8.4747    1.3051   -1.7526 H   0  0  0  0  0  0  0  0  0  0  0  0
   -9.2241    0.8147   -0.2175 H   0  0  0  0  0  0  0  0  0  0  0  0
   -7.4357   -0.7768    1.2372 H   0  0  0  0  0  0  0  0  0  0  0  0
   -6.5639   -1.3595   -0.2931 H   0  0  0  0  0  0  0  0  0  0  0  0
   -8.3050   -1.1434   -0.2479 H   0  0  0  0  0  0  0  0  0  0  0  0
    4.2929    2.1081   -1.4324 H   0  0  0  0  0  0  0  0  0  0  0  0
    5.7070   -1.9947   -1.2848 H   0  0  0  0  0  0  0  0  0  0  0  0
    9.6868    0.9700   -1.5685 H   0  0  0  0  0  0  0  0  0  0  0  0
   10.0476   -0.2364   -0.2292 H   0  0  0  0  0  0  0  0  0  0  0  0
    9.4465    1.4637    0.1405 H   0  0  0  0  0  0  0  0  0  0  0  0
    6.8576    1.8518    0.1178 H   0  0  0  0  0  0  0  0  0  0  0  0
  1  2  1  0
  2  3  1  0
  3  4  2  0
  4  5  1  0
  5  6  1  0
  6  7  1  0
  7  8  2  0
  8  9  1  0
  9 10  2  0
 10 11  1  0
 11 12  3  0
 10 13  1  0
 13 14  1  0
 14 15  1  0
 15 16  1  0
 15 17  1  0
 17 18  1  0
 18 19  1  0
 18 20  1  0
 13 21  2  0
  5 22  2  0
 22 23  1  0
 23 24  2  0
 24 25  1  0
 25 26  1  0
 26 27  2  0
 27 28  1  0
 28 29  1  0
 28 30  1  0
 24  3  1  0
 30 25  2  0
 21  7  1  0
  1 31  1  0
  1 32  1  0
  1 33  1  0
  2 34  1  0
  4 35  1  0
  6 36  1  0
  8 37  1  0
 15 38  1  1
 16 39  1  0
 16 40  1  0
 16 41  1  0
 17 42  1  0
 17 43  1  0
 19 44  1  0
 19 45  1  0
 19 46  1  0
 20 47  1  0
 20 48  1  0
 20 49  1  0
 23 50  1  0
 26 51  1  0
 29 52  1  0
 29 53  1  0
 29 54  1  0
 30 55  1  0
M  END
$$$$
