
     RDKit          3D

 54 58  0  0  0  0  0  0  0  0999 V2000
   -7.7548   -1.6775    1.7804 C   0  0  0  0  0  0  0  0  0  0  0  0
   -6.8096   -0.9141    0.9059 C   0  0  2  0  0  0  0  0  0  0  0  0
   -6.9883   -1.3196   -0.4558 N   0  0  0  0  0  0  0  0  0  0  0  0
   -5.4060   -1.1458    1.3773 C   0  0  0  0  0  0  0  0  0  0  0  0
   -5.0771   -0.8470    2.5423 O   0  0  0  0  0  0  0  0  0  0  0  0
   -4.4418   -1.7069    0.5006 N   0  0  0  0  0  0  0  0  0  0  0  0
   -3.0642   -1.9650    0.8607 C   0  0  0  0  0  0  0  0  0  0  0  0
   -2.2216   -0.7539    0.8712 C   0  0  0  0  0  0  0  0  0  0  0  0
   -2.0294   -0.0599    2.0298 C   0  0  0  0  0  0  0  0  0  0  0  0
   -1.2441    1.0929    2.0530 C   0  0  0  0  0  0  0  0  0  0  0  0
   -0.6590    1.5269    0.8823 C   0  0  0  0  0  0  0  0  0  0  0  0
   -0.8294    0.8532   -0.3061 C   0  0  0  0  0  0  0  0  0  0  0  0
   -0.2290    1.2946   -1.5189 N   0  0  0  0  0  0  0  0  0  0  0  0
   -0.9246    1.7754   -2.5444 N   0  0  0  0  0  0  0  0  0  0  0  0
   -0.0886    2.1175   -3.5638 C   0  0  0  0  0  0  0  0  0  0  0  0
   -0.4448    2.6902   -4.8902 C   0  0  0  0  0  0  0  0  0  0  0  0
    0.4180    2.1273   -5.8363 F   0  0  0  0  0  0  0  0  0  0  0  0
   -0.1233    4.0414   -4.8434 F   0  0  0  0  0  0  0  0  0  0  0  0
   -1.7506    2.4708   -5.2040 F   0  0  0  0  0  0  0  0  0  0  0  0
    1.1796    1.8084   -3.0828 C   0  0  0  0  0  0  0  0  0  0  0  0
    1.0798    1.2972   -1.8099 C   0  0  0  0  0  0  0  0  0  0  0  0
    2.1528    0.8359   -0.9146 C   0  0  0  0  0  0  0  0  0  0  0  0
    1.9988    0.3397    0.3263 N   0  0  0  0  0  0  0  0  0  0  0  0
    3.1974    0.0418    0.7962 N   0  0  0  0  0  0  0  0  0  0  0  0
    4.1201    0.3378   -0.1209 C   0  0  0  0  0  0  0  0  0  0  0  0
    5.5597    0.1804   -0.0440 C   0  0  0  0  0  0  0  0  0  0  0  0
    6.3847    0.5413   -1.0862 C   0  0  0  0  0  0  0  0  0  0  0  0
    7.7540    0.3321   -0.8660 C   0  0  0  0  0  0  0  0  0  0  0  0
    8.2633   -0.1915    0.2911 C   0  0  0  0  0  0  0  0  0  0  0  0
    7.3977   -0.5518    1.3399 C   0  0  0  0  0  0  0  0  0  0  0  0
    7.7411   -1.0603    2.4929 N   0  0  0  0  0  0  0  0  0  0  0  0
    6.9908   -1.3749    3.4055 C   0  0  0  0  0  0  0  0  0  0  0  0
    5.3474   -0.8967    2.5949 S   0  0  0  0  0  0  0  0  0  0  0  0
    6.0789   -0.3478    1.1221 C   0  0  0  0  0  0  0  0  0  0  0  0
    3.4395    0.8201   -1.1500 O   0  0  0  0  0  0  0  0  0  0  0  0
   -1.6120   -0.2834   -0.2954 C   0  0  0  0  0  0  0  0  0  0  0  0
   -7.8199   -1.1804    2.7738 H   0  0  0  0  0  0  0  0  0  0  0  0
   -8.7780   -1.6759    1.3383 H   0  0  0  0  0  0  0  0  0  0  0  0
   -7.4440   -2.7413    1.8761 H   0  0  0  0  0  0  0  0  0  0  0  0
   -7.0716    0.1752    0.9774 H   0  0  0  0  0  0  0  0  0  0  0  0
   -6.3469   -0.7932   -1.0811 H   0  0  0  0  0  0  0  0  0  0  0  0
   -6.9624   -2.3393   -0.5639 H   0  0  0  0  0  0  0  0  0  0  0  0
   -4.7779   -1.9429   -0.4738 H   0  0  0  0  0  0  0  0  0  0  0  0
   -2.6265   -2.7640    0.2084 H   0  0  0  0  0  0  0  0  0  0  0  0
   -3.0445   -2.3916    1.9077 H   0  0  0  0  0  0  0  0  0  0  0  0
   -2.4585   -0.3649    2.9647 H   0  0  0  0  0  0  0  0  0  0  0  0
   -1.1110    1.6170    2.9781 H   0  0  0  0  0  0  0  0  0  0  0  0
   -0.0495    2.4188    0.8908 H   0  0  0  0  0  0  0  0  0  0  0  0
    2.1075    1.9525   -3.6368 H   0  0  0  0  0  0  0  0  0  0  0  0
    6.0117    0.9566   -2.0108 H   0  0  0  0  0  0  0  0  0  0  0  0
    8.4555    0.6043   -1.6697 H   0  0  0  0  0  0  0  0  0  0  0  0
    9.3405   -0.3134    0.3620 H   0  0  0  0  0  0  0  0  0  0  0  0
    6.9562   -1.7870    4.4046 H   0  0  0  0  0  0  0  0  0  0  0  0
   -1.7858   -0.8593   -1.1965 H   0  0  0  0  0  0  0  0  0  0  0  0
  1  2  1  0
  2  3  1  0
  2  4  1  0
  4  5  2  0
  4  6  1  0
  6  7  1  0
  7  8  1  0
  8  9  2  0
  9 10  1  0
 10 11  2  0
 11 12  1  0
 12 13  1  0
 13 14  1  0
 14 15  2  0
 15 16  1  0
 16 17  1  0
 16 18  1  0
 16 19  1  0
 15 20  1  0
 20 21  2  0
 21 22  1  0
 22 23  2  0
 23 24  1  0
 24 25  2  0
 25 26  1  0
 26 27  2  0
 27 28  1  0
 28 29  2  0
 29 30  1  0
 30 31  1  0
 31 32  2  0
 32 33  1  0
 33 34  1  0
 25 35  1  0
 12 36  2  0
 36  8  1  0
 21 13  1  0
 35 22  1  0
 34 26  1  0
 34 30  2  0
  1 37  1  0
  1 38  1  0
  1 39  1  0
  2 40  1  6
  3 41  1  0
  3 42  1  0
  6 43  1  0
  7 44  1  0
  7 45  1  0
  9 46  1  0
 10 47  1  0
 11 48  1  0
 20 49  1  0
 27 50  1  0
 28 51  1  0
 29 52  1  0
 32 53  1  0
 36 54  1  0
M  END
$$$$
