@<TRIPOS>MOLECULE
*****
 54 58 0 0 0
SMALL
GASTEIGER

@<TRIPOS>ATOM
      1 C          -7.7548   -1.6775    1.7804 C.3     1  UNL1       -0.0414
      2 C          -6.8096   -0.9141    0.9059 C.3     1  UNL1        0.0794
      3 N          -6.9883   -1.3196   -0.4558 N.3     1  UNL1       -0.3202
      4 C          -5.4060   -1.1458    1.3773 C.2     1  UNL1        0.2298
      5 O          -5.0771   -0.8470    2.5423 O.2     1  UNL1       -0.2741
      6 N          -4.4418   -1.7069    0.5006 N.am    1  UNL1       -0.3099
      7 C          -3.0642   -1.9650    0.8607 C.3     1  UNL1        0.0369
      8 C          -2.2216   -0.7539    0.8712 C.ar    1  UNL1       -0.0283
      9 C          -2.0294   -0.0599    2.0298 C.ar    1  UNL1       -0.0569
     10 C          -1.2441    1.0929    2.0530 C.ar    1  UNL1       -0.0594
     11 C          -0.6590    1.5269    0.8823 C.ar    1  UNL1       -0.0362
     12 C          -0.8294    0.8532   -0.3061 C.ar    1  UNL1        0.0665
     13 N          -0.2290    1.2946   -1.5189 N.ar    1  UNL1       -0.2269
     14 N          -0.9246    1.7754   -2.5444 N.ar    1  UNL1       -0.1616
     15 C          -0.0886    2.1175   -3.5638 C.ar    1  UNL1        0.1663
     16 C          -0.4448    2.6902   -4.8902 C.3     1  UNL1        0.4360
     17 F           0.4180    2.1273   -5.8363 F       1  UNL1       -0.1644
     18 F          -0.1233    4.0414   -4.8434 F       1  UNL1       -0.1644
     19 F          -1.7506    2.4708   -5.2040 F       1  UNL1       -0.1644
     20 C           1.1796    1.8084   -3.0828 C.ar    1  UNL1        0.0008
     21 C           1.0798    1.2972   -1.8099 C.ar    1  UNL1        0.1313
     22 C           2.1528    0.8359   -0.9146 C.ar    1  UNL1        0.2670
     23 N           1.9988    0.3397    0.3263 N.ar    1  UNL1       -0.1053
     24 N           3.1974    0.0418    0.7962 N.ar    1  UNL1       -0.1069
     25 C           4.1201    0.3378   -0.1209 C.ar    1  UNL1        0.2499
     26 C           5.5597    0.1804   -0.0440 C.ar    1  UNL1        0.0543
     27 C           6.3847    0.5413   -1.0862 C.ar    1  UNL1       -0.0482
     28 C           7.7540    0.3321   -0.8660 C.ar    1  UNL1       -0.0590
     29 C           8.2633   -0.1915    0.2911 C.ar    1  UNL1       -0.0352
     30 C           7.3977   -0.5518    1.3399 C.ar    1  UNL1        0.0789
     31 N           7.7411   -1.0603    2.4929 N.ar    1  UNL1       -0.2474
     32 C           6.9908   -1.3749    3.4055 C.ar    1  UNL1        0.0659
     33 S           5.3474   -0.8967    2.5949 S.2     1  UNL1       -0.0747
     34 C           6.0789   -0.3478    1.1221 C.ar    1  UNL1        0.0512
     35 O           3.4395    0.8201   -1.1500 O.2     1  UNL1       -0.4143
     36 C          -1.6120   -0.2834   -0.2954 C.ar    1  UNL1       -0.0316
     37 H          -7.8199   -1.1804    2.7738 H       1  UNL1        0.0249
     38 H          -8.7780   -1.6759    1.3383 H       1  UNL1        0.0249
     39 H          -7.4440   -2.7413    1.8761 H       1  UNL1        0.0249
     40 H          -7.0716    0.1752    0.9774 H       1  UNL1        0.0551
     41 H          -6.3469   -0.7932   -1.0811 H       1  UNL1        0.1189
     42 H          -6.9624   -2.3393   -0.5639 H       1  UNL1        0.1189
     43 H          -4.7779   -1.9429   -0.4738 H       1  UNL1        0.1491
     44 H          -2.6265   -2.7640    0.2084 H       1  UNL1        0.0512
     45 H          -3.0445   -2.3916    1.9077 H       1  UNL1        0.0512
     46 H          -2.4585   -0.3649    2.9647 H       1  UNL1        0.0621
     47 H          -1.1110    1.6170    2.9781 H       1  UNL1        0.0618
     48 H          -0.0495    2.4188    0.8908 H       1  UNL1        0.0639
     49 H           2.1075    1.9525   -3.6368 H       1  UNL1        0.0662
     50 H           6.0117    0.9566   -2.0108 H       1  UNL1        0.0625
     51 H           8.4555    0.6043   -1.6697 H       1  UNL1        0.0618
     52 H           9.3405   -0.3134    0.3620 H       1  UNL1        0.0639
     53 H           6.9562   -1.7870    4.4046 H       1  UNL1        0.0907
     54 H          -1.7858   -0.8593   -1.1965 H       1  UNL1        0.0642
@<TRIPOS>BOND
     1     1     2    1
     2     2     3    1
     3     2     4    1
     4     4     5    2
     5     4     6   am
     6     6     7    1
     7     7     8    1
     8     8     9   ar
     9     9    10   ar
    10    10    11   ar
    11    11    12   ar
    12    12    13    1
    13    13    14   ar
    14    14    15   ar
    15    15    16    1
    16    16    17    1
    17    16    18    1
    18    16    19    1
    19    15    20   ar
    20    20    21   ar
    21    21    22    1
    22    22    23   ar
    23    23    24   ar
    24    24    25   ar
    25    25    26    1
    26    26    27   ar
    27    27    28   ar
    28    28    29   ar
    29    29    30   ar
    30    30    31   ar
    31    31    32   ar
    32    32    33   ar
    33    33    34   ar
    34    25    35   ar
    35    12    36   ar
    36    36     8   ar
    37    21    13   ar
    38    35    22   ar
    39    34    26   ar
    40    34    30   ar
    41     1    37    1
    42     1    38    1
    43     1    39    1
    44     2    40    1
    45     3    41    1
    46     3    42    1
    47     6    43    1
    48     7    44    1
    49     7    45    1
    50     9    46    1
    51    10    47    1
    52    11    48    1
    53    20    49    1
    54    27    50    1
    55    28    51    1
    56    29    52    1
    57    32    53    1
    58    36    54    1
