@<TRIPOS>MOLECULE
*****
 51 51 0 0 0
SMALL
GASTEIGER

@<TRIPOS>ATOM
      1 C          -0.7163    1.1196    0.8980 C.3     1  UNK1        0.1378
      2 C          -0.0715    0.6340   -0.3500 C.3     1  UNK1        0.0251
      3 S           0.9542    1.8984   -1.1483 S.3     1  UNK1       -0.1535
      4 C           2.3982    2.3162   -0.1419 C.3     1  UNK1        0.0189
      5 C           3.2700    1.0931   -0.1097 C.ar    1  UNK1       -0.0373
      6 C           3.1337    0.1214    0.8632 C.ar    1  UNK1       -0.0543
      7 C           3.9550   -1.0007    0.8589 C.ar    1  UNK1       -0.0197
      8 C           4.9259   -1.1881   -0.1030 C.ar    1  UNK1        0.1201
      9 O           5.7697   -2.2921   -0.1488 O.3     1  UNK1       -0.4951
     10 C           6.7551   -2.4796   -1.1299 C.3     1  UNK1        0.0788
     11 C           5.0449   -0.2084   -1.0626 C.ar    1  UNK1       -0.0197
     12 C           4.2465    0.9253   -1.0940 C.ar    1  UNK1       -0.0543
     13 N          -1.5098    0.1043    1.4982 N.2     1  UNK1       -0.2411
     14 C          -1.8263   -1.0579    1.1584 C.2     0  UNK0        0.1832
     15 O          -2.6025   -1.3770    2.2607 O.2     0  UNK0       -0.4956
     16 C          -1.7235   -2.1494    0.1460 C.3     0  UNK0        0.0242
     17 C          -3.0047   -2.4935   -0.5318 C.3     0  UNK0       -0.0323
     18 C          -4.0879   -2.9710    0.4026 C.3     0  UNK0       -0.0065
     19 N          -3.6439   -4.1663    1.1180 N.3     0  UNK0       -0.3300
     20 C          -1.6373    2.2781    0.6453 C.2     1  UNK1        0.2092
     21 O          -2.3929    2.9833    1.5939 O.2     1  UNK1       -0.4942
     22 N          -1.7541    2.6726   -0.5551 N.2     2  GLY2       -0.2416
     23 CA         -2.5747    3.7516   -1.0013 C.3     2  GLY2        0.1398
     24 C          -4.0223    3.5706   -0.6225 C.2     2  GLY2        0.3264
     25 O          -4.7835    4.6543   -1.1011 O.3     2  GLY2       -0.4793
     26 OXT        -4.4698    2.5911    0.0256 O.2     2  GLY2       -0.2489
     27 H           0.0357    1.5091    1.6453 H       1  UNK1        0.0651
     28 H           0.5540   -0.2422   -0.0876 H       1  UNK1        0.0402
     29 H          -0.8415    0.3448   -1.0690 H       1  UNK1        0.0402
     30 H           2.9711    3.0911   -0.6813 H       1  UNK1        0.0425
     31 H           2.1461    2.5486    0.8974 H       1  UNK1        0.0425
     32 H           2.3875    0.2440    1.6202 H       1  UNK1        0.0622
     33 H           3.8615   -1.7634    1.6078 H       1  UNK1        0.0654
     34 H           6.3330   -2.1567   -2.1115 H       1  UNK1        0.0660
     35 H           7.0098   -3.5507   -1.2734 H       1  UNK1        0.0660
     36 H           7.6879   -1.9337   -0.9123 H       1  UNK1        0.0660
     37 H           5.7541   -0.2210   -1.8677 H       1  UNK1        0.0654
     38 H           4.3168    1.6995   -1.8243 H       1  UNK1        0.0622
     39 H          -3.3129   -0.8360    2.6854 H       0  UNK0        0.2934
     40 H          -0.9614   -1.9736   -0.6161 H       0  UNK0        0.0360
     41 H          -1.4323   -3.0602    0.7601 H       0  UNK0        0.0360
     42 H          -2.7811   -3.3799   -1.1957 H       0  UNK0        0.0282
     43 H          -3.3728   -1.6848   -1.2066 H       0  UNK0        0.0282
     44 H          -4.9171   -3.3390   -0.2531 H       0  UNK0        0.0422
     45 H          -4.4268   -2.2491    1.1405 H       0  UNK0        0.0422
     46 H          -3.0609   -4.7774    0.5045 H       0  UNK0        0.1182
     47 H          -4.4612   -4.6994    1.5048 H       0  UNK0        0.1182
     48 H          -2.5667    3.9928    1.4722 H       1  UNK1        0.2935
     49 HA1        -2.2267    4.7627   -0.7256 H       2  GLY2        0.0625
     50 HA2        -2.5285    3.7369   -2.1247 H       2  GLY2        0.0625
     51 H          -5.7994    4.6079   -0.9197 H       2  GLY2        0.2951
@<TRIPOS>BOND
     1     1     2    1
     2     2     3    1
     3     3     4    1
     4     4     5    1
     5     5     6   ar
     6     6     7   ar
     7     7     8   ar
     8     8     9    1
     9     9    10    1
    10     8    11   ar
    11    11    12   ar
    12     1    13    1
    13    13    14    2
    14    14    15    1
    15    14    16    1
    16    16    17    1
    17    17    18    1
    18    18    19    1
    19     1    20    1
    20    20    21    1
    21    20    22    2
    22    22    23    1
    23    23    24    1
    24    24    25    1
    25    24    26    2
    26    12     5   ar
    27     1    27    1
    28     2    28    1
    29     2    29    1
    30     4    30    1
    31     4    31    1
    32     6    32    1
    33     7    33    1
    34    10    34    1
    35    10    35    1
    36    10    36    1
    37    11    37    1
    38    12    38    1
    39    15    39    1
    40    16    40    1
    41    16    41    1
    42    17    42    1
    43    17    43    1
    44    18    44    1
    45    18    45    1
    46    19    46    1
    47    19    47    1
    48    21    48    1
    49    23    49    1
    50    23    50    1
    51    25    51    1
