@<TRIPOS>MOLECULE
*****
 80 82 0 0 0
SMALL
GASTEIGER

@<TRIPOS>ATOM
      1 C          -6.3374   -1.3589    0.9140 C.3     0  UNK0       -0.0590
      2 C          -4.9233   -1.7042    0.7903 C.3     0  UNK0       -0.0249
      3 C          -4.3989   -2.6916    1.8056 C.3     0  UNK0       -0.0467
      4 C          -3.3114   -3.5092    1.1077 C.3     0  UNK0       -0.0475
      5 C          -3.0742   -2.6101   -0.1186 C.3     0  UNK0       -0.0169
      6 C          -2.6580   -1.2816    0.4344 C.3     0  UNK0        0.0270
      7 N          -1.7639   -0.5301   -0.4092 N.am    0  UNK0       -0.3106
      8 C          -0.5212   -0.0765    0.1110 C.2     0  UNK0        0.2336
      9 O          -0.2396   -0.3527    1.3112 O.2     0  UNK0       -0.2738
     10 C           0.4703    0.7014   -0.6615 C.3     0  UNK0        0.1011
     11 C          -0.2129    1.8445   -1.3252 C.3     0  UNK0       -0.0231
     12 C          -0.9080    2.8283   -0.4655 C.3     0  UNK0       -0.0389
     13 C          -0.0435    3.5607    0.5194 C.3     0  UNK0       -0.0501
     14 C          -0.5718    4.9916    0.7251 C.3     0  UNK0       -0.0528
     15 C          -2.0681    4.9485    0.8187 C.3     0  UNK0       -0.0530
     16 C          -2.6973    4.5360   -0.4930 C.3     0  UNK0       -0.0528
     17 C          -1.6537    3.8599   -1.3187 C.3     0  UNK0       -0.0501
     18 N           1.6328    1.0134    0.1140 N.am    0  UNK0       -0.2881
     19 C           2.9567    0.6502   -0.3366 C.2     0  UNK0        0.3009
     20 O           2.9992    0.0614   -1.4243 O.2     0  UNK0       -0.2528
     21 N           4.0811    0.9686    0.4458 N.am    1  LYS1       -0.2862
     22 CA          5.4366    0.6515    0.1593 C.3     1  LYS1        0.1214
     23 CB          5.6205   -0.5322   -0.7840 C.3     1  LYS1       -0.0240
     24 CG          5.1039   -1.8296   -0.2691 C.3     1  LYS1       -0.0497
     25 CD          5.7973   -2.2995    1.0025 C.3     1  LYS1       -0.0406
     26 CE          7.2713   -2.4788    0.8380 C.3     1  LYS1       -0.0069
     27 NZ          7.6087   -3.4519   -0.1737 N.3     1  LYS1       -0.3300
     28 C           6.2858    1.7818   -0.2394 C.2     1  LYS1        0.3253
     29 O           5.8341    2.9477   -0.3202 O.2     1  LYS1       -0.2489
     30 OXT         7.6190    1.5717   -0.5362 O.3     1  LYS1       -0.4793
     31 C          -3.9721   -0.5243    0.6877 C.3     0  UNK0       -0.0283
     32 C          -4.5526   -2.4274   -0.5048 C.3     0  UNK0       -0.0249
     33 C          -5.2434   -3.7761   -0.5456 C.3     0  UNK0       -0.0590
     34 C          -4.7591   -1.6265   -1.7309 C.3     0  UNK0       -0.0590
     35 H          -6.5862   -1.1832    1.9790 H       0  UNK0        0.0235
     36 H          -6.9671   -2.1988    0.5675 H       0  UNK0        0.0235
     37 H          -6.5535   -0.4334    0.3537 H       0  UNK0        0.0235
     38 H          -3.8698   -2.0839    2.5848 H       0  UNK0        0.0271
     39 H          -5.1663   -3.3098    2.2650 H       0  UNK0        0.0271
     40 H          -3.6513   -4.5003    0.8117 H       0  UNK0        0.0269
     41 H          -2.3659   -3.4996    1.6801 H       0  UNK0        0.0269
     42 H          -2.4703   -3.0467   -0.8770 H       0  UNK0        0.0324
     43 H          -2.2047   -1.3968    1.4440 H       0  UNK0        0.0501
     44 H          -1.9614   -0.2871   -1.3981 H       0  UNK0        0.1490
     45 H           0.7649   -0.0012   -1.5232 H       0  UNK0        0.0595
     46 H          -0.9903    1.3864   -2.0064 H       0  UNK0        0.0290
     47 H           0.4510    2.3960   -2.0349 H       0  UNK0        0.0290
     48 H          -1.7265    2.3566    0.1520 H       0  UNK0        0.0301
     49 H           1.0096    3.6071    0.1863 H       0  UNK0        0.0268
     50 H          -0.0608    3.1096    1.5295 H       0  UNK0        0.0268
     51 H          -0.2112    5.6697   -0.0779 H       0  UNK0        0.0265
     52 H          -0.1663    5.3300    1.6953 H       0  UNK0        0.0265
     53 H          -2.3527    4.2157    1.5839 H       0  UNK0        0.0265
     54 H          -2.4272    5.9745    1.1114 H       0  UNK0        0.0265
     55 H          -3.5725    3.8699   -0.3118 H       0  UNK0        0.0265
     56 H          -3.0402    5.4399   -1.0193 H       0  UNK0        0.0265
     57 H          -2.0915    3.3112   -2.1961 H       0  UNK0        0.0268
     58 H          -0.9056    4.5918   -1.6553 H       0  UNK0        0.0268
     59 H           1.5660    1.4910    1.0203 H       0  UNK0        0.1510
     60 H           3.9074    1.5118    1.3631 H       1  LYS1        0.1511
     61 HA          5.8266    0.1955    1.1569 H       1  LYS1        0.0615
     62 HB1         6.7419   -0.6721   -0.9355 H       1  LYS1        0.0288
     63 HB2         5.2003   -0.3430   -1.7858 H       1  LYS1        0.0288
     64 HG1         5.2860   -2.6522   -1.0074 H       1  LYS1        0.0266
     65 HG2         4.0299   -1.8101   -0.0279 H       1  LYS1        0.0266
     66 HD1         5.5825   -1.6232    1.8301 H       1  LYS1        0.0277
     67 HD2         5.3129   -3.2805    1.3021 H       1  LYS1        0.0277
     68 HE1         7.7189   -1.4856    0.6584 H       1  LYS1        0.0422
     69 HE2         7.6620   -2.8670    1.7986 H       1  LYS1        0.0422
     70 HZ1         7.1513   -4.3429    0.0694 H       1  LYS1        0.1182
     71 HZ2         7.3058   -3.0781   -1.0876 H       1  LYS1        0.1182
     72 HXT         8.0970    2.2812   -1.0777 H       1  LYS1        0.2951
     73 H          -4.1425    0.1080   -0.1814 H       0  UNK0        0.0289
     74 H          -3.9192    0.0572    1.6287 H       0  UNK0        0.0289
     75 H          -5.6296   -4.0845    0.4354 H       0  UNK0        0.0235
     76 H          -6.1429   -3.6753   -1.2091 H       0  UNK0        0.0235
     77 H          -4.5782   -4.5379   -1.0085 H       0  UNK0        0.0235
     78 H          -5.4037   -2.2500   -2.4222 H       0  UNK0        0.0235
     79 H          -5.4006   -0.7138   -1.5537 H       0  UNK0        0.0235
     80 H          -3.8632   -1.4021   -2.3216 H       0  UNK0        0.0235
@<TRIPOS>BOND
     1     1     2    1
     2     2     3    1
     3     3     4    1
     4     4     5    1
     5     5     6    1
     6     6     7    1
     7     7     8   am
     8     8     9    2
     9     8    10    1
    10    10    11    1
    11    11    12    1
    12    12    13    1
    13    13    14    1
    14    14    15    1
    15    15    16    1
    16    16    17    1
    17    10    18    1
    18    18    19   am
    19    19    20    2
    20    19    21   am
    21    21    22    1
    22    22    23    1
    23    23    24    1
    24    24    25    1
    25    25    26    1
    26    26    27    1
    27    22    28    1
    28    28    29    2
    29    28    30    1
    30     6    31    1
    31     5    32    1
    32    32    33    1
    33    32    34    1
    34    31     2    1
    35    32     2    1
    36    17    12    1
    37     1    35    1
    38     1    36    1
    39     1    37    1
    40     3    38    1
    41     3    39    1
    42     4    40    1
    43     4    41    1
    44     5    42    1
    45     6    43    1
    46     7    44    1
    47    10    45    1
    48    11    46    1
    49    11    47    1
    50    12    48    1
    51    13    49    1
    52    13    50    1
    53    14    51    1
    54    14    52    1
    55    15    53    1
    56    15    54    1
    57    16    55    1
    58    16    56    1
    59    17    57    1
    60    17    58    1
    61    18    59    1
    62    21    60    1
    63    22    61    1
    64    23    62    1
    65    23    63    1
    66    24    64    1
    67    24    65    1
    68    25    66    1
    69    25    67    1
    70    26    68    1
    71    26    69    1
    72    27    70    1
    73    27    71    1
    74    30    72    1
    75    31    73    1
    76    31    74    1
    77    33    75    1
    78    33    76    1
    79    33    77    1
    80    34    78    1
    81    34    79    1
    82    34    80    1
