
     RDKit          3D

 80 82  0  0  0  0  0  0  0  0999 V2000
   -6.3374   -1.3589    0.9140 C   0  0  0  0  0  0  0  0  0  0  0  0
   -4.9233   -1.7042    0.7903 C   0  0  0  0  0  0  0  0  0  0  0  0
   -4.3989   -2.6916    1.8056 C   0  0  0  0  0  0  0  0  0  0  0  0
   -3.3114   -3.5092    1.1077 C   0  0  0  0  0  0  0  0  0  0  0  0
   -3.0742   -2.6101   -0.1186 C   0  0  0  0  0  0  0  0  0  0  0  0
   -2.6580   -1.2816    0.4344 C   0  0  0  0  0  0  0  0  0  0  0  0
   -1.7639   -0.5301   -0.4092 N   0  0  0  0  0  0  0  0  0  0  0  0
   -0.5212   -0.0765    0.1110 C   0  0  0  0  0  0  0  0  0  0  0  0
   -0.2396   -0.3527    1.3112 O   0  0  0  0  0  0  0  0  0  0  0  0
    0.4703    0.7014   -0.6615 C   0  0  1  0  0  0  0  0  0  0  0  0
   -0.2129    1.8445   -1.3252 C   0  0  0  0  0  0  0  0  0  0  0  0
   -0.9080    2.8283   -0.4655 C   0  0  0  0  0  0  0  0  0  0  0  0
   -0.0435    3.5607    0.5194 C   0  0  0  0  0  0  0  0  0  0  0  0
   -0.5718    4.9916    0.7251 C   0  0  0  0  0  0  0  0  0  0  0  0
   -2.0681    4.9485    0.8187 C   0  0  0  0  0  0  0  0  0  0  0  0
   -2.6973    4.5360   -0.4930 C   0  0  0  0  0  0  0  0  0  0  0  0
   -1.6537    3.8599   -1.3187 C   0  0  0  0  0  0  0  0  0  0  0  0
    1.6328    1.0134    0.1140 N   0  0  0  0  0  0  0  0  0  0  0  0
    2.9567    0.6502   -0.3366 C   0  0  0  0  0  0  0  0  0  0  0  0
    2.9992    0.0614   -1.4243 O   0  0  0  0  0  0  0  0  0  0  0  0
    4.0811    0.9686    0.4458 N   0  0  0  0  0  0  0  0  0  0  0  0
    5.4366    0.6515    0.1593 C   0  0  1  0  0  0  0  0  0  0  0  0
    5.6205   -0.5322   -0.7840 C   0  0  0  0  0  0  0  0  0  0  0  0
    5.1039   -1.8296   -0.2691 C   0  0  0  0  0  0  0  0  0  0  0  0
    5.7973   -2.2995    1.0025 C   0  0  0  0  0  0  0  0  0  0  0  0
    7.2713   -2.4788    0.8380 C   0  0  0  0  0  0  0  0  0  0  0  0
    7.6087   -3.4519   -0.1737 N   0  0  0  0  0  0  0  0  0  0  0  0
    6.2858    1.7818   -0.2394 C   0  0  0  0  0  0  0  0  0  0  0  0
    5.8341    2.9477   -0.3202 O   0  0  0  0  0  0  0  0  0  0  0  0
    7.6190    1.5717   -0.5362 O   0  0  0  0  0  0  0  0  0  0  0  0
   -3.9721   -0.5243    0.6877 C   0  0  0  0  0  0  0  0  0  0  0  0
   -4.5526   -2.4274   -0.5048 C   0  0  0  0  0  0  0  0  0  0  0  0
   -5.2434   -3.7761   -0.5456 C   0  0  0  0  0  0  0  0  0  0  0  0
   -4.7591   -1.6265   -1.7309 C   0  0  0  0  0  0  0  0  0  0  0  0
   -6.5862   -1.1832    1.9790 H   0  0  0  0  0  0  0  0  0  0  0  0
   -6.9671   -2.1988    0.5675 H   0  0  0  0  0  0  0  0  0  0  0  0
   -6.5535   -0.4334    0.3537 H   0  0  0  0  0  0  0  0  0  0  0  0
   -3.8698   -2.0839    2.5848 H   0  0  0  0  0  0  0  0  0  0  0  0
   -5.1663   -3.3098    2.2650 H   0  0  0  0  0  0  0  0  0  0  0  0
   -3.6513   -4.5003    0.8117 H   0  0  0  0  0  0  0  0  0  0  0  0
   -2.3659   -3.4996    1.6801 H   0  0  0  0  0  0  0  0  0  0  0  0
   -2.4703   -3.0467   -0.8770 H   0  0  0  0  0  0  0  0  0  0  0  0
   -2.2047   -1.3968    1.4440 H   0  0  0  0  0  0  0  0  0  0  0  0
   -1.9614   -0.2871   -1.3981 H   0  0  0  0  0  0  0  0  0  0  0  0
    0.7649   -0.0012   -1.5232 H   0  0  0  0  0  0  0  0  0  0  0  0
   -0.9903    1.3864   -2.0064 H   0  0  0  0  0  0  0  0  0  0  0  0
    0.4510    2.3960   -2.0349 H   0  0  0  0  0  0  0  0  0  0  0  0
   -1.7265    2.3566    0.1520 H   0  0  0  0  0  0  0  0  0  0  0  0
    1.0096    3.6071    0.1863 H   0  0  0  0  0  0  0  0  0  0  0  0
   -0.0608    3.1096    1.5295 H   0  0  0  0  0  0  0  0  0  0  0  0
   -0.2112    5.6697   -0.0779 H   0  0  0  0  0  0  0  0  0  0  0  0
   -0.1663    5.3300    1.6953 H   0  0  0  0  0  0  0  0  0  0  0  0
   -2.3527    4.2157    1.5839 H   0  0  0  0  0  0  0  0  0  0  0  0
   -2.4272    5.9745    1.1114 H   0  0  0  0  0  0  0  0  0  0  0  0
   -3.5725    3.8699   -0.3118 H   0  0  0  0  0  0  0  0  0  0  0  0
   -3.0402    5.4399   -1.0193 H   0  0  0  0  0  0  0  0  0  0  0  0
   -2.0915    3.3112   -2.1961 H   0  0  0  0  0  0  0  0  0  0  0  0
   -0.9056    4.5918   -1.6553 H   0  0  0  0  0  0  0  0  0  0  0  0
    1.5660    1.4910    1.0203 H   0  0  0  0  0  0  0  0  0  0  0  0
    3.9074    1.5118    1.3631 H   0  0  0  0  0  0  0  0  0  0  0  0
    5.8266    0.1955    1.1569 H   0  0  0  0  0  0  0  0  0  0  0  0
    6.7419   -0.6721   -0.9355 H   0  0  0  0  0  0  0  0  0  0  0  0
    5.2003   -0.3430   -1.7858 H   0  0  0  0  0  0  0  0  0  0  0  0
    5.2860   -2.6522   -1.0074 H   0  0  0  0  0  0  0  0  0  0  0  0
    4.0299   -1.8101   -0.0279 H   0  0  0  0  0  0  0  0  0  0  0  0
    5.5825   -1.6232    1.8301 H   0  0  0  0  0  0  0  0  0  0  0  0
    5.3129   -3.2805    1.3021 H   0  0  0  0  0  0  0  0  0  0  0  0
    7.7189   -1.4856    0.6584 H   0  0  0  0  0  0  0  0  0  0  0  0
    7.6620   -2.8670    1.7986 H   0  0  0  0  0  0  0  0  0  0  0  0
    7.1513   -4.3429    0.0694 H   0  0  0  0  0  0  0  0  0  0  0  0
    7.3058   -3.0781   -1.0876 H   0  0  0  0  0  0  0  0  0  0  0  0
    8.0970    2.2812   -1.0777 H   0  0  0  0  0  0  0  0  0  0  0  0
   -4.1425    0.1080   -0.1814 H   0  0  0  0  0  0  0  0  0  0  0  0
   -3.9192    0.0572    1.6287 H   0  0  0  0  0  0  0  0  0  0  0  0
   -5.6296   -4.0845    0.4354 H   0  0  0  0  0  0  0  0  0  0  0  0
   -6.1429   -3.6753   -1.2091 H   0  0  0  0  0  0  0  0  0  0  0  0
   -4.5782   -4.5379   -1.0085 H   0  0  0  0  0  0  0  0  0  0  0  0
   -5.4037   -2.2500   -2.4222 H   0  0  0  0  0  0  0  0  0  0  0  0
   -5.4006   -0.7138   -1.5537 H   0  0  0  0  0  0  0  0  0  0  0  0
   -3.8632   -1.4021   -2.3216 H   0  0  0  0  0  0  0  0  0  0  0  0
  1  2  1  0
  2  3  1  0
  3  4  1  0
  4  5  1  0
  5  6  1  0
  6  7  1  0
  7  8  1  0
  8  9  2  0
  8 10  1  0
 10 11  1  0
 11 12  1  0
 12 13  1  0
 13 14  1  0
 14 15  1  0
 15 16  1  0
 16 17  1  0
 10 18  1  0
 18 19  1  0
 19 20  2  0
 19 21  1  0
 21 22  1  0
 22 23  1  0
 23 24  1  0
 24 25  1  0
 25 26  1  0
 26 27  1  0
 22 28  1  0
 28 29  2  0
 28 30  1  0
  6 31  1  0
  5 32  1  0
 32 33  1  0
 32 34  1  0
 31  2  1  0
 32  2  1  0
 17 12  1  0
  1 35  1  0
  1 36  1  0
  1 37  1  0
  3 38  1  0
  3 39  1  0
  4 40  1  0
  4 41  1  0
  5 42  1  0
  6 43  1  0
  7 44  1  0
 10 45  1  6
 11 46  1  0
 11 47  1  0
 12 48  1  0
 13 49  1  0
 13 50  1  0
 14 51  1  0
 14 52  1  0
 15 53  1  0
 15 54  1  0
 16 55  1  0
 16 56  1  0
 17 57  1  0
 17 58  1  0
 18 59  1  0
 21 60  1  0
 22 61  1  1
 23 62  1  0
 23 63  1  0
 24 64  1  0
 24 65  1  0
 25 66  1  0
 25 67  1  0
 26 68  1  0
 26 69  1  0
 27 70  1  0
 27 71  1  0
 30 72  1  0
 31 73  1  0
 31 74  1  0
 33 75  1  0
 33 76  1  0
 33 77  1  0
 34 78  1  0
 34 79  1  0
 34 80  1  0
M  END
$$$$
