@<TRIPOS>MOLECULE
*****
 26 26 0 0 0
SMALL
GASTEIGER

@<TRIPOS>ATOM
      1 C          -1.0475    0.1207   -0.7004 C.3     1  UNL1       -0.0289
      2 C           0.1720    0.8020   -0.0839 C.3     1  UNL1       -0.0494
      3 C           1.3706   -0.0991   -0.1319 C.3     1  UNL1       -0.0530
      4 C           2.5980    0.5569    0.4760 C.3     1  UNL1       -0.0559
      5 C           3.7450   -0.4338    0.3767 C.3     1  UNL1       -0.0653
      6 C          -1.4041   -1.1090   -0.0052 C.3     1  UNL1       -0.0380
      7 C          -2.7950   -1.0820    0.5273 C.3     1  UNL1        0.0237
      8 S          -3.0452    0.7080    0.7460 S.O     1  UNL1        0.0224
      9 O          -4.5140    1.0621    0.6412 O.2     1  UNL1       -0.2572
     10 C          -2.1391    1.1205   -0.7589 C.3     1  UNL1        0.0262
     11 H          -0.7458   -0.0943   -1.7675 H       1  UNL1        0.0310
     12 H           0.4251    1.7299   -0.6365 H       1  UNL1        0.0268
     13 H          -0.0122    1.0614    0.9806 H       1  UNL1        0.0268
     14 H           1.6323   -0.3630   -1.1793 H       1  UNL1        0.0265
     15 H           1.2282   -1.0575    0.4001 H       1  UNL1        0.0265
     16 H           2.9011    1.4502   -0.1074 H       1  UNL1        0.0263
     17 H           2.4397    0.8358    1.5315 H       1  UNL1        0.0263
     18 H           3.9439   -0.9516    1.3376 H       1  UNL1        0.0230
     19 H           4.6901    0.0776    0.0543 H       1  UNL1        0.0230
     20 H           3.5296   -1.1722   -0.4054 H       1  UNL1        0.0230
     21 H          -0.7391   -1.2323    0.9008 H       1  UNL1        0.0277
     22 H          -1.2370   -2.0342   -0.5962 H       1  UNL1        0.0277
     23 H          -2.9561   -1.6484    1.4430 H       1  UNL1        0.0401
     24 H          -3.4919   -1.3898   -0.2845 H       1  UNL1        0.0401
     25 H          -2.7952    0.9853   -1.6608 H       1  UNL1        0.0404
     26 H          -1.7534    2.1570   -0.6906 H       1  UNL1        0.0404
@<TRIPOS>BOND
     1     1     2    1
     2     2     3    1
     3     3     4    1
     4     4     5    1
     5     1     6    1
     6     6     7    1
     7     8     7    1
     8     8     9    2
     9     8    10    1
    10    10     1    1
    11     1    11    1
    12     2    12    1
    13     2    13    1
    14     3    14    1
    15     3    15    1
    16     4    16    1
    17     4    17    1
    18     5    18    1
    19     5    19    1
    20     5    20    1
    21     6    21    1
    22     6    22    1
    23     7    23    1
    24     7    24    1
    25    10    25    1
    26    10    26    1
