@<TRIPOS>MOLECULE
*****
 69 71 0 0 0
SMALL
GASTEIGER

@<TRIPOS>ATOM
      1 C           7.3805    0.9257   -0.2452 C.3     1  UNL1       -0.0130
      2 N           6.7888    0.3570    0.9519 N.3     1  UNL1       -0.3069
      3 C           7.0343    1.2348    2.0792 C.3     1  UNL1       -0.0130
      4 C           5.3824    0.0831    0.7788 C.3     1  UNL1        0.0141
      5 C           5.1863   -1.0508   -0.2159 C.3     1  UNL1        0.0275
      6 N           3.7461   -1.3057   -0.3788 N.am    1  UNL1       -0.2987
      7 C           3.0776   -0.5652   -1.4003 C.3     1  UNL1        0.0305
      8 C           2.1601   -1.3811   -2.2584 C.3     1  UNL1        0.0308
      9 N           1.0781   -1.8716   -1.2934 N.am    1  UNL1       -0.2955
     10 C           0.0456   -0.9462   -1.1497 C.2     1  UNL1        0.2490
     11 O           0.2162    0.1394   -1.8815 O.2     1  UNL1       -0.2699
     12 C          -1.1657   -0.9596   -0.3539 C.ar    1  UNL1        0.0657
     13 C          -1.4832   -1.8948    0.5826 C.ar    1  UNL1       -0.0370
     14 C          -2.6295   -1.7776    1.2725 C.ar    1  UNL1       -0.0023
     15 C          -3.1977   -2.6893    2.3525 C.3     1  UNL1       -0.0064
     16 C          -2.7231   -2.2733    3.7069 C.3     1  UNL1       -0.0556
     17 C          -4.7092   -2.5961    2.3416 C.3     1  UNL1       -0.0556
     18 C          -2.8164   -4.1132    2.0206 C.3     1  UNL1       -0.0556
     19 S          -3.3543   -0.3386    0.6597 S.2     1  UNL1       -0.0771
     20 C          -2.0896    0.0300   -0.4863 C.ar    1  UNL1        0.0853
     21 N          -2.1512    1.2059   -1.3445 N.am    1  UNL1       -0.2629
     22 C          -3.2476    2.1202   -1.2068 C.2     1  UNL1        0.3085
     23 O          -4.0995    1.8730   -0.3594 O.2     1  UNL1       -0.2521
     24 N          -3.3634    3.2726   -2.0075 N.am    1  UNL1       -0.2678
     25 C          -4.3815    4.2429   -1.9654 C.ar    1  UNL1        0.0546
     26 C          -5.4428    4.2438   -1.1113 C.ar    1  UNL1       -0.0389
     27 C          -6.4444    5.2230   -1.0920 C.ar    1  UNL1       -0.0585
     28 C          -6.3682    6.2589   -1.9855 C.ar    1  UNL1       -0.0419
     29 C          -5.3027    6.2796   -2.8605 C.ar    1  UNL1        0.0610
     30 CL         -5.1869    7.5965   -4.0143 Cl      1  UNL1       -0.0820
     31 C          -4.3233    5.3152   -2.8740 C.ar    1  UNL1        0.0804
     32 CL         -2.9993    5.4363   -4.0389 Cl      1  UNL1       -0.0801
     33 C           1.2239   -3.1473   -0.6901 C.3     1  UNL1        0.0233
     34 C           1.9687   -3.0298    0.6064 C.3     1  UNL1        0.0399
     35 C           3.2262   -2.2523    0.5137 C.2     1  UNL1        0.2171
     36 O           4.0187   -2.5134    1.4815 O.2     1  UNL1       -0.2755
     37 H           8.1596    1.6628    0.0395 H       1  UNL1        0.0391
     38 H           6.5920    1.4996   -0.7794 H       1  UNL1        0.0391
     39 H           7.8541    0.1750   -0.9043 H       1  UNL1        0.0391
     40 H           7.1468    0.6155    2.9951 H       1  UNL1        0.0391
     41 H           6.1154    1.8623    2.2055 H       1  UNL1        0.0391
     42 H           7.9372    1.8540    1.9086 H       1  UNL1        0.0391
     43 H           4.9134    0.9990    0.3650 H       1  UNL1        0.0442
     44 H           4.9766   -0.2221    1.7597 H       1  UNL1        0.0442
     45 H           5.6360   -1.9648    0.1983 H       1  UNL1        0.0477
     46 H           5.5485   -0.7680   -1.2252 H       1  UNL1        0.0477
     47 H           2.4559    0.2153   -0.8983 H       1  UNL1        0.0480
     48 H           3.8009   -0.0567   -2.0736 H       1  UNL1        0.0480
     49 H           1.6561   -0.7267   -2.9695 H       1  UNL1        0.0480
     50 H           2.6429   -2.2456   -2.7244 H       1  UNL1        0.0480
     51 H          -0.8593   -2.7479    0.8341 H       1  UNL1        0.0634
     52 H          -3.3610   -2.7895    4.4564 H       1  UNL1        0.0238
     53 H          -1.6537   -2.4514    3.8402 H       1  UNL1        0.0238
     54 H          -2.9296   -1.1879    3.8440 H       1  UNL1        0.0238
     55 H          -5.0788   -3.4517    2.9319 H       1  UNL1        0.0238
     56 H          -5.1410   -2.5788    1.3182 H       1  UNL1        0.0238
     57 H          -4.9940   -1.6858    2.9137 H       1  UNL1        0.0238
     58 H          -1.7588   -4.3374    2.1570 H       1  UNL1        0.0238
     59 H          -3.0851   -4.3063    0.9655 H       1  UNL1        0.0238
     60 H          -3.4043   -4.7740    2.6762 H       1  UNL1        0.0238
     61 H          -1.4715    1.4463   -2.0600 H       1  UNL1        0.1569
     62 H          -2.5827    3.4172   -2.7262 H       1  UNL1        0.1564
     63 H          -5.5769    3.4680   -0.3788 H       1  UNL1        0.0637
     64 H          -7.2701    5.1845   -0.3949 H       1  UNL1        0.0619
     65 H          -7.1323    7.0214   -1.9809 H       1  UNL1        0.0633
     66 H           1.9334   -3.8064   -1.3353 H       1  UNL1        0.0469
     67 H           0.2962   -3.6760   -0.5851 H       1  UNL1        0.0469
     68 H           2.2390   -4.0992    0.8834 H       1  UNL1        0.0374
     69 H           1.3411   -2.6767    1.4412 H       1  UNL1        0.0374
@<TRIPOS>BOND
     1     1     2    1
     2     2     3    1
     3     2     4    1
     4     4     5    1
     5     5     6    1
     6     6     7    1
     7     7     8    1
     8     8     9    1
     9     9    10   am
    10    10    11    2
    11    10    12    1
    12    12    13   ar
    13    13    14   ar
    14    14    15    1
    15    15    16    1
    16    15    17    1
    17    15    18    1
    18    14    19   ar
    19    19    20   ar
    20    20    21    1
    21    21    22   am
    22    22    23    2
    23    22    24   am
    24    24    25    1
    25    25    26   ar
    26    26    27   ar
    27    27    28   ar
    28    28    29   ar
    29    29    30    1
    30    29    31   ar
    31    31    32    1
    32     9    33    1
    33    33    34    1
    34    34    35    1
    35    35    36    2
    36    35     6   am
    37    20    12   ar
    38    31    25   ar
    39     1    37    1
    40     1    38    1
    41     1    39    1
    42     3    40    1
    43     3    41    1
    44     3    42    1
    45     4    43    1
    46     4    44    1
    47     5    45    1
    48     5    46    1
    49     7    47    1
    50     7    48    1
    51     8    49    1
    52     8    50    1
    53    13    51    1
    54    16    52    1
    55    16    53    1
    56    16    54    1
    57    17    55    1
    58    17    56    1
    59    17    57    1
    60    18    58    1
    61    18    59    1
    62    18    60    1
    63    21    61    1
    64    24    62    1
    65    26    63    1
    66    27    64    1
    67    28    65    1
    68    33    66    1
    69    33    67    1
    70    34    68    1
    71    34    69    1
