
     RDKit          3D

 24 24  0  0  0  0  0  0  0  0999 V2000
   -1.5161    0.3699    0.1489 C   0  0  2  0  0  0  0  0  0  0  0  0
   -1.6606   -0.8665   -0.7094 C   0  0  0  0  0  0  0  0  0  0  0  0
   -3.3399   -0.5622   -2.0011 I   0  0  0  0  0  0  0  0  0  0  0  0
   -0.3361    0.2283    1.0992 C   0  0  0  0  0  0  0  0  0  0  0  0
    0.9359    0.0361    0.3512 C   0  0  0  0  0  0  0  0  0  0  0  0
    1.4453   -1.2006   -0.0153 C   0  0  0  0  0  0  0  0  0  0  0  0
    2.6443   -1.2731   -0.7140 C   0  0  0  0  0  0  0  0  0  0  0  0
    3.3475   -0.1233   -1.0549 C   0  0  0  0  0  0  0  0  0  0  0  0
    2.8886    1.1348   -0.7165 C   0  0  0  0  0  0  0  0  0  0  0  0
    1.6957    1.1454   -0.0248 C   0  0  0  0  0  0  0  0  0  0  0  0
   -2.7446    0.3959    1.0207 C   0  0  0  0  0  0  0  0  0  0  0  0
   -4.0481    0.4583    0.5885 O   0  0  0  0  0  0  0  0  0  0  0  0
   -2.6937    0.3611    2.2967 O   0  0  0  0  0  0  0  0  0  0  0  0
   -1.4360    1.2643   -0.4691 H   0  0  0  0  0  0  0  0  0  0  0  0
   -0.7579   -1.1093   -1.3020 H   0  0  0  0  0  0  0  0  0  0  0  0
   -1.8858   -1.7016   -0.0083 H   0  0  0  0  0  0  0  0  0  0  0  0
   -0.2009    1.1601    1.6833 H   0  0  0  0  0  0  0  0  0  0  0  0
   -0.5245   -0.6054    1.8007 H   0  0  0  0  0  0  0  0  0  0  0  0
    0.8631   -2.0524    0.2728 H   0  0  0  0  0  0  0  0  0  0  0  0
    3.0238   -2.2465   -0.9900 H   0  0  0  0  0  0  0  0  0  0  0  0
    4.2865   -0.1779   -1.6021 H   0  0  0  0  0  0  0  0  0  0  0  0
    3.3723    2.0668   -0.9428 H   0  0  0  0  0  0  0  0  0  0  0  0
    1.2911    2.1238    0.2661 H   0  0  0  0  0  0  0  0  0  0  0  0
   -4.6497    1.1738    1.0222 H   0  0  0  0  0  0  0  0  0  0  0  0
  1  2  1  0
  2  3  1  0
  1  4  1  0
  4  5  1  0
  5  6  2  0
  6  7  1  0
  7  8  2  0
  8  9  1  0
  9 10  2  0
  1 11  1  0
 11 12  1  0
 11 13  2  0
 10  5  1  0
  1 14  1  6
  2 15  1  0
  2 16  1  0
  4 17  1  0
  4 18  1  0
  6 19  1  0
  7 20  1  0
  8 21  1  0
  9 22  1  0
 10 23  1  0
 12 24  1  0
M  END
$$$$
