@<TRIPOS>MOLECULE
*****
 24 24 0 0 0
SMALL
GASTEIGER

@<TRIPOS>ATOM
      1 C          -1.5161    0.3699    0.1489 C.3     1  UNL1        0.0690
      2 C          -1.6606   -0.8665   -0.7094 C.3     1  UNL1        0.0129
      3 I          -3.3399   -0.5622   -2.0011 I       1  UNL1       -0.0845
      4 C          -0.3361    0.2283    1.0992 C.3     1  UNL1       -0.0140
      5 C           0.9359    0.0361    0.3512 C.ar    1  UNL1       -0.0466
      6 C           1.4453   -1.2006   -0.0153 C.ar    1  UNL1       -0.0586
      7 C           2.6443   -1.2731   -0.7140 C.ar    1  UNL1       -0.0615
      8 C           3.3475   -0.1233   -1.0549 C.ar    1  UNL1       -0.0617
      9 C           2.8886    1.1348   -0.7165 C.ar    1  UNL1       -0.0615
     10 C           1.6957    1.1454   -0.0248 C.ar    1  UNL1       -0.0586
     11 C          -2.7446    0.3959    1.0207 C.2     1  UNL1        0.3089
     12 O          -4.0481    0.4583    0.5885 O.3     1  UNL1       -0.4804
     13 O          -2.6937    0.3611    2.2967 O.2     1  UNL1       -0.2507
     14 H          -1.4360    1.2643   -0.4691 H       1  UNL1        0.0424
     15 H          -0.7579   -1.1093   -1.3020 H       1  UNL1        0.0381
     16 H          -1.8858   -1.7016   -0.0083 H       1  UNL1        0.0381
     17 H          -0.2009    1.1601    1.6833 H       1  UNL1        0.0321
     18 H          -0.5245   -0.6054    1.8007 H       1  UNL1        0.0321
     19 H           0.8631   -2.0524    0.2728 H       1  UNL1        0.0620
     20 H           3.0238   -2.2465   -0.9900 H       1  UNL1        0.0618
     21 H           4.2865   -0.1779   -1.6021 H       1  UNL1        0.0618
     22 H           3.3723    2.0668   -0.9428 H       1  UNL1        0.0618
     23 H           1.2911    2.1238    0.2661 H       1  UNL1        0.0620
     24 H          -4.6497    1.1738    1.0222 H       1  UNL1        0.2951
@<TRIPOS>BOND
     1     1     2    1
     2     2     3    1
     3     1     4    1
     4     4     5    1
     5     5     6   ar
     6     6     7   ar
     7     7     8   ar
     8     8     9   ar
     9     9    10   ar
    10     1    11    1
    11    11    12    1
    12    11    13    2
    13    10     5   ar
    14     1    14    1
    15     2    15    1
    16     2    16    1
    17     4    17    1
    18     4    18    1
    19     6    19    1
    20     7    20    1
    21     8    21    1
    22     9    22    1
    23    10    23    1
    24    12    24    1
