@<TRIPOS>MOLECULE
*****
 90 93 0 0 0
SMALL
GASTEIGER

@<TRIPOS>ATOM
      1 C          -8.4088   -0.4495   -1.2681 C.3     1  UNL1        0.0000
      2 C          -7.2788   -1.4184   -1.5616 C.3     1  UNL1        0.0000
      3 C          -6.2290   -0.8356   -2.4202 C.3     1  UNL1        0.0000
      4 C          -5.5013    0.3668   -2.0203 C.3     1  UNL1        0.0000
      5 SN         -4.2463    0.3401   -0.3192 Sn      1  UNL1        0.0000
      6 C          -4.7438   -1.0143    1.2042 C.3     1  UNL1        0.0000
      7 C          -4.6789   -0.5750    2.6187 C.3     1  UNL1        0.0000
      8 C          -5.6332    0.4594    3.0486 C.3     1  UNL1        0.0000
      9 C          -7.0594   -0.0623    2.8602 C.3     1  UNL1        0.0000
     10 C          -3.9166    2.3156    0.3627 C.3     1  UNL1        0.0000
     11 C          -4.9180    3.3594    0.0909 C.3     1  UNL1        0.0000
     12 C          -6.2613    3.3801    0.6509 C.3     1  UNL1        0.0000
     13 C          -7.2237    2.3038    0.3533 C.3     1  UNL1        0.0000
     14 C          -2.3444   -0.4086   -1.1051 C.ar    1  UNL1        0.0000
     15 C          -2.2765   -1.7523   -1.2831 C.ar    1  UNL1        0.0000
     16 C          -1.1261   -2.3414   -1.7926 C.ar    1  UNL1        0.0000
     17 C          -0.0684   -1.5222   -2.1070 C.ar    1  UNL1        0.0000
     18 C           1.1728   -2.1738   -2.6633 C.3     1  UNL1        0.0000
     19 N           2.0099   -2.5027   -1.5222 N.am    1  UNL1        0.0000
     20 C           1.9868   -3.6913   -0.7537 C.2     1  UNL1        0.0000
     21 O           1.2361   -4.6859   -0.9151 O.2     1  UNL1        0.0000
     22 C           2.9846   -3.6110    0.2906 C.2     1  UNL1        0.0000
     23 O           3.2197   -4.5089    1.1484 O.2     1  UNL1        0.0000
     24 C           3.6263   -2.3107    0.1279 C.ar    1  UNL1        0.0000
     25 C           4.6467   -1.7164    0.8578 C.ar    1  UNL1        0.0000
     26 C           5.0717   -0.4578    0.4893 C.ar    1  UNL1        0.0000
     27 S           6.3456    0.3736    1.3512 S.O2    1  UNL1        0.0000
     28 O           6.0515    1.8309    1.2907 O.2     1  UNL1        0.0000
     29 O           6.3347   -0.0609    2.7978 O.2     1  UNL1        0.0000
     30 N           7.8357    0.0376    0.5958 N.3     1  UNL1        0.0000
     31 C           8.1825   -1.3511    0.6029 C.3     1  UNL1        0.0000
     32 C           9.6200   -1.4960    0.9813 C.3     1  UNL1        0.0000
     33 C          10.1583   -0.0937    0.8885 C.3     1  UNL1        0.0000
     34 C           8.9437    0.7539    1.1944 C.3     1  UNL1        0.0000
     35 C           9.0783    2.1391    0.5966 C.3     1  UNL1        0.0000
     36 O           9.3074    2.0204   -0.7703 O.3     1  UNL1        0.0000
     37 C           9.4376    3.2562   -1.3849 C.3     1  UNL1        0.0000
     38 C           4.4823    0.1770   -0.5845 C.ar    1  UNL1        0.0000
     39 C           3.4706   -0.4134   -1.3080 C.ar    1  UNL1        0.0000
     40 C           3.0332   -1.6796   -0.9461 C.ar    1  UNL1        0.0000
     41 C          -0.1499   -0.1587   -1.9208 C.ar    1  UNL1        0.0000
     42 C          -1.3249    0.4122   -1.4040 C.ar    1  UNL1        0.0000
     43 H          -8.3623    0.4800   -1.8439 H       1  UNL1        0.0000
     44 H          -9.3622   -0.9570   -1.5095 H       1  UNL1        0.0000
     45 H          -8.4569   -0.2827   -0.1614 H       1  UNL1        0.0000
     46 H          -6.9863   -1.9388   -0.6743 H       1  UNL1        0.0000
     47 H          -7.7585   -2.2413   -2.2250 H       1  UNL1        0.0000
     48 H          -6.7315   -0.5970   -3.4097 H       1  UNL1        0.0000
     49 H          -5.5348   -1.6857   -2.7022 H       1  UNL1        0.0000
     50 H          -4.8795    0.6535   -2.9629 H       1  UNL1        0.0000
     51 H          -6.2174    1.2329   -2.0040 H       1  UNL1        0.0000
     52 H          -5.7163   -1.5509    1.0223 H       1  UNL1        0.0000
     53 H          -4.0076   -1.9030    1.1539 H       1  UNL1        0.0000
     54 H          -3.6286   -0.3123    2.9139 H       1  UNL1        0.0000
     55 H          -4.8967   -1.5062    3.2354 H       1  UNL1        0.0000
     56 H          -5.5471    0.6638    4.1473 H       1  UNL1        0.0000
     57 H          -5.5461    1.3609    2.4477 H       1  UNL1        0.0000
     58 H          -7.7002    0.8561    2.9294 H       1  UNL1        0.0000
     59 H          -7.3264   -0.8305    3.6068 H       1  UNL1        0.0000
     60 H          -7.2217   -0.4861    1.8589 H       1  UNL1        0.0000
     61 H          -2.8797    2.6943   -0.0188 H       1  UNL1        0.0000
     62 H          -3.7119    2.2840    1.4718 H       1  UNL1        0.0000
     63 H          -5.0539    3.4048   -1.0578 H       1  UNL1        0.0000
     64 H          -4.4650    4.4055    0.2959 H       1  UNL1        0.0000
     65 H          -6.2646    3.5343    1.7798 H       1  UNL1        0.0000
     66 H          -6.7435    4.3586    0.3003 H       1  UNL1        0.0000
     67 H          -7.6816    2.5036   -0.6627 H       1  UNL1        0.0000
     68 H          -8.0826    2.3648    1.0773 H       1  UNL1        0.0000
     69 H          -6.7652    1.3194    0.3771 H       1  UNL1        0.0000
     70 H          -3.0923   -2.4427   -1.0481 H       1  UNL1        0.0000
     71 H          -1.0748   -3.4075   -1.9326 H       1  UNL1        0.0000
     72 H           1.6681   -1.4048   -3.2926 H       1  UNL1        0.0000
     73 H           0.8425   -3.0660   -3.2214 H       1  UNL1        0.0000
     74 H           5.0835   -2.2403    1.6859 H       1  UNL1        0.0000
     75 H           8.0379   -1.7534   -0.4274 H       1  UNL1        0.0000
     76 H           7.5401   -1.9420    1.3220 H       1  UNL1        0.0000
     77 H          10.1354   -2.1915    0.2674 H       1  UNL1        0.0000
     78 H           9.7605   -1.9040    2.0077 H       1  UNL1        0.0000
     79 H          11.0013    0.0744    1.5873 H       1  UNL1        0.0000
     80 H          10.4678    0.0849   -0.1777 H       1  UNL1        0.0000
     81 H           8.7945    0.7622    2.2784 H       1  UNL1        0.0000
     82 H           8.1482    2.7126    0.7903 H       1  UNL1        0.0000
     83 H           9.8904    2.6880    1.0990 H       1  UNL1        0.0000
     84 H          10.2701    3.8604   -0.9885 H       1  UNL1        0.0000
     85 H           9.6423    3.0801   -2.4638 H       1  UNL1        0.0000
     86 H           8.4576    3.8212   -1.3366 H       1  UNL1        0.0000
     87 H           4.7995    1.1667   -0.8955 H       1  UNL1        0.0000
     88 H           3.0239    0.0942   -2.1470 H       1  UNL1        0.0000
     89 H           0.6810    0.4607   -2.1722 H       1  UNL1        0.0000
     90 H          -1.3956    1.4874   -1.2547 H       1  UNL1        0.0000
@<TRIPOS>BOND
     1     1     2    1
     2     2     3    1
     3     3     4    1
     4     4     5    1
     5     5     6    1
     6     6     7    1
     7     7     8    1
     8     8     9    1
     9     5    10    1
    10    10    11    1
    11    11    12    1
    12    12    13    1
    13     5    14    1
    14    14    15   ar
    15    15    16   ar
    16    16    17   ar
    17    17    18    1
    18    18    19    1
    19    19    20   am
    20    20    21    2
    21    20    22    1
    22    22    23    2
    23    22    24    1
    24    24    25   ar
    25    25    26   ar
    26    26    27    1
    27    27    28    2
    28    27    29    2
    29    27    30    1
    30    30    31    1
    31    31    32    1
    32    32    33    1
    33    33    34    1
    34    34    35    1
    35    35    36    1
    36    36    37    1
    37    26    38   ar
    38    38    39   ar
    39    39    40   ar
    40    17    41   ar
    41    41    42   ar
    42    42    14   ar
    43    40    19    1
    44    40    24   ar
    45    34    30    1
    46     1    43    1
    47     1    44    1
    48     1    45    1
    49     2    46    1
    50     2    47    1
    51     3    48    1
    52     3    49    1
    53     4    50    1
    54     4    51    1
    55     6    52    1
    56     6    53    1
    57     7    54    1
    58     7    55    1
    59     8    56    1
    60     8    57    1
    61     9    58    1
    62     9    59    1
    63     9    60    1
    64    10    61    1
    65    10    62    1
    66    11    63    1
    67    11    64    1
    68    12    65    1
    69    12    66    1
    70    13    67    1
    71    13    68    1
    72    13    69    1
    73    15    70    1
    74    16    71    1
    75    18    72    1
    76    18    73    1
    77    25    74    1
    78    31    75    1
    79    31    76    1
    80    32    77    1
    81    32    78    1
    82    33    79    1
    83    33    80    1
    84    34    81    1
    85    35    82    1
    86    35    83    1
    87    37    84    1
    88    37    85    1
    89    37    86    1
    90    38    87    1
    91    39    88    1
    92    41    89    1
    93    42    90    1
