
     RDKit          3D

 90 93  0  0  0  0  0  0  0  0999 V2000
   -8.4088   -0.4495   -1.2681 C   0  0  0  0  0  0  0  0  0  0  0  0
   -7.2788   -1.4184   -1.5616 C   0  0  0  0  0  0  0  0  0  0  0  0
   -6.2290   -0.8356   -2.4202 C   0  0  0  0  0  0  0  0  0  0  0  0
   -5.5013    0.3668   -2.0203 C   0  0  0  0  0  0  0  0  0  0  0  0
   -4.2463    0.3401   -0.3192 Sn  0  0  0  0  0  4  0  0  0  0  0  0
   -4.7438   -1.0143    1.2042 C   0  0  0  0  0  0  0  0  0  0  0  0
   -4.6789   -0.5750    2.6187 C   0  0  0  0  0  0  0  0  0  0  0  0
   -5.6332    0.4594    3.0486 C   0  0  0  0  0  0  0  0  0  0  0  0
   -7.0594   -0.0623    2.8602 C   0  0  0  0  0  0  0  0  0  0  0  0
   -3.9166    2.3156    0.3627 C   0  0  0  0  0  0  0  0  0  0  0  0
   -4.9180    3.3594    0.0909 C   0  0  0  0  0  0  0  0  0  0  0  0
   -6.2613    3.3801    0.6509 C   0  0  0  0  0  0  0  0  0  0  0  0
   -7.2237    2.3038    0.3533 C   0  0  0  0  0  0  0  0  0  0  0  0
   -2.3444   -0.4086   -1.1051 C   0  0  0  0  0  0  0  0  0  0  0  0
   -2.2765   -1.7523   -1.2831 C   0  0  0  0  0  0  0  0  0  0  0  0
   -1.1261   -2.3414   -1.7926 C   0  0  0  0  0  0  0  0  0  0  0  0
   -0.0684   -1.5222   -2.1070 C   0  0  0  0  0  0  0  0  0  0  0  0
    1.1728   -2.1738   -2.6633 C   0  0  0  0  0  0  0  0  0  0  0  0
    2.0099   -2.5027   -1.5222 N   0  0  0  0  0  0  0  0  0  0  0  0
    1.9868   -3.6913   -0.7537 C   0  0  0  0  0  0  0  0  0  0  0  0
    1.2361   -4.6859   -0.9151 O   0  0  0  0  0  0  0  0  0  0  0  0
    2.9846   -3.6110    0.2906 C   0  0  0  0  0  0  0  0  0  0  0  0
    3.2197   -4.5089    1.1484 O   0  0  0  0  0  0  0  0  0  0  0  0
    3.6263   -2.3107    0.1279 C   0  0  0  0  0  0  0  0  0  0  0  0
    4.6467   -1.7164    0.8578 C   0  0  0  0  0  0  0  0  0  0  0  0
    5.0717   -0.4578    0.4893 C   0  0  0  0  0  0  0  0  0  0  0  0
    6.3456    0.3736    1.3512 S   0  0  0  0  0  6  0  0  0  0  0  0
    6.0515    1.8309    1.2907 O   0  0  0  0  0  0  0  0  0  0  0  0
    6.3347   -0.0609    2.7978 O   0  0  0  0  0  0  0  0  0  0  0  0
    7.8357    0.0376    0.5958 N   0  0  0  0  0  0  0  0  0  0  0  0
    8.1825   -1.3511    0.6029 C   0  0  0  0  0  0  0  0  0  0  0  0
    9.6200   -1.4960    0.9813 C   0  0  0  0  0  0  0  0  0  0  0  0
   10.1583   -0.0937    0.8885 C   0  0  0  0  0  0  0  0  0  0  0  0
    8.9437    0.7539    1.1944 C   0  0  1  0  0  0  0  0  0  0  0  0
    9.0783    2.1391    0.5966 C   0  0  0  0  0  0  0  0  0  0  0  0
    9.3074    2.0204   -0.7703 O   0  0  0  0  0  0  0  0  0  0  0  0
    9.4376    3.2562   -1.3849 C   0  0  0  0  0  0  0  0  0  0  0  0
    4.4823    0.1770   -0.5845 C   0  0  0  0  0  0  0  0  0  0  0  0
    3.4706   -0.4134   -1.3080 C   0  0  0  0  0  0  0  0  0  0  0  0
    3.0332   -1.6796   -0.9461 C   0  0  0  0  0  0  0  0  0  0  0  0
   -0.1499   -0.1587   -1.9208 C   0  0  0  0  0  0  0  0  0  0  0  0
   -1.3249    0.4122   -1.4040 C   0  0  0  0  0  0  0  0  0  0  0  0
   -8.3623    0.4800   -1.8439 H   0  0  0  0  0  0  0  0  0  0  0  0
   -9.3622   -0.9570   -1.5095 H   0  0  0  0  0  0  0  0  0  0  0  0
   -8.4569   -0.2827   -0.1614 H   0  0  0  0  0  0  0  0  0  0  0  0
   -6.9863   -1.9388   -0.6743 H   0  0  0  0  0  0  0  0  0  0  0  0
   -7.7585   -2.2413   -2.2250 H   0  0  0  0  0  0  0  0  0  0  0  0
   -6.7315   -0.5970   -3.4097 H   0  0  0  0  0  0  0  0  0  0  0  0
   -5.5348   -1.6857   -2.7022 H   0  0  0  0  0  0  0  0  0  0  0  0
   -4.8795    0.6535   -2.9629 H   0  0  0  0  0  0  0  0  0  0  0  0
   -6.2174    1.2329   -2.0040 H   0  0  0  0  0  0  0  0  0  0  0  0
   -5.7163   -1.5509    1.0223 H   0  0  0  0  0  0  0  0  0  0  0  0
   -4.0076   -1.9030    1.1539 H   0  0  0  0  0  0  0  0  0  0  0  0
   -3.6286   -0.3123    2.9139 H   0  0  0  0  0  0  0  0  0  0  0  0
   -4.8967   -1.5062    3.2354 H   0  0  0  0  0  0  0  0  0  0  0  0
   -5.5471    0.6638    4.1473 H   0  0  0  0  0  0  0  0  0  0  0  0
   -5.5461    1.3609    2.4477 H   0  0  0  0  0  0  0  0  0  0  0  0
   -7.7002    0.8561    2.9294 H   0  0  0  0  0  0  0  0  0  0  0  0
   -7.3264   -0.8305    3.6068 H   0  0  0  0  0  0  0  0  0  0  0  0
   -7.2217   -0.4861    1.8589 H   0  0  0  0  0  0  0  0  0  0  0  0
   -2.8797    2.6943   -0.0188 H   0  0  0  0  0  0  0  0  0  0  0  0
   -3.7119    2.2840    1.4718 H   0  0  0  0  0  0  0  0  0  0  0  0
   -5.0539    3.4048   -1.0578 H   0  0  0  0  0  0  0  0  0  0  0  0
   -4.4650    4.4055    0.2959 H   0  0  0  0  0  0  0  0  0  0  0  0
   -6.2646    3.5343    1.7798 H   0  0  0  0  0  0  0  0  0  0  0  0
   -6.7435    4.3586    0.3003 H   0  0  0  0  0  0  0  0  0  0  0  0
   -7.6816    2.5036   -0.6627 H   0  0  0  0  0  0  0  0  0  0  0  0
   -8.0826    2.3648    1.0773 H   0  0  0  0  0  0  0  0  0  0  0  0
   -6.7652    1.3194    0.3771 H   0  0  0  0  0  0  0  0  0  0  0  0
   -3.0923   -2.4427   -1.0481 H   0  0  0  0  0  0  0  0  0  0  0  0
   -1.0748   -3.4075   -1.9326 H   0  0  0  0  0  0  0  0  0  0  0  0
    1.6681   -1.4048   -3.2926 H   0  0  0  0  0  0  0  0  0  0  0  0
    0.8425   -3.0660   -3.2214 H   0  0  0  0  0  0  0  0  0  0  0  0
    5.0835   -2.2403    1.6859 H   0  0  0  0  0  0  0  0  0  0  0  0
    8.0379   -1.7534   -0.4274 H   0  0  0  0  0  0  0  0  0  0  0  0
    7.5401   -1.9420    1.3220 H   0  0  0  0  0  0  0  0  0  0  0  0
   10.1354   -2.1915    0.2674 H   0  0  0  0  0  0  0  0  0  0  0  0
    9.7605   -1.9040    2.0077 H   0  0  0  0  0  0  0  0  0  0  0  0
   11.0013    0.0744    1.5873 H   0  0  0  0  0  0  0  0  0  0  0  0
   10.4678    0.0849   -0.1777 H   0  0  0  0  0  0  0  0  0  0  0  0
    8.7945    0.7622    2.2784 H   0  0  0  0  0  0  0  0  0  0  0  0
    8.1482    2.7126    0.7903 H   0  0  0  0  0  0  0  0  0  0  0  0
    9.8904    2.6880    1.0990 H   0  0  0  0  0  0  0  0  0  0  0  0
   10.2701    3.8604   -0.9885 H   0  0  0  0  0  0  0  0  0  0  0  0
    9.6423    3.0801   -2.4638 H   0  0  0  0  0  0  0  0  0  0  0  0
    8.4576    3.8212   -1.3366 H   0  0  0  0  0  0  0  0  0  0  0  0
    4.7995    1.1667   -0.8955 H   0  0  0  0  0  0  0  0  0  0  0  0
    3.0239    0.0942   -2.1470 H   0  0  0  0  0  0  0  0  0  0  0  0
    0.6810    0.4607   -2.1722 H   0  0  0  0  0  0  0  0  0  0  0  0
   -1.3956    1.4874   -1.2547 H   0  0  0  0  0  0  0  0  0  0  0  0
  1  2  1  0
  2  3  1  0
  3  4  1  0
  4  5  1  0
  5  6  1  0
  6  7  1  0
  7  8  1  0
  8  9  1  0
  5 10  1  0
 10 11  1  0
 11 12  1  0
 12 13  1  0
  5 14  1  0
 14 15  2  0
 15 16  1  0
 16 17  2  0
 17 18  1  0
 18 19  1  0
 19 20  1  0
 20 21  2  0
 20 22  1  0
 22 23  2  0
 22 24  1  0
 24 25  2  0
 25 26  1  0
 26 27  1  0
 27 28  2  0
 27 29  2  0
 27 30  1  0
 30 31  1  0
 31 32  1  0
 32 33  1  0
 33 34  1  0
 34 35  1  0
 35 36  1  0
 36 37  1  0
 26 38  2  0
 38 39  1  0
 39 40  2  0
 17 41  1  0
 41 42  2  0
 42 14  1  0
 40 19  1  0
 40 24  1  0
 34 30  1  0
  1 43  1  0
  1 44  1  0
  1 45  1  0
  2 46  1  0
  2 47  1  0
  3 48  1  0
  3 49  1  0
  4 50  1  0
  4 51  1  0
  6 52  1  0
  6 53  1  0
  7 54  1  0
  7 55  1  0
  8 56  1  0
  8 57  1  0
  9 58  1  0
  9 59  1  0
  9 60  1  0
 10 61  1  0
 10 62  1  0
 11 63  1  0
 11 64  1  0
 12 65  1  0
 12 66  1  0
 13 67  1  0
 13 68  1  0
 13 69  1  0
 15 70  1  0
 16 71  1  0
 18 72  1  0
 18 73  1  0
 25 74  1  0
 31 75  1  0
 31 76  1  0
 32 77  1  0
 32 78  1  0
 33 79  1  0
 33 80  1  0
 34 81  1  1
 35 82  1  0
 35 83  1  0
 37 84  1  0
 37 85  1  0
 37 86  1  0
 38 87  1  0
 39 88  1  0
 41 89  1  0
 42 90  1  0
M  END
$$$$
