@<TRIPOS>MOLECULE
*****
 46 49 0 0 0
SMALL
GASTEIGER

@<TRIPOS>ATOM
      1 O           9.3334   -1.0838   -2.2676 O.2     1  UNL1        0.0414
      2 N           8.8932   -1.1122   -1.1045 N.pl3   1  UNL1        0.0796
      3 O           9.6768   -1.6746   -0.1301 O.co2   1  UNL1       -0.5760
      4 C           7.6106   -0.5694   -0.8233 C.ar    1  UNL1        0.2732
      5 C           6.8123   -0.0028   -1.7843 C.ar    1  UNL1        0.0159
      6 C           5.5611    0.5219   -1.4858 C.ar    1  UNL1       -0.0514
      7 C           5.0743    0.4908   -0.2011 C.ar    1  UNL1       -0.0368
      8 C           3.7495    1.0377    0.1576 C.3     1  UNL1        0.0249
      9 S           2.4799   -0.2707   -0.0024 S.3     1  UNL1       -0.0990
     10 C           0.8812    0.3887    0.4305 C.ar    1  UNL1        0.1279
     11 N           0.7082    1.6640    0.8084 N.ar    1  UNL1       -0.2269
     12 C          -0.5174    2.1177    1.1260 C.ar    1  UNL1        0.1196
     13 N          -1.6078    1.3331    1.0818 N.ar    1  UNL1       -0.2160
     14 C          -1.4904    0.0338    0.7061 C.ar    1  UNL1        0.1666
     15 C          -0.2228   -0.4317    0.3786 C.ar    1  UNL1        0.1397
     16 N          -0.4008   -1.7341    0.0485 N.ar    1  UNL1       -0.2313
     17 C          -1.7093   -2.0218    0.1752 C.ar    1  UNL1        0.1004
     18 N          -2.3790   -0.9535    0.5744 N.ar    1  UNL1       -0.2855
     19 C1*        -3.7900   -0.8816    0.8162 C.3     1  UNL1        0.1667
     20 O4*        -4.5254   -1.4599   -0.1785 O.3     1  UNL1       -0.3457
     21 C4*        -5.6615   -0.7362   -0.4022 C.3     1  UNL1        0.1126
     22 C5*        -5.5778   -0.1783   -1.8231 C.3     1  UNL1        0.0730
     23 O5*        -6.6801    0.5739   -2.1578 O.3     1  UNL1       -0.3924
     24 C3*        -5.7507    0.3641    0.6060 C.3     1  UNL1        0.1135
     25 O3*        -6.3476   -0.1508    1.7608 O.3     1  UNL1       -0.3864
     26 C2*        -4.2703    0.5588    0.9627 C.3     1  UNL1        0.1285
     27 O2*        -4.1057    1.0053    2.2524 O.3     1  UNL1       -0.3847
     28 C           5.8811   -0.0817    0.7696 C.ar    1  UNL1       -0.0514
     29 C           7.1282   -0.6056    0.4764 C.ar    1  UNL1        0.0159
     30 H           7.1865    0.0249   -2.7906 H       1  UNL1        0.0685
     31 H           4.9387    0.9688   -2.2607 H       1  UNL1        0.0623
     32 H           3.7343    1.4439    1.1834 H       1  UNL1        0.0429
     33 H           3.4920    1.8020   -0.5944 H       1  UNL1        0.0429
     34 H          -0.5918    3.1624    1.4250 H       1  UNL1        0.1048
     35 H          -2.1155   -3.0123   -0.0332 H       1  UNL1        0.1030
     36 H1*        -4.0791   -1.3822    1.7804 H       1  UNL1        0.0866
     37 H4*        -6.5653   -1.3655   -0.3267 H       1  UNL1        0.0647
     38 H5*1       -4.6339    0.3775   -1.8839 H       1  UNL1        0.0584
     39 H5*2       -5.5388   -1.0735   -2.5002 H       1  UNL1        0.0584
     40 H5*        -7.3002    0.7339   -1.4088 H       1  UNL1        0.2095
     41 H3*        -6.2154    1.2830    0.2490 H       1  UNL1        0.0647
     42 H3*        -6.3764   -1.1564    1.7397 H       1  UNL1        0.2100
     43 H2*        -3.8178    1.2165    0.2063 H       1  UNL1        0.0665
     44 H2*        -4.1340    2.0000    2.2516 H       1  UNL1        0.2101
     45 H           5.5031   -0.1074    1.7746 H       1  UNL1        0.0623
     46 H           7.7605   -1.0565    1.2483 H       1  UNL1        0.0685
@<TRIPOS>UNITY_ATOM_ATTR
2 1
charge 1
3 1
charge -1
@<TRIPOS>BOND
     1     1     2    2
     2     2     3    1
     3     2     4    1
     4     4     5   ar
     5     5     6   ar
     6     6     7   ar
     7     7     8    1
     8     8     9    1
     9     9    10    1
    10    10    11   ar
    11    11    12   ar
    12    12    13   ar
    13    13    14   ar
    14    14    15   ar
    15    15    16   ar
    16    16    17   ar
    17    17    18   ar
    18    18    19    1
    19    19    20    1
    20    20    21    1
    21    21    22    1
    22    22    23    1
    23    21    24    1
    24    24    25    1
    25    24    26    1
    26    26    27    1
    27     7    28   ar
    28    28    29   ar
    29    29     4   ar
    30    15    10   ar
    31    26    19    1
    32    18    14   ar
    33     5    30    1
    34     6    31    1
    35     8    32    1
    36     8    33    1
    37    12    34    1
    38    17    35    1
    39    19    36    1
    40    21    37    1
    41    22    38    1
    42    22    39    1
    43    23    40    1
    44    24    41    1
    45    25    42    1
    46    26    43    1
    47    27    44    1
    48    28    45    1
    49    29    46    1
