
     RDKit          3D

 46 49  0  0  0  0  0  0  0  0999 V2000
    9.3334   -1.0838   -2.2676 O   0  0  0  0  0  0  0  0  0  0  0  0
    8.8932   -1.1122   -1.1045 N   0  0  0  0  0  4  0  0  0  0  0  0
    9.6768   -1.6746   -0.1301 O   0  0  0  0  0  1  0  0  0  0  0  0
    7.6106   -0.5694   -0.8233 C   0  0  0  0  0  0  0  0  0  0  0  0
    6.8123   -0.0028   -1.7843 C   0  0  0  0  0  0  0  0  0  0  0  0
    5.5611    0.5219   -1.4858 C   0  0  0  0  0  0  0  0  0  0  0  0
    5.0743    0.4908   -0.2011 C   0  0  0  0  0  0  0  0  0  0  0  0
    3.7495    1.0377    0.1576 C   0  0  0  0  0  0  0  0  0  0  0  0
    2.4799   -0.2707   -0.0024 S   0  0  0  0  0  0  0  0  0  0  0  0
    0.8812    0.3887    0.4305 C   0  0  0  0  0  0  0  0  0  0  0  0
    0.7082    1.6640    0.8084 N   0  0  0  0  0  0  0  0  0  0  0  0
   -0.5174    2.1177    1.1260 C   0  0  0  0  0  0  0  0  0  0  0  0
   -1.6078    1.3331    1.0818 N   0  0  0  0  0  0  0  0  0  0  0  0
   -1.4904    0.0338    0.7061 C   0  0  0  0  0  0  0  0  0  0  0  0
   -0.2228   -0.4317    0.3786 C   0  0  0  0  0  0  0  0  0  0  0  0
   -0.4008   -1.7341    0.0485 N   0  0  0  0  0  0  0  0  0  0  0  0
   -1.7093   -2.0218    0.1752 C   0  0  0  0  0  0  0  0  0  0  0  0
   -2.3790   -0.9535    0.5744 N   0  0  0  0  0  0  0  0  0  0  0  0
   -3.7900   -0.8816    0.8162 C   0  0  2  0  0  0  0  0  0  0  0  0
   -4.5254   -1.4599   -0.1785 O   0  0  0  0  0  0  0  0  0  0  0  0
   -5.6615   -0.7362   -0.4022 C   0  0  2  0  0  0  0  0  0  0  0  0
   -5.5778   -0.1783   -1.8231 C   0  0  0  0  0  0  0  0  0  0  0  0
   -6.6801    0.5739   -2.1578 O   0  0  0  0  0  0  0  0  0  0  0  0
   -5.7507    0.3641    0.6060 C   0  0  1  0  0  0  0  0  0  0  0  0
   -6.3476   -0.1508    1.7608 O   0  0  0  0  0  0  0  0  0  0  0  0
   -4.2703    0.5588    0.9627 C   0  0  1  0  0  0  0  0  0  0  0  0
   -4.1057    1.0053    2.2524 O   0  0  0  0  0  0  0  0  0  0  0  0
    5.8811   -0.0817    0.7696 C   0  0  0  0  0  0  0  0  0  0  0  0
    7.1282   -0.6056    0.4764 C   0  0  0  0  0  0  0  0  0  0  0  0
    7.1865    0.0249   -2.7906 H   0  0  0  0  0  0  0  0  0  0  0  0
    4.9387    0.9688   -2.2607 H   0  0  0  0  0  0  0  0  0  0  0  0
    3.7343    1.4439    1.1834 H   0  0  0  0  0  0  0  0  0  0  0  0
    3.4920    1.8020   -0.5944 H   0  0  0  0  0  0  0  0  0  0  0  0
   -0.5918    3.1624    1.4250 H   0  0  0  0  0  0  0  0  0  0  0  0
   -2.1155   -3.0123   -0.0332 H   0  0  0  0  0  0  0  0  0  0  0  0
   -4.0791   -1.3822    1.7804 H   0  0  0  0  0  0  0  0  0  0  0  0
   -6.5653   -1.3655   -0.3267 H   0  0  0  0  0  0  0  0  0  0  0  0
   -4.6339    0.3775   -1.8839 H   0  0  0  0  0  0  0  0  0  0  0  0
   -5.5388   -1.0735   -2.5002 H   0  0  0  0  0  0  0  0  0  0  0  0
   -7.3002    0.7339   -1.4088 H   0  0  0  0  0  0  0  0  0  0  0  0
   -6.2154    1.2830    0.2490 H   0  0  0  0  0  0  0  0  0  0  0  0
   -6.3764   -1.1564    1.7397 H   0  0  0  0  0  0  0  0  0  0  0  0
   -3.8178    1.2165    0.2063 H   0  0  0  0  0  0  0  0  0  0  0  0
   -4.1340    2.0000    2.2516 H   0  0  0  0  0  0  0  0  0  0  0  0
    5.5031   -0.1074    1.7746 H   0  0  0  0  0  0  0  0  0  0  0  0
    7.7605   -1.0565    1.2483 H   0  0  0  0  0  0  0  0  0  0  0  0
  1  2  2  0
  2  3  1  0
  2  4  1  0
  4  5  2  0
  5  6  1  0
  6  7  2  0
  7  8  1  0
  8  9  1  0
  9 10  1  0
 10 11  2  0
 11 12  1  0
 12 13  2  0
 13 14  1  0
 14 15  2  0
 15 16  1  0
 16 17  2  0
 17 18  1  0
 18 19  1  0
 19 20  1  0
 20 21  1  0
 21 22  1  0
 22 23  1  0
 21 24  1  0
 24 25  1  0
 24 26  1  0
 26 27  1  0
  7 28  1  0
 28 29  2  0
 29  4  1  0
 15 10  1  0
 26 19  1  0
 18 14  1  0
  5 30  1  0
  6 31  1  0
  8 32  1  0
  8 33  1  0
 12 34  1  0
 17 35  1  0
 19 36  1  1
 21 37  1  6
 22 38  1  0
 22 39  1  0
 23 40  1  0
 24 41  1  6
 25 42  1  0
 26 43  1  6
 27 44  1  0
 28 45  1  0
 29 46  1  0
M  CHG  2   2   1   3  -1
M  END
$$$$
