@<TRIPOS>MOLECULE
*****
 43 45 0 0 0
SMALL
GASTEIGER

@<TRIPOS>ATOM
      1 C          -4.8613    0.0729    0.3235 C.3     1  UNL1       -0.0384
      2 C          -3.4649    0.5213    0.7278 C.3     1  UNL1        0.1079
      3 N          -2.5081   -0.4817    0.7703 N.3     1  UNL1       -0.2912
      4 CA         -2.3548   -1.4515   -0.2212 C.3     1  UNL1        0.1103
      5 C          -1.4306   -1.1189   -1.3494 C.3     1  UNL1       -0.0017
      6 C          -0.0204   -0.8506   -0.9369 C.ar    1  UNL1       -0.0418
      7 C           0.9147   -1.8680   -0.8572 C.ar    1  UNL1       -0.0577
      8 C           2.2418   -1.6430   -0.4786 C.ar    1  UNL1       -0.0501
      9 C           2.6593   -0.3730   -0.1693 C.ar    1  UNL1        0.0279
     10 C           1.7631    0.6596   -0.2373 C.ar    1  UNL1        0.1365
     11 C           0.4398    0.4075   -0.6192 C.ar    1  UNL1       -0.0155
     12 O           2.3850    1.7638    0.0984 O.2     1  UNL1       -0.4548
     13 C           3.6366    1.5342    0.3855 C.ar    1  UNL1        0.1362
     14 C           4.7112    2.3073    0.7858 C.ar    1  UNL1       -0.0187
     15 C           5.9344    1.7223    1.0092 C.ar    1  UNL1       -0.0582
     16 C           6.1287    0.3673    0.8447 C.ar    1  UNL1       -0.0610
     17 C           5.0876   -0.4154    0.4516 C.ar    1  UNL1       -0.0504
     18 C           3.8587    0.1832    0.2289 C.ar    1  UNL1        0.0279
     19 C          -1.8623   -2.7313    0.4167 C.2     1  UNL1        0.3223
     20 O          -1.7213   -3.7903   -0.2437 O.2     1  UNL1       -0.2492
     21 OXT        -1.5484   -2.7715    1.7666 O.3     1  UNL1       -0.4795
     22 P          -3.1147    2.1094    0.0011 P.3     1  UNL1        0.3442
     23 O          -4.3571    3.0010    0.2129 O.2     1  UNL1       -0.2572
     24 O          -2.8151    2.0967   -1.6368 O.3     1  UNL1       -0.3230
     25 O          -1.8088    2.7909    0.8574 O.3     1  UNL1       -0.3230
     26 H          -5.2003   -0.7991    0.9135 H       1  UNL1        0.0251
     27 H          -5.5396    0.9142    0.5784 H       1  UNL1        0.0251
     28 H          -4.9502   -0.0785   -0.7714 H       1  UNL1        0.0251
     29 H          -3.6586    0.7857    1.8654 H       1  UNL1        0.0584
     30 H          -2.0377   -0.6590    1.6755 H       1  UNL1        0.1235
     31 HA         -3.3526   -1.7883   -0.6604 H       1  UNL1        0.0579
     32 H          -1.8500   -0.3301   -1.9796 H       1  UNL1        0.0334
     33 H          -1.4189   -2.0285   -2.0519 H       1  UNL1        0.0334
     34 H           0.6169   -2.8571   -1.1024 H       1  UNL1        0.0621
     35 H           2.9663   -2.4421   -0.4182 H       1  UNL1        0.0625
     36 H          -0.2478    1.2155   -0.6817 H       1  UNL1        0.0657
     37 H           4.5740    3.3611    0.9173 H       1  UNL1        0.0654
     38 H           6.8005    2.3026    1.3250 H       1  UNL1        0.0619
     39 H           7.0933   -0.1111    1.0183 H       1  UNL1        0.0618
     40 H           5.1702   -1.4841    0.3037 H       1  UNL1        0.0625
     41 HXT        -1.0443   -3.5609    2.1634 H       1  UNL1        0.2951
     42 H          -3.6649    2.0117   -2.1438 H       1  UNL1        0.2198
     43 H          -2.1491    3.5056    1.4344 H       1  UNL1        0.2198
@<TRIPOS>BOND
     1     1     2    1
     2     2     3    1
     3     3     4    1
     4     4     5    1
     5     5     6    1
     6     6     7   ar
     7     7     8   ar
     8     8     9   ar
     9     9    10   ar
    10    10    11   ar
    11    10    12   ar
    12    12    13   ar
    13    13    14   ar
    14    14    15   ar
    15    15    16   ar
    16    16    17   ar
    17    17    18   ar
    18     4    19    1
    19    19    20    2
    20    19    21    1
    21     2    22    1
    22    22    23    2
    23    22    24    1
    24    22    25    1
    25    11     6   ar
    26    18    13   ar
    27    18     9   ar
    28     1    26    1
    29     1    27    1
    30     1    28    1
    31     2    29    1
    32     3    30    1
    33     4    31    1
    34     5    32    1
    35     5    33    1
    36     7    34    1
    37     8    35    1
    38    11    36    1
    39    14    37    1
    40    15    38    1
    41    16    39    1
    42    17    40    1
    43    21    41    1
    44    24    42    1
    45    25    43    1
