@<TRIPOS>MOLECULE
*****
 61 64 0 0 0
SMALL
GASTEIGER

@<TRIPOS>ATOM
      1 C           6.5038    1.8927   -0.1500 C.3     1  UNL1       -0.0372
      2 C           5.2139    1.1551   -0.2017 C.3     1  UNL1        0.0716
      3 C           4.7426    0.6370    1.1663 C.3     1  UNL1        0.0409
      4 N           3.3071    0.7154    1.0972 N.pl3   1  UNL1       -0.2967
      5 C           2.4384   -0.3669    0.9387 C.ar    1  UNL1        0.1931
      6 C           2.8925   -1.6697    0.8816 C.ar    1  UNL1        0.0434
      7 C           2.0544   -2.7533    0.7197 C.ar    1  UNL1        0.1944
      8 O           2.5134   -3.8978    0.6766 O.2     1  UNL1       -0.2870
      9 C           0.7104   -2.4573    0.6142 C.ar    1  UNL1        0.0651
     10 C          -0.2018   -3.4739    0.4415 C.ar    1  UNL1       -0.0352
     11 C          -1.5688   -3.2198    0.3263 C.ar    1  UNL1        0.0381
     12 C          -2.4698   -4.3587    0.1714 C.2     1  UNL1        0.2462
     13 O          -2.1692   -5.3549    0.9315 O.2     1  UNL1       -0.2700
     14 N          -3.5708   -4.4418   -0.6861 N.am    1  UNL1       -0.3036
     15 C          -3.9573   -3.3699   -1.5621 C.3     1  UNL1        0.0031
     16 C          -4.3541   -5.6877   -0.6744 C.3     1  UNL1        0.0031
     17 C          -1.9452   -1.9230    0.3907 C.ar    1  UNL1       -0.0411
     18 C          -1.0803   -0.8514    0.5627 C.ar    1  UNL1        0.0161
     19 C          -1.6102    0.5729    0.6626 C.3     1  UNL1        0.0466
     20 C          -2.8645    0.5504    1.4314 C.3     1  UNL1       -0.0424
     21 N          -1.4930    1.2600   -0.5315 N.pl3   1  UNL1       -0.3370
     22 C          -2.0103    2.5035   -0.9030 C.ar    1  UNL1        0.0330
     23 C          -2.8556    3.2548   -0.1258 C.ar    1  UNL1       -0.0054
     24 C          -3.3030    4.4997   -0.5461 C.ar    1  UNL1        0.1279
     25 F          -4.1548    5.1984    0.2735 F       1  UNL1       -0.2053
     26 C          -2.9333    5.0517   -1.7557 C.ar    1  UNL1        0.0089
     27 C          -2.0859    4.3125   -2.5482 C.ar    1  UNL1        0.1279
     28 F          -1.7083    4.8592   -3.7480 F       1  UNL1       -0.2053
     29 C          -1.6359    3.0839   -2.1454 C.ar    1  UNL1       -0.0054
     30 C           0.2671   -1.1316    0.6730 C.ar    1  UNL1        0.1458
     31 O           1.1222   -0.1499    0.8320 O.2     1  UNL1       -0.4407
     32 C           2.7941    2.0911    1.1877 C.3     1  UNL1        0.0384
     33 C           3.7633    2.8819    0.2833 C.3     1  UNL1        0.0638
     34 O           4.2153    2.0262   -0.7019 O.3     1  UNL1       -0.3737
     35 H           7.2544    1.3269   -0.7624 H       1  UNL1        0.0255
     36 H           6.4592    2.9164   -0.5819 H       1  UNL1        0.0255
     37 H           6.9616    1.8856    0.8808 H       1  UNL1        0.0255
     38 H           5.2908    0.3262   -0.9252 H       1  UNL1        0.0609
     39 H           5.1385    1.3526    1.9332 H       1  UNL1        0.0490
     40 H           5.1699   -0.3242    1.3822 H       1  UNL1        0.0490
     41 H           3.9688   -1.7908    0.9777 H       1  UNL1        0.0707
     42 H           0.1698   -4.4697    0.4004 H       1  UNL1        0.0633
     43 H          -4.6849   -2.6757   -1.1112 H       1  UNL1        0.0428
     44 H          -3.0187   -2.8277   -1.8602 H       1  UNL1        0.0428
     45 H          -4.4190   -3.8379   -2.4693 H       1  UNL1        0.0428
     46 H          -4.1671   -6.2582    0.2490 H       1  UNL1        0.0428
     47 H          -4.0043   -6.2774   -1.5454 H       1  UNL1        0.0428
     48 H          -5.4291   -5.4154   -0.7718 H       1  UNL1        0.0428
     49 H          -3.0009   -1.7058    0.2982 H       1  UNL1        0.0629
     50 H          -0.8276    1.0411    1.4042 H       1  UNL1        0.0546
     51 H          -3.8029    0.6488    0.8838 H       1  UNL1        0.0251
     52 H          -2.8593    1.2360    2.3141 H       1  UNL1        0.0251
     53 H          -2.9480   -0.4994    1.9033 H       1  UNL1        0.0251
     54 H          -0.9033    0.7736   -1.3098 H       1  UNL1        0.1467
     55 H          -3.2259    2.9000    0.8491 H       1  UNL1        0.0665
     56 H          -3.3044    6.0261   -2.0578 H       1  UNL1        0.0675
     57 H          -0.9709    2.5402   -2.7926 H       1  UNL1        0.0665
     58 H           2.8967    2.4893    2.2207 H       1  UNL1        0.0487
     59 H           1.7963    2.2007    0.7434 H       1  UNL1        0.0487
     60 H           3.2472    3.7501   -0.1784 H       1  UNL1        0.0575
     61 H           4.6467    3.2295    0.8690 H       1  UNL1        0.0575
@<TRIPOS>BOND
     1     1     2    1
     2     2     3    1
     3     3     4    1
     4     4     5    1
     5     5     6   ar
     6     6     7   ar
     7     7     8    2
     8     7     9   ar
     9     9    10   ar
    10    10    11   ar
    11    11    12    1
    12    12    13    2
    13    12    14   am
    14    14    15    1
    15    14    16    1
    16    11    17   ar
    17    17    18   ar
    18    18    19    1
    19    19    20    1
    20    19    21    1
    21    21    22    1
    22    22    23   ar
    23    23    24   ar
    24    24    25    1
    25    24    26   ar
    26    26    27   ar
    27    27    28    1
    28    27    29   ar
    29    18    30   ar
    30    30    31   ar
    31     4    32    1
    32    32    33    1
    33    33    34    1
    34    34     2    1
    35    31     5   ar
    36    30     9   ar
    37    29    22   ar
    38     1    35    1
    39     1    36    1
    40     1    37    1
    41     2    38    1
    42     3    39    1
    43     3    40    1
    44     6    41    1
    45    10    42    1
    46    15    43    1
    47    15    44    1
    48    15    45    1
    49    16    46    1
    50    16    47    1
    51    16    48    1
    52    17    49    1
    53    19    50    1
    54    20    51    1
    55    20    52    1
    56    20    53    1
    57    21    54    1
    58    23    55    1
    59    26    56    1
    60    29    57    1
    61    32    58    1
    62    32    59    1
    63    33    60    1
    64    33    61    1
