@<TRIPOS>MOLECULE
*****
 65 69 0 0 0
SMALL
GASTEIGER

@<TRIPOS>ATOM
      1 C           9.7746    3.4769    2.2858 C.1     1  UNL1       -0.1158
      2 C          10.0430    2.2759    1.9119 C.1     1  UNL1       -0.0647
      3 C          10.3491    0.9191    1.5049 C.3     1  UNL1        0.1513
      4 O           9.3904    0.9787    0.2936 O.3     1  UNL1       -0.4624
      5 C           8.1651    0.7004    0.3764 C.ar    1  UNL1        0.2344
      6 C           7.4312    0.9892   -0.8680 C.ar    1  UNL1        0.0899
      7 N           6.2017    0.7809   -1.1189 N.ar    1  UNL1       -0.2459
      8 C           5.3475    0.1785   -0.1052 C.ar    1  UNL1        0.1172
      9 C           4.1280   -0.3421   -0.4607 C.2     1  UNL1        0.1507
     10 F           3.4290   -0.8754    0.6974 F       1  UNL1       -0.2032
     11 C           3.4147   -0.3906   -1.5712 C.2     1  UNL1       -0.0171
     12 C           2.1235   -1.1341   -1.4663 C.ar    1  UNL1       -0.0217
     13 C           1.9920   -2.1010   -2.2925 C.ar    1  UNL1       -0.0518
     14 C           0.8881   -2.9899   -2.5426 C.ar    1  UNL1       -0.0255
     15 C          -0.1432   -2.5251   -1.5476 C.ar    1  UNL1        0.1289
     16 F          -1.1441   -3.5276   -1.6092 F       1  UNL1       -0.2051
     17 C          -0.0833   -1.5786   -0.7348 C.ar    1  UNL1        0.0158
     18 C          -1.2159   -1.1794    0.2167 C.3     1  UNL1        0.0935
     19 C          -1.0420   -2.1840    1.4054 C.3     1  UNL1       -0.0351
     20 N          -0.8958    0.0697    0.8489 N.2     1  UNL1       -0.2521
     21 C          -1.2730    1.2028    0.4103 C.2     1  UNL1        0.1485
     22 N          -1.0515    2.4878    0.9680 N.pl3   1  UNL1       -0.3380
     23 S          -2.2856    1.1648   -1.1308 S.3     1  UNL1       -0.0746
     24 C          -3.1946   -0.3390   -1.0746 C.3     1  UNL1        0.1054
     25 C          -4.7206   -0.2483   -1.3895 C.2     1  UNL1        0.2328
     26 O          -5.2501   -0.5456   -2.2966 O.2     1  UNL1       -0.2740
     27 N          -5.3849    0.3475   -0.1830 N.am    1  UNL1       -0.2932
     28 C          -4.7244    0.7132    0.9776 C.3     1  UNL1        0.0385
     29 C          -5.8814    0.8067    2.0331 C.3     1  UNL1        0.0635
     30 O          -6.6917    1.8399    1.7042 O.3     1  UNL1       -0.3764
     31 C          -7.1489    1.8710    0.3799 C.3     1  UNL1        0.0660
     32 C          -6.8123    0.4954   -0.3370 C.3     1  UNL1        0.0466
     33 C          -7.3206    0.5970   -1.7313 C.3     1  UNL1       -0.0443
     34 C          -2.6846   -1.5842   -1.8067 C.3     1  UNL1       -0.0220
     35 C          -2.5491   -1.3835   -0.3324 C.3     1  UNL1        0.0134
     36 C           1.0985   -0.7516   -0.5965 C.ar    1  UNL1       -0.0463
     37 C           6.0858   -0.0459    1.0197 C.ar    1  UNL1        0.0596
     38 N           7.3107    0.1482    1.3166 N.ar    1  UNL1       -0.2178
     39 H           9.5422    4.5094    2.6277 H       1  UNL1        0.1229
     40 H           9.8753    0.1631    2.1465 H       1  UNL1        0.0837
     41 H          11.2392    0.6967    0.9696 H       1  UNL1        0.0837
     42 H           8.0984    1.4783   -1.5951 H       1  UNL1        0.0884
     43 H           3.7848    0.1069   -2.4085 H       1  UNL1        0.0653
     44 H           2.8969   -2.4058   -2.9503 H       1  UNL1        0.0624
     45 H           0.8035   -3.7029   -3.1567 H       1  UNL1        0.0646
     46 H          -0.3701   -1.7485    2.2082 H       1  UNL1        0.0256
     47 H          -0.4949   -3.0774    1.0821 H       1  UNL1        0.0256
     48 H          -2.0039   -2.4899    1.8138 H       1  UNL1        0.0256
     49 H          -0.7880    3.2561    0.2675 H       1  UNL1        0.1442
     50 H          -1.1446    2.6748    1.9683 H       1  UNL1        0.1442
     51 H          -4.0600   -0.0381    1.4834 H       1  UNL1        0.0487
     52 H          -4.1976    1.6921    1.0699 H       1  UNL1        0.0487
     53 H          -5.4543    0.8822    3.0192 H       1  UNL1        0.0575
     54 H          -6.4108   -0.1897    2.0428 H       1  UNL1        0.0575
     55 H          -8.2620    2.0138    0.3703 H       1  UNL1        0.0578
     56 H          -6.6877    2.7075   -0.1656 H       1  UNL1        0.0578
     57 H          -7.3496   -0.2534    0.2507 H       1  UNL1        0.0520
     58 H          -6.7032    1.1457   -2.4153 H       1  UNL1        0.0248
     59 H          -8.3641    1.1066   -1.7064 H       1  UNL1        0.0248
     60 H          -7.6076   -0.4326   -2.1020 H       1  UNL1        0.0248
     61 H          -3.4324   -2.3926   -2.1181 H       1  UNL1        0.0287
     62 H          -1.9535   -1.3605   -2.5874 H       1  UNL1        0.0287
     63 H          -3.2001   -2.1253    0.2293 H       1  UNL1        0.0346
     64 H           1.1536    0.0104    0.0531 H       1  UNL1        0.0628
     65 H           5.4154   -0.5444    1.8232 H       1  UNL1        0.0853
@<TRIPOS>BOND
     1     1     2    3
     2     2     3    1
     3     3     4    1
     4     4     5    1
     5     5     6   ar
     6     6     7   ar
     7     7     8   ar
     8     8     9    1
     9     9    10    1
    10     9    11    2
    11    11    12    1
    12    12    13   ar
    13    13    14   ar
    14    14    15   ar
    15    15    16    1
    16    15    17   ar
    17    17    18    1
    18    18    19    1
    19    18    20    1
    20    20    21    2
    21    21    22    1
    22    21    23    1
    23    23    24    1
    24    24    25    1
    25    25    26    2
    26    25    27   am
    27    27    28    1
    28    28    29    1
    29    29    30    1
    30    30    31    1
    31    31    32    1
    32    32    33    1
    33    24    34    1
    34    34    35    1
    35    17    36   ar
    36     8    37   ar
    37    37    38   ar
    38    38     5   ar
    39    36    12   ar
    40    35    18    1
    41    35    24    1
    42    32    27    1
    43     1    39    1
    44     3    40    1
    45     3    41    1
    46     6    42    1
    47    11    43    1
    48    13    44    1
    49    14    45    1
    50    19    46    1
    51    19    47    1
    52    19    48    1
    53    22    49    1
    54    22    50    1
    55    28    51    1
    56    28    52    1
    57    29    53    1
    58    29    54    1
    59    31    55    1
    60    31    56    1
    61    32    57    1
    62    33    58    1
    63    33    59    1
    64    33    60    1
    65    34    61    1
    66    34    62    1
    67    35    63    1
    68    36    64    1
    69    37    65    1
