
     RDKit          3D

 65 69  0  0  0  0  0  0  0  0999 V2000
    9.7746    3.4769    2.2858 C   0  0  0  0  0  0  0  0  0  0  0  0
   10.0430    2.2759    1.9119 C   0  0  0  0  0  0  0  0  0  0  0  0
   10.3491    0.9191    1.5049 C   0  0  0  0  0  0  0  0  0  0  0  0
    9.3904    0.9787    0.2936 O   0  0  0  0  0  0  0  0  0  0  0  0
    8.1651    0.7004    0.3764 C   0  0  0  0  0  0  0  0  0  0  0  0
    7.4312    0.9892   -0.8680 C   0  0  0  0  0  0  0  0  0  0  0  0
    6.2017    0.7809   -1.1189 N   0  0  0  0  0  0  0  0  0  0  0  0
    5.3475    0.1785   -0.1052 C   0  0  0  0  0  0  0  0  0  0  0  0
    4.1280   -0.3421   -0.4607 C   0  0  0  0  0  0  0  0  0  0  0  0
    3.4290   -0.8754    0.6974 F   0  0  0  0  0  0  0  0  0  0  0  0
    3.4147   -0.3906   -1.5712 C   0  0  0  0  0  0  0  0  0  0  0  0
    2.1235   -1.1341   -1.4663 C   0  0  0  0  0  0  0  0  0  0  0  0
    1.9920   -2.1010   -2.2925 C   0  0  0  0  0  0  0  0  0  0  0  0
    0.8881   -2.9899   -2.5426 C   0  0  0  0  0  0  0  0  0  0  0  0
   -0.1432   -2.5251   -1.5476 C   0  0  0  0  0  0  0  0  0  0  0  0
   -1.1441   -3.5276   -1.6092 F   0  0  0  0  0  0  0  0  0  0  0  0
   -0.0833   -1.5786   -0.7348 C   0  0  0  0  0  0  0  0  0  0  0  0
   -1.2159   -1.1794    0.2167 C   0  0  1  0  0  0  0  0  0  0  0  0
   -1.0420   -2.1840    1.4054 C   0  0  0  0  0  0  0  0  0  0  0  0
   -0.8958    0.0697    0.8489 N   0  0  0  0  0  0  0  0  0  0  0  0
   -1.2730    1.2028    0.4103 C   0  0  0  0  0  0  0  0  0  0  0  0
   -1.0515    2.4878    0.9680 N   0  0  0  0  0  0  0  0  0  0  0  0
   -2.2856    1.1648   -1.1308 S   0  0  0  0  0  0  0  0  0  0  0  0
   -3.1946   -0.3390   -1.0746 C   0  0  1  0  0  0  0  0  0  0  0  0
   -4.7206   -0.2483   -1.3895 C   0  0  0  0  0  0  0  0  0  0  0  0
   -5.2501   -0.5456   -2.2966 O   0  0  0  0  0  0  0  0  0  0  0  0
   -5.3849    0.3475   -0.1830 N   0  0  0  0  0  0  0  0  0  0  0  0
   -4.7244    0.7132    0.9776 C   0  0  0  0  0  0  0  0  0  0  0  0
   -5.8814    0.8067    2.0331 C   0  0  0  0  0  0  0  0  0  0  0  0
   -6.6917    1.8399    1.7042 O   0  0  0  0  0  0  0  0  0  0  0  0
   -7.1489    1.8710    0.3799 C   0  0  0  0  0  0  0  0  0  0  0  0
   -6.8123    0.4954   -0.3370 C   0  0  1  0  0  0  0  0  0  0  0  0
   -7.3206    0.5970   -1.7313 C   0  0  0  0  0  0  0  0  0  0  0  0
   -2.6846   -1.5842   -1.8067 C   0  0  0  0  0  0  0  0  0  0  0  0
   -2.5491   -1.3835   -0.3324 C   0  0  1  0  0  0  0  0  0  0  0  0
    1.0985   -0.7516   -0.5965 C   0  0  0  0  0  0  0  0  0  0  0  0
    6.0858   -0.0459    1.0197 C   0  0  0  0  0  0  0  0  0  0  0  0
    7.3107    0.1482    1.3166 N   0  0  0  0  0  0  0  0  0  0  0  0
    9.5422    4.5094    2.6277 H   0  0  0  0  0  0  0  0  0  0  0  0
    9.8753    0.1631    2.1465 H   0  0  0  0  0  0  0  0  0  0  0  0
   11.2392    0.6967    0.9696 H   0  0  0  0  0  0  0  0  0  0  0  0
    8.0984    1.4783   -1.5951 H   0  0  0  0  0  0  0  0  0  0  0  0
    3.7848    0.1069   -2.4085 H   0  0  0  0  0  0  0  0  0  0  0  0
    2.8969   -2.4058   -2.9503 H   0  0  0  0  0  0  0  0  0  0  0  0
    0.8035   -3.7029   -3.1567 H   0  0  0  0  0  0  0  0  0  0  0  0
   -0.3701   -1.7485    2.2082 H   0  0  0  0  0  0  0  0  0  0  0  0
   -0.4949   -3.0774    1.0821 H   0  0  0  0  0  0  0  0  0  0  0  0
   -2.0039   -2.4899    1.8138 H   0  0  0  0  0  0  0  0  0  0  0  0
   -0.7880    3.2561    0.2675 H   0  0  0  0  0  0  0  0  0  0  0  0
   -1.1446    2.6748    1.9683 H   0  0  0  0  0  0  0  0  0  0  0  0
   -4.0600   -0.0381    1.4834 H   0  0  0  0  0  0  0  0  0  0  0  0
   -4.1976    1.6921    1.0699 H   0  0  0  0  0  0  0  0  0  0  0  0
   -5.4543    0.8822    3.0192 H   0  0  0  0  0  0  0  0  0  0  0  0
   -6.4108   -0.1897    2.0428 H   0  0  0  0  0  0  0  0  0  0  0  0
   -8.2620    2.0138    0.3703 H   0  0  0  0  0  0  0  0  0  0  0  0
   -6.6877    2.7075   -0.1656 H   0  0  0  0  0  0  0  0  0  0  0  0
   -7.3496   -0.2534    0.2507 H   0  0  0  0  0  0  0  0  0  0  0  0
   -6.7032    1.1457   -2.4153 H   0  0  0  0  0  0  0  0  0  0  0  0
   -8.3641    1.1066   -1.7064 H   0  0  0  0  0  0  0  0  0  0  0  0
   -7.6076   -0.4326   -2.1020 H   0  0  0  0  0  0  0  0  0  0  0  0
   -3.4324   -2.3926   -2.1181 H   0  0  0  0  0  0  0  0  0  0  0  0
   -1.9535   -1.3605   -2.5874 H   0  0  0  0  0  0  0  0  0  0  0  0
   -3.2001   -2.1253    0.2293 H   0  0  0  0  0  0  0  0  0  0  0  0
    1.1536    0.0104    0.0531 H   0  0  0  0  0  0  0  0  0  0  0  0
    5.4154   -0.5444    1.8232 H   0  0  0  0  0  0  0  0  0  0  0  0
  1  2  3  0
  2  3  1  0
  3  4  1  0
  4  5  1  0
  5  6  2  0
  6  7  1  0
  7  8  2  0
  8  9  1  0
  9 10  1  0
  9 11  2  0
 11 12  1  0
 12 13  2  0
 13 14  1  0
 14 15  2  0
 15 16  1  0
 15 17  1  0
 17 18  1  0
 18 19  1  1
 18 20  1  0
 20 21  2  0
 21 22  1  0
 21 23  1  0
 23 24  1  0
 24 25  1  1
 25 26  2  0
 25 27  1  0
 27 28  1  0
 28 29  1  0
 29 30  1  0
 30 31  1  0
 31 32  1  0
 32 33  1  0
 24 34  1  0
 34 35  1  0
 17 36  2  0
  8 37  1  0
 37 38  2  0
 38  5  1  0
 36 12  1  0
 35 18  1  0
 35 24  1  0
 32 27  1  0
  1 39  1  0
  3 40  1  0
  3 41  1  0
  6 42  1  0
 11 43  1  0
 13 44  1  0
 14 45  1  0
 19 46  1  0
 19 47  1  0
 19 48  1  0
 22 49  1  0
 22 50  1  0
 28 51  1  0
 28 52  1  0
 29 53  1  0
 29 54  1  0
 31 55  1  0
 31 56  1  0
 32 57  1  1
 33 58  1  0
 33 59  1  0
 33 60  1  0
 34 61  1  0
 34 62  1  0
 35 63  1  1
 36 64  1  0
 37 65  1  0
M  END
$$$$
