@<TRIPOS>MOLECULE
*****
 63 66 0 0 0
SMALL
GASTEIGER

@<TRIPOS>ATOM
      1 C          -4.7550    6.1214   -0.4371 C.3     1  UNL1        0.0788
      2 O          -4.6972    5.1603   -1.4548 O.3     1  UNL1       -0.4951
      3 C          -4.0244    3.9467   -1.3135 C.ar    1  UNL1        0.1201
      4 C          -3.9844    3.0231   -2.3228 C.ar    1  UNL1       -0.0197
      5 C          -3.3051    1.8273   -2.1466 C.ar    1  UNL1       -0.0545
      6 C          -2.6489    1.5065   -0.9785 C.ar    1  UNL1       -0.0395
      7 C          -1.9242    0.2322   -0.7876 C.3     1  UNL1        0.0122
      8 C          -2.7431   -0.8273   -0.1642 C.ar    1  UNL1       -0.0395
      9 C          -2.8396   -0.9259    1.2096 C.ar    1  UNL1       -0.0545
     10 C          -3.5800   -1.8895    1.8338 C.ar    1  UNL1       -0.0197
     11 C          -4.2660   -2.8102    1.0698 C.ar    1  UNL1        0.1201
     12 O          -5.0085   -3.7758    1.7424 O.3     1  UNL1       -0.4951
     13 C          -5.7204   -4.7298    0.9842 C.3     1  UNL1        0.0788
     14 C          -4.1869   -2.7335   -0.2933 C.ar    1  UNL1       -0.0197
     15 C          -3.4375   -1.7580   -0.9126 C.ar    1  UNL1       -0.0545
     16 C          -0.5853    0.4319   -0.0915 C.3     1  UNL1       -0.0274
     17 C           0.0480   -0.9398    0.0431 C.3     1  UNL1       -0.0333
     18 C           1.3887   -0.7748    0.7286 C.3     1  UNL1        0.0181
     19 N           2.1877    0.2467    0.0911 N.am    1  UNL1       -0.2671
     20 C           3.5812    0.0509    0.0245 C.2     1  UNL1        0.4082
     21 O           4.3171    0.9102   -0.5269 O.2     1  UNL1       -0.2258
     22 O           4.2319   -1.0611    0.5394 O.3     1  UNL1       -0.4114
     23 C           5.6174   -1.2400    0.4595 C.ar    1  UNL1        0.1337
     24 C           6.4889   -0.6985    1.3857 C.ar    1  UNL1       -0.0128
     25 C           7.8633   -0.8949    1.2791 C.ar    1  UNL1        0.0191
     26 C           8.4130   -1.6318    0.2547 C.ar    1  UNL1        0.2734
     27 N           9.8048   -1.8519    0.1177 N.pl3   1  UNL1        0.0796
     28 O          10.2482   -2.5328   -0.8180 O.2     1  UNL1        0.0414
     29 O          10.6688   -1.3150    1.0196 O.co2   1  UNL1       -0.5760
     30 C           7.5418   -2.1712   -0.6681 C.ar    1  UNL1        0.0191
     31 C           6.1872   -1.9732   -0.5566 C.ar    1  UNL1       -0.0128
     32 C           1.6246    1.4429   -0.4765 C.3     1  UNL1        0.0181
     33 C           0.2707    1.2045   -1.0956 C.3     1  UNL1       -0.0333
     34 C          -2.7090    2.4686    0.0295 C.ar    1  UNL1       -0.0545
     35 C          -3.3808    3.6559   -0.1396 C.ar    1  UNL1       -0.0197
     36 H          -5.3509    5.6901    0.4140 H       1  UNL1        0.0660
     37 H          -5.2495    7.0271   -0.8355 H       1  UNL1        0.0660
     38 H          -3.7522    6.3606   -0.0269 H       1  UNL1        0.0660
     39 H          -4.4796    3.2405   -3.2367 H       1  UNL1        0.0654
     40 H          -3.2858    1.1160   -2.9532 H       1  UNL1        0.0622
     41 H          -1.6385   -0.1327   -1.8204 H       1  UNL1        0.0400
     42 H          -2.3114   -0.2133    1.8415 H       1  UNL1        0.0622
     43 H          -3.6121   -1.9119    2.9267 H       1  UNL1        0.0654
     44 H          -6.4050   -5.3041    1.6692 H       1  UNL1        0.0660
     45 H          -5.0048   -5.5021    0.5897 H       1  UNL1        0.0660
     46 H          -6.2738   -4.2260    0.1876 H       1  UNL1        0.0660
     47 H          -4.7264   -3.4575   -0.9009 H       1  UNL1        0.0654
     48 H          -3.3699   -1.6910   -1.9837 H       1  UNL1        0.0622
     49 H          -0.6686    0.9402    0.8715 H       1  UNL1        0.0311
     50 H           0.2205   -1.3154   -0.9869 H       1  UNL1        0.0283
     51 H          -0.5666   -1.6602    0.5852 H       1  UNL1        0.0283
     52 H           1.2694   -0.5402    1.8077 H       1  UNL1        0.0466
     53 H           1.9141   -1.7481    0.6695 H       1  UNL1        0.0466
     54 H           6.0935   -0.1171    2.1989 H       1  UNL1        0.0656
     55 H           8.5547   -0.4752    1.9976 H       1  UNL1        0.0686
     56 H           7.9923   -2.7570   -1.4800 H       1  UNL1        0.0686
     57 H           5.5355   -2.4078   -1.2928 H       1  UNL1        0.0656
     58 H           2.3217    1.8161   -1.2749 H       1  UNL1        0.0466
     59 H           1.5653    2.2628    0.2663 H       1  UNL1        0.0466
     60 H           0.3737    0.5411   -1.9796 H       1  UNL1        0.0283
     61 H          -0.2179    2.1208   -1.4289 H       1  UNL1        0.0283
     62 H          -2.2133    2.2677    0.9605 H       1  UNL1        0.0622
     63 H          -3.4011    4.3823    0.6750 H       1  UNL1        0.0654
@<TRIPOS>UNITY_ATOM_ATTR
27 1
charge 1
29 1
charge -1
@<TRIPOS>BOND
     1     1     2    1
     2     2     3    1
     3     3     4   ar
     4     4     5   ar
     5     5     6   ar
     6     6     7    1
     7     7     8    1
     8     8     9   ar
     9     9    10   ar
    10    10    11   ar
    11    11    12    1
    12    12    13    1
    13    11    14   ar
    14    14    15   ar
    15     7    16    1
    16    16    17    1
    17    17    18    1
    18    18    19    1
    19    19    20   am
    20    20    21    2
    21    20    22    1
    22    22    23    1
    23    23    24   ar
    24    24    25   ar
    25    25    26   ar
    26    26    27    1
    27    27    28    2
    28    27    29    1
    29    26    30   ar
    30    30    31   ar
    31    19    32    1
    32    32    33    1
    33     6    34   ar
    34    34    35   ar
    35    35     3   ar
    36    15     8   ar
    37    33    16    1
    38    31    23   ar
    39     1    36    1
    40     1    37    1
    41     1    38    1
    42     4    39    1
    43     5    40    1
    44     7    41    1
    45     9    42    1
    46    10    43    1
    47    13    44    1
    48    13    45    1
    49    13    46    1
    50    14    47    1
    51    15    48    1
    52    16    49    1
    53    17    50    1
    54    17    51    1
    55    18    52    1
    56    18    53    1
    57    24    54    1
    58    25    55    1
    59    30    56    1
    60    31    57    1
    61    32    58    1
    62    32    59    1
    63    33    60    1
    64    33    61    1
    65    34    62    1
    66    35    63    1
