
     RDKit          3D

 63 66  0  0  0  0  0  0  0  0999 V2000
   -4.7550    6.1214   -0.4371 C   0  0  0  0  0  0  0  0  0  0  0  0
   -4.6972    5.1603   -1.4548 O   0  0  0  0  0  0  0  0  0  0  0  0
   -4.0244    3.9467   -1.3135 C   0  0  0  0  0  0  0  0  0  0  0  0
   -3.9844    3.0231   -2.3228 C   0  0  0  0  0  0  0  0  0  0  0  0
   -3.3051    1.8273   -2.1466 C   0  0  0  0  0  0  0  0  0  0  0  0
   -2.6489    1.5065   -0.9785 C   0  0  0  0  0  0  0  0  0  0  0  0
   -1.9242    0.2322   -0.7876 C   0  0  0  0  0  0  0  0  0  0  0  0
   -2.7431   -0.8273   -0.1642 C   0  0  0  0  0  0  0  0  0  0  0  0
   -2.8396   -0.9259    1.2096 C   0  0  0  0  0  0  0  0  0  0  0  0
   -3.5800   -1.8895    1.8338 C   0  0  0  0  0  0  0  0  0  0  0  0
   -4.2660   -2.8102    1.0698 C   0  0  0  0  0  0  0  0  0  0  0  0
   -5.0085   -3.7758    1.7424 O   0  0  0  0  0  0  0  0  0  0  0  0
   -5.7204   -4.7298    0.9842 C   0  0  0  0  0  0  0  0  0  0  0  0
   -4.1869   -2.7335   -0.2933 C   0  0  0  0  0  0  0  0  0  0  0  0
   -3.4375   -1.7580   -0.9126 C   0  0  0  0  0  0  0  0  0  0  0  0
   -0.5853    0.4319   -0.0915 C   0  0  0  0  0  0  0  0  0  0  0  0
    0.0480   -0.9398    0.0431 C   0  0  0  0  0  0  0  0  0  0  0  0
    1.3887   -0.7748    0.7286 C   0  0  0  0  0  0  0  0  0  0  0  0
    2.1877    0.2467    0.0911 N   0  0  0  0  0  0  0  0  0  0  0  0
    3.5812    0.0509    0.0245 C   0  0  0  0  0  0  0  0  0  0  0  0
    4.3171    0.9102   -0.5269 O   0  0  0  0  0  0  0  0  0  0  0  0
    4.2319   -1.0611    0.5394 O   0  0  0  0  0  0  0  0  0  0  0  0
    5.6174   -1.2400    0.4595 C   0  0  0  0  0  0  0  0  0  0  0  0
    6.4889   -0.6985    1.3857 C   0  0  0  0  0  0  0  0  0  0  0  0
    7.8633   -0.8949    1.2791 C   0  0  0  0  0  0  0  0  0  0  0  0
    8.4130   -1.6318    0.2547 C   0  0  0  0  0  0  0  0  0  0  0  0
    9.8048   -1.8519    0.1177 N   0  0  0  0  0  4  0  0  0  0  0  0
   10.2482   -2.5328   -0.8180 O   0  0  0  0  0  0  0  0  0  0  0  0
   10.6688   -1.3150    1.0196 O   0  0  0  0  0  1  0  0  0  0  0  0
    7.5418   -2.1712   -0.6681 C   0  0  0  0  0  0  0  0  0  0  0  0
    6.1872   -1.9732   -0.5566 C   0  0  0  0  0  0  0  0  0  0  0  0
    1.6246    1.4429   -0.4765 C   0  0  0  0  0  0  0  0  0  0  0  0
    0.2707    1.2045   -1.0956 C   0  0  0  0  0  0  0  0  0  0  0  0
   -2.7090    2.4686    0.0295 C   0  0  0  0  0  0  0  0  0  0  0  0
   -3.3808    3.6559   -0.1396 C   0  0  0  0  0  0  0  0  0  0  0  0
   -5.3509    5.6901    0.4140 H   0  0  0  0  0  0  0  0  0  0  0  0
   -5.2495    7.0271   -0.8355 H   0  0  0  0  0  0  0  0  0  0  0  0
   -3.7522    6.3606   -0.0269 H   0  0  0  0  0  0  0  0  0  0  0  0
   -4.4796    3.2405   -3.2367 H   0  0  0  0  0  0  0  0  0  0  0  0
   -3.2858    1.1160   -2.9532 H   0  0  0  0  0  0  0  0  0  0  0  0
   -1.6385   -0.1327   -1.8204 H   0  0  0  0  0  0  0  0  0  0  0  0
   -2.3114   -0.2133    1.8415 H   0  0  0  0  0  0  0  0  0  0  0  0
   -3.6121   -1.9119    2.9267 H   0  0  0  0  0  0  0  0  0  0  0  0
   -6.4050   -5.3041    1.6692 H   0  0  0  0  0  0  0  0  0  0  0  0
   -5.0048   -5.5021    0.5897 H   0  0  0  0  0  0  0  0  0  0  0  0
   -6.2738   -4.2260    0.1876 H   0  0  0  0  0  0  0  0  0  0  0  0
   -4.7264   -3.4575   -0.9009 H   0  0  0  0  0  0  0  0  0  0  0  0
   -3.3699   -1.6910   -1.9837 H   0  0  0  0  0  0  0  0  0  0  0  0
   -0.6686    0.9402    0.8715 H   0  0  0  0  0  0  0  0  0  0  0  0
    0.2205   -1.3154   -0.9869 H   0  0  0  0  0  0  0  0  0  0  0  0
   -0.5666   -1.6602    0.5852 H   0  0  0  0  0  0  0  0  0  0  0  0
    1.2694   -0.5402    1.8077 H   0  0  0  0  0  0  0  0  0  0  0  0
    1.9141   -1.7481    0.6695 H   0  0  0  0  0  0  0  0  0  0  0  0
    6.0935   -0.1171    2.1989 H   0  0  0  0  0  0  0  0  0  0  0  0
    8.5547   -0.4752    1.9976 H   0  0  0  0  0  0  0  0  0  0  0  0
    7.9923   -2.7570   -1.4800 H   0  0  0  0  0  0  0  0  0  0  0  0
    5.5355   -2.4078   -1.2928 H   0  0  0  0  0  0  0  0  0  0  0  0
    2.3217    1.8161   -1.2749 H   0  0  0  0  0  0  0  0  0  0  0  0
    1.5653    2.2628    0.2663 H   0  0  0  0  0  0  0  0  0  0  0  0
    0.3737    0.5411   -1.9796 H   0  0  0  0  0  0  0  0  0  0  0  0
   -0.2179    2.1208   -1.4289 H   0  0  0  0  0  0  0  0  0  0  0  0
   -2.2133    2.2677    0.9605 H   0  0  0  0  0  0  0  0  0  0  0  0
   -3.4011    4.3823    0.6750 H   0  0  0  0  0  0  0  0  0  0  0  0
  1  2  1  0
  2  3  1  0
  3  4  2  0
  4  5  1  0
  5  6  2  0
  6  7  1  0
  7  8  1  0
  8  9  2  0
  9 10  1  0
 10 11  2  0
 11 12  1  0
 12 13  1  0
 11 14  1  0
 14 15  2  0
  7 16  1  0
 16 17  1  0
 17 18  1  0
 18 19  1  0
 19 20  1  0
 20 21  2  0
 20 22  1  0
 22 23  1  0
 23 24  2  0
 24 25  1  0
 25 26  2  0
 26 27  1  0
 27 28  2  0
 27 29  1  0
 26 30  1  0
 30 31  2  0
 19 32  1  0
 32 33  1  0
  6 34  1  0
 34 35  2  0
 35  3  1  0
 15  8  1  0
 33 16  1  0
 31 23  1  0
  1 36  1  0
  1 37  1  0
  1 38  1  0
  4 39  1  0
  5 40  1  0
  7 41  1  0
  9 42  1  0
 10 43  1  0
 13 44  1  0
 13 45  1  0
 13 46  1  0
 14 47  1  0
 15 48  1  0
 16 49  1  0
 17 50  1  0
 17 51  1  0
 18 52  1  0
 18 53  1  0
 24 54  1  0
 25 55  1  0
 30 56  1  0
 31 57  1  0
 32 58  1  0
 32 59  1  0
 33 60  1  0
 33 61  1  0
 34 62  1  0
 35 63  1  0
M  CHG  2  27   1  29  -1
M  END
$$$$
