@<TRIPOS>MOLECULE
*****
 85 93 0 0 0
SMALL
GASTEIGER

@<TRIPOS>ATOM
      1 C           3.8548   -5.3014   -0.0119 C.3     1  UNL1        0.0000
      2 C           3.6453   -3.8077    0.0250 C.ar    1  UNL1        0.0000
      3 C           4.6730   -2.9273    0.0918 C.ar    1  UNL1        0.0000
      4 C           6.0496   -3.3980    0.1403 C.2     1  UNL1        0.0000
      5 C           7.2447   -2.8839    0.2058 C.2     1  UNL1        0.0000
      6 C           4.1047   -1.6937    0.0945 C.ar    1  UNL1        0.0000
      7 C           4.9549   -0.6846    0.1500 C.2     1  UNL1        0.0000
      8 C           4.2753    0.6032    0.1443 C.2     1  UNL1        0.0000
      9 N           3.0296    0.8738    0.0973 N.2     1  UNL1        1.0000
     10 C           3.0240    2.2737    0.1164 C.2     1  UNL1        0.0000
     11 C           1.9979    3.0886    0.0734 C.2     1  UNL1        0.0000
     12 C           0.6852    2.4094    0.0011 C.ar    1  UNL1        0.0000
     13 C          -0.4239    3.2271   -0.0600 C.ar    1  UNL1        0.0000
     14 C          -0.4780    4.7390   -0.0515 C.3     1  UNL1        0.0000
     15 C          -1.4769    2.3608   -0.1246 C.ar    1  UNL1        0.0000
     16 C          -2.7890    3.0284   -0.2467 C.3     1  UNL1        0.0000
     17 C          -3.2638    3.6747    1.0522 C.3     1  UNL1        0.0000
     18 C          -4.5901    4.2847    0.9024 C.2     1  UNL1        0.0000
     19 O          -5.5454    4.3877   -0.0775 O.3     1  UNL1        0.0000
     20 O          -5.0789    4.9000    1.8604 O.2     1  UNL1        0.0000
     21 C          -0.9611    1.0901   -0.0981 C.ar    1  UNL1        0.0000
     22 N           0.3759    1.1279   -0.0223 N.ar    1  UNL1        0.0000
     23 FE          1.5756   -0.3081    0.0236 Fe      1  UNL1        0.0000
     24 N           2.7786   -1.7241    0.0351 N.ar    1  UNL1        0.0000
     25 C           2.5418   -3.0203   -0.0056 C.ar    1  UNL1        0.0000
     26 C           1.3814   -3.6208   -0.0778 C.2     1  UNL1        0.0000
     27 C           0.2238   -2.7385   -0.1096 C.2     1  UNL1        0.0000
     28 N           0.1151   -1.4585   -0.0790 N.2     1  UNL1        1.0000
     29 C          -1.2745   -1.1936   -0.1427 C.2     1  UNL1        0.0000
     30 C          -2.0121   -2.4425   -0.2112 C.2     1  UNL1        0.0000
     31 C          -3.3952   -2.8949   -0.3052 C.3     1  UNL1        0.0000
     32 C          -4.2006   -2.8750    0.9695 C.3     1  UNL1        0.0000
     33 C          -5.5803   -3.3633    0.5763 C.2     1  UNL1        0.0000
     34 O          -6.5307   -2.6297   -0.0997 O.3     1  UNL1        0.0000
     35 O          -5.9968   -4.5408    0.8468 O.2     1  UNL1        0.0000
     36 C          -1.0804   -3.3780   -0.1923 C.2     1  UNL1        0.0000
     37 C          -1.4358   -4.8641   -0.2547 C.3     1  UNL1        0.0000
     38 C          -1.9229   -0.0339   -0.1617 C.2     1  UNL1        0.0000
     39 C          -3.3984    0.1139   -0.2760 C.ar    1  UNL1        0.0000
     40 C          -4.1262    0.4728    0.8801 C.ar    1  UNL1        0.0000
     41 C          -5.4838    0.6956    0.9496 C.ar    1  UNL1        0.0000
     42 C          -6.1819    0.5514   -0.2195 C.ar    1  UNL1        0.0000
     43 C          -5.5301    0.2019   -1.3820 C.ar    1  UNL1        0.0000
     44 C          -4.1759   -0.0182   -1.4452 C.ar    1  UNL1        0.0000
     45 C           4.3506    2.8388    0.1791 C.2     1  UNL1        0.0000
     46 C           4.8531    4.1857    0.2140 C.2     1  UNL1        0.0000
     47 C           4.1848    5.2998    0.2022 C.2     1  UNL1        0.0000
     48 C           5.1049    1.7830    0.1959 C.2     1  UNL1        0.0000
     49 C           6.6057    1.9578    0.2602 C.3     1  UNL1        0.0000
     50 H           4.7307   -5.4645   -0.6854 H       1  UNL1        0.0000
     51 H           4.0554   -5.6660    1.0140 H       1  UNL1        0.0000
     52 H           2.9452   -5.7550   -0.3897 H       1  UNL1        0.0000
     53 H           6.3136   -4.4148    0.1269 H       1  UNL1        0.0000
     54 H           8.2963   -2.7760    0.2548 H       1  UNL1        0.0000
     55 H           8.0172   -2.1324    0.2583 H       1  UNL1        0.0000
     56 H           6.0617   -0.7803    0.1977 H       1  UNL1        0.0000
     57 H           2.1068    4.1946    0.0933 H       1  UNL1        0.0000
     58 H          -1.2994    5.0855   -0.6727 H       1  UNL1        0.0000
     59 H           0.4421    5.1081   -0.6315 H       1  UNL1        0.0000
     60 H          -0.3405    5.1775    0.9320 H       1  UNL1        0.0000
     61 H          -2.7056    3.9591   -0.9467 H       1  UNL1        0.0000
     62 H          -3.6026    2.4499   -0.6408 H       1  UNL1        0.0000
     63 H          -3.3090    2.9842    1.9098 H       1  UNL1        0.0000
     64 H          -2.4894    4.4321    1.3588 H       1  UNL1        0.0000
     65 H          -5.8050    5.2362   -0.5208 H       1  UNL1        0.0000
     66 H           1.2838   -4.7330   -0.1100 H       1  UNL1        0.0000
     67 H          -3.4466   -4.0144   -0.5611 H       1  UNL1        0.0000
     68 H          -3.9770   -2.5358   -1.1835 H       1  UNL1        0.0000
     69 H          -4.1809   -2.0189    1.5917 H       1  UNL1        0.0000
     70 H          -3.7664   -3.7087    1.6468 H       1  UNL1        0.0000
     71 H          -7.5144   -2.5669    0.1090 H       1  UNL1        0.0000
     72 H          -2.1304   -5.0312    0.5894 H       1  UNL1        0.0000
     73 H          -1.8897   -5.0848   -1.2476 H       1  UNL1        0.0000
     74 H          -0.5680   -5.4764   -0.0766 H       1  UNL1        0.0000
     75 H          -3.5498    0.5787    1.7897 H       1  UNL1        0.0000
     76 H          -5.9120    0.9632    1.8855 H       1  UNL1        0.0000
     77 H          -7.2464    0.7108   -0.2284 H       1  UNL1        0.0000
     78 H          -6.0502    0.0814   -2.3177 H       1  UNL1        0.0000
     79 H          -3.5899   -0.2909   -2.2964 H       1  UNL1        0.0000
     80 H           5.8695    4.4187    0.2573 H       1  UNL1        0.0000
     81 H           3.7546    6.2675    0.1977 H       1  UNL1        0.0000
     82 H           4.0245    6.3465    0.2094 H       1  UNL1        0.0000
     83 H           7.0708    0.9863    0.4245 H       1  UNL1        0.0000
     84 H           6.9153    2.4465   -0.6937 H       1  UNL1        0.0000
     85 H           6.7882    2.6544    1.1097 H       1  UNL1        0.0000
@<TRIPOS>UNITY_ATOM_ATTR
9 1
charge 1
28 1
charge 1
@<TRIPOS>BOND
     1     1     2    1
     2     2     3   ar
     3     3     4    1
     4     4     5    2
     5     3     6   ar
     6     6     7    2
     7     7     8    1
     8     8     9    2
     9     9    10    1
    10    10    11    2
    11    11    12    1
    12    12    13   ar
    13    13    14    1
    14    13    15   ar
    15    15    16    1
    16    16    17    1
    17    17    18    1
    18    18    19    1
    19    18    20    2
    20    15    21   ar
    21    21    22   ar
    22    22    23    1
    23    23    24    1
    24    24    25   ar
    25    25    26    2
    26    26    27    1
    27    27    28    2
    28    28    29    1
    29    29    30    1
    30    30    31    1
    31    31    32    1
    32    32    33    1
    33    33    34    1
    34    33    35    2
    35    30    36    2
    36    36    37    1
    37    29    38    2
    38    38    39    1
    39    39    40   ar
    40    40    41   ar
    41    41    42   ar
    42    42    43   ar
    43    43    44   ar
    44    10    45    1
    45    45    46    1
    46    46    47    2
    47    45    48    2
    48    48    49    1
    49    25     2   ar
    50    36    27    1
    51    44    39   ar
    52    24     6   ar
    53    48     8    1
    54    23     9    1
    55    28    23    1
    56    22    12   ar
    57    38    21    1
    58     1    50    1
    59     1    51    1
    60     1    52    1
    61     4    53    1
    62     5    54    1
    63     5    55    1
    64     7    56    1
    65    11    57    1
    66    14    58    1
    67    14    59    1
    68    14    60    1
    69    16    61    1
    70    16    62    1
    71    17    63    1
    72    17    64    1
    73    19    65    1
    74    26    66    1
    75    31    67    1
    76    31    68    1
    77    32    69    1
    78    32    70    1
    79    34    71    1
    80    37    72    1
    81    37    73    1
    82    37    74    1
    83    40    75    1
    84    41    76    1
    85    42    77    1
    86    43    78    1
    87    44    79    1
    88    46    80    1
    89    47    81    1
    90    47    82    1
    91    49    83    1
    92    49    84    1
    93    49    85    1
