
     RDKit          3D

 40 44  0  0  0  0  0  0  0  0999 V2000
    0.8845   -1.6301   -0.9556 C   0  0  2  0  0  0  0  0  0  0  0  0
    2.2240   -1.1128   -1.0539 O   0  0  0  0  0  0  0  0  0  0  0  0
    2.3416   -0.0019   -0.2302 C   0  0  0  0  0  0  0  0  0  0  0  0
    3.3300    0.7562    0.3949 C   0  0  0  0  0  0  0  0  0  0  0  0
    4.6398    0.3300    0.1727 O   0  0  0  0  0  0  0  0  0  0  0  0
    2.9892    1.8570    1.1796 C   0  0  0  0  0  0  0  0  0  0  0  0
    1.6537    2.2120    1.3478 C   0  0  0  0  0  0  0  0  0  0  0  0
    0.6703    1.4964    0.7542 C   0  0  0  0  0  0  0  0  0  0  0  0
    1.0521    0.4376    0.0032 C   0  0  0  0  0  0  0  0  0  0  0  0
    0.0714   -0.4180   -0.6937 C   0  0  1  0  0  0  0  0  0  0  0  0
   -0.3825    0.3098   -1.9253 C   0  0  0  0  0  0  0  0  0  0  0  0
   -1.8477    0.6200   -1.9419 C   0  0  0  0  0  0  0  0  0  0  0  0
   -2.3930    1.1832   -0.7411 N   0  0  0  0  0  0  0  0  0  0  0  0
   -3.7624    0.7076   -0.6326 C   0  0  0  0  0  0  0  0  0  0  0  0
   -1.7027    0.7829    0.4613 C   0  0  2  0  0  0  0  0  0  0  0  0
   -0.7600    1.8340    0.9040 C   0  0  0  0  0  0  0  0  0  0  0  0
   -1.1245   -0.5722    0.1740 C   0  0  2  0  0  0  0  0  0  0  0  0
   -0.8607   -1.4021    1.3719 C   0  0  0  0  0  0  0  0  0  0  0  0
    0.0788   -2.3571    1.2908 C   0  0  0  0  0  0  0  0  0  0  0  0
    0.8923   -2.6655    0.0934 C   0  0  2  0  0  0  0  0  0  0  0  0
    2.1920   -2.9513    0.5721 O   0  0  0  0  0  0  0  0  0  0  0  0
    0.6530   -1.9897   -1.9876 H   0  0  0  0  0  0  0  0  0  0  0  0
    5.4005    0.4835    0.8280 H   0  0  0  0  0  0  0  0  0  0  0  0
    3.8371    2.3777    1.6207 H   0  0  0  0  0  0  0  0  0  0  0  0
    1.4418    3.0806    1.9709 H   0  0  0  0  0  0  0  0  0  0  0  0
    0.2307    1.1907   -2.1299 H   0  0  0  0  0  0  0  0  0  0  0  0
   -0.2155   -0.3895   -2.7904 H   0  0  0  0  0  0  0  0  0  0  0  0
   -2.0194    1.3723   -2.7466 H   0  0  0  0  0  0  0  0  0  0  0  0
   -2.4231   -0.2721   -2.2656 H   0  0  0  0  0  0  0  0  0  0  0  0
   -3.7527   -0.3749   -0.9126 H   0  0  0  0  0  0  0  0  0  0  0  0
   -4.0985    0.7230    0.4387 H   0  0  0  0  0  0  0  0  0  0  0  0
   -4.4610    1.2495   -1.2994 H   0  0  0  0  0  0  0  0  0  0  0  0
   -2.4347    0.6237    1.3085 H   0  0  0  0  0  0  0  0  0  0  0  0
   -0.9114    2.1540    1.9695 H   0  0  0  0  0  0  0  0  0  0  0  0
   -0.9433    2.7569    0.3157 H   0  0  0  0  0  0  0  0  0  0  0  0
   -1.8886   -1.1294   -0.4099 H   0  0  0  0  0  0  0  0  0  0  0  0
   -1.4184   -1.2349    2.2887 H   0  0  0  0  0  0  0  0  0  0  0  0
    0.2399   -2.9413    2.1904 H   0  0  0  0  0  0  0  0  0  0  0  0
    0.5220   -3.6221   -0.3380 H   0  0  0  0  0  0  0  0  0  0  0  0
    2.0557   -3.4736    1.4033 H   0  0  0  0  0  0  0  0  0  0  0  0
  1  2  1  0
  2  3  1  0
  3  4  2  0
  4  5  1  0
  4  6  1  0
  6  7  2  0
  7  8  1  0
  8  9  2  0
  9 10  1  0
 10 11  1  6
 11 12  1  0
 12 13  1  0
 13 14  1  0
 13 15  1  0
 15 16  1  0
 15 17  1  0
 17 18  1  0
 18 19  2  0
 19 20  1  0
 20 21  1  0
 10  1  1  0
 17 10  1  0
 20  1  1  0
  9  3  1  0
 16  8  1  0
  1 22  1  6
  5 23  1  0
  6 24  1  0
  7 25  1  0
 11 26  1  0
 11 27  1  0
 12 28  1  0
 12 29  1  0
 14 30  1  0
 14 31  1  0
 14 32  1  0
 15 33  1  1
 16 34  1  0
 16 35  1  0
 17 36  1  6
 18 37  1  0
 19 38  1  0
 20 39  1  6
 21 40  1  0
M  END
$$$$
