@<TRIPOS>MOLECULE
*****
 40 44 0 0 0
SMALL
GASTEIGER

@<TRIPOS>ATOM
      1 C           0.8845   -1.6301   -0.9556 C.3     1  UNL1        0.1399
      2 O           2.2240   -1.1128   -1.0539 O.3     1  UNL1       -0.4811
      3 C           2.3416   -0.0019   -0.2302 C.ar    1  UNL1        0.1663
      4 C           3.3300    0.7562    0.3949 C.ar    1  UNL1        0.1588
      5 O           4.6398    0.3300    0.1727 O.3     1  UNL1       -0.5033
      6 C           2.9892    1.8570    1.1796 C.ar    1  UNL1       -0.0162
      7 C           1.6537    2.2120    1.3478 C.ar    1  UNL1       -0.0546
      8 C           0.6703    1.4964    0.7542 C.ar    1  UNL1       -0.0383
      9 C           1.0521    0.4376    0.0032 C.ar    1  UNL1        0.0116
     10 C           0.0714   -0.4180   -0.6937 C.3     1  UNL1        0.0480
     11 C          -0.3825    0.3098   -1.9253 C.3     1  UNL1       -0.0263
     12 C          -1.8477    0.6200   -1.9419 C.3     1  UNL1       -0.0001
     13 N          -2.3930    1.1832   -0.7411 N.3     1  UNL1       -0.3015
     14 C          -3.7624    0.7076   -0.6326 C.3     1  UNL1       -0.0124
     15 C          -1.7027    0.7829    0.4613 C.3     1  UNL1        0.0213
     16 C          -0.7600    1.8340    0.9040 C.3     1  UNL1       -0.0110
     17 C          -1.1245   -0.5722    0.1740 C.3     1  UNL1        0.0064
     18 C          -0.8607   -1.4021    1.3719 C.2     1  UNL1       -0.0799
     19 C           0.0788   -2.3571    1.2908 C.2     1  UNL1       -0.0559
     20 C           0.8923   -2.6655    0.0934 C.3     1  UNL1        0.1110
     21 O           2.1920   -2.9513    0.5721 O.3     1  UNL1       -0.3841
     22 H           0.6530   -1.9897   -1.9876 H       1  UNL1        0.0772
     23 H           5.4005    0.4835    0.8280 H       1  UNL1        0.2923
     24 H           3.8371    2.3777    1.6207 H       1  UNL1        0.0655
     25 H           1.4418    3.0806    1.9709 H       1  UNL1        0.0622
     26 H           0.2307    1.1907   -2.1299 H       1  UNL1        0.0287
     27 H          -0.2155   -0.3895   -2.7904 H       1  UNL1        0.0287
     28 H          -2.0194    1.3723   -2.7466 H       1  UNL1        0.0427
     29 H          -2.4231   -0.2721   -2.2656 H       1  UNL1        0.0427
     30 H          -3.7527   -0.3749   -0.9126 H       1  UNL1        0.0391
     31 H          -4.0985    0.7230    0.4387 H       1  UNL1        0.0391
     32 H          -4.4610    1.2495   -1.2994 H       1  UNL1        0.0391
     33 H          -2.4347    0.6237    1.3085 H       1  UNL1        0.0472
     34 H          -0.9114    2.1540    1.9695 H       1  UNL1        0.0329
     35 H          -0.9433    2.7569    0.3157 H       1  UNL1        0.0329
     36 H          -1.8886   -1.1294   -0.4099 H       1  UNL1        0.0368
     37 H          -1.4184   -1.2349    2.2887 H       1  UNL1        0.0573
     38 H           0.2399   -2.9413    2.1904 H       1  UNL1        0.0596
     39 H           0.5220   -3.6221   -0.3380 H       1  UNL1        0.0675
     40 H           2.0557   -3.4736    1.4033 H       1  UNL1        0.2104
@<TRIPOS>BOND
     1     1     2    1
     2     2     3    1
     3     3     4   ar
     4     4     5    1
     5     4     6   ar
     6     6     7   ar
     7     7     8   ar
     8     8     9   ar
     9     9    10    1
    10    10    11    1
    11    11    12    1
    12    12    13    1
    13    13    14    1
    14    13    15    1
    15    15    16    1
    16    15    17    1
    17    17    18    1
    18    18    19    2
    19    19    20    1
    20    20    21    1
    21    10     1    1
    22    17    10    1
    23    20     1    1
    24     9     3   ar
    25    16     8    1
    26     1    22    1
    27     5    23    1
    28     6    24    1
    29     7    25    1
    30    11    26    1
    31    11    27    1
    32    12    28    1
    33    12    29    1
    34    14    30    1
    35    14    31    1
    36    14    32    1
    37    15    33    1
    38    16    34    1
    39    16    35    1
    40    17    36    1
    41    18    37    1
    42    19    38    1
    43    20    39    1
    44    21    40    1
