@<TRIPOS>MOLECULE
*****
 28 28 0 0 0
SMALL
GASTEIGER

@<TRIPOS>ATOM
      1 C          -1.9581    0.1613    1.0338 C.3     1  UNL1        0.0640
      2 N          -2.5929   -1.0826    1.4538 N.3     1  UNL1       -0.3213
      3 C          -0.5599   -0.1418    0.6473 C.3     1  UNL1       -0.0269
      4 C           0.2816    0.9943    0.1814 C.3     1  UNL1       -0.0259
      5 C           1.6239    0.4145   -0.1385 C.ar    1  UNL1       -0.0473
      6 C           2.5015    0.4046    0.9203 C.ar    1  UNL1       -0.0586
      7 C           3.7974   -0.0916    0.8296 C.ar    1  UNL1       -0.0615
      8 C           4.2112   -0.5984   -0.3959 C.ar    1  UNL1       -0.0617
      9 C           3.3275   -0.5865   -1.4555 C.ar    1  UNL1       -0.0615
     10 C           2.0512   -0.0920   -1.3465 C.ar    1  UNL1       -0.0586
     11 C          -2.7951    0.7775    0.0056 C.2     1  UNL1        0.1469
     12 C          -4.0824    0.1538   -0.4742 C.3     1  UNL1       -0.0045
     13 O          -2.5416    1.8374   -0.5568 O.2     1  UNL1       -0.2960
     14 H          -1.9808    0.8225    1.9265 H       1  UNL1        0.0537
     15 H          -2.1359   -1.4549    2.3172 H       1  UNL1        0.1189
     16 H          -2.5508   -1.8199    0.6919 H       1  UNL1        0.1189
     17 H          -0.5174   -0.9314   -0.1293 H       1  UNL1        0.0287
     18 H          -0.0577   -0.5765    1.5364 H       1  UNL1        0.0287
     19 H          -0.0594    1.3992   -0.8167 H       1  UNL1        0.0314
     20 H           0.3671    1.8289    0.8800 H       1  UNL1        0.0314
     21 H           2.2497    0.7843    1.9110 H       1  UNL1        0.0620
     22 H           4.4834   -0.0948    1.6733 H       1  UNL1        0.0618
     23 H           5.2193   -0.9888   -0.4813 H       1  UNL1        0.0618
     24 H           3.6384   -0.9802   -2.4209 H       1  UNL1        0.0618
     25 H           1.3156   -0.0551   -2.1359 H       1  UNL1        0.0620
     26 H          -4.3193    0.3906   -1.5147 H       1  UNL1        0.0306
     27 H          -4.0426   -0.9534   -0.4079 H       1  UNL1        0.0306
     28 H          -4.8741    0.4789    0.2436 H       1  UNL1        0.0306
@<TRIPOS>BOND
     1     1     2    1
     2     1     3    1
     3     3     4    1
     4     4     5    1
     5     5     6   ar
     6     6     7   ar
     7     7     8   ar
     8     8     9   ar
     9     9    10   ar
    10     1    11    1
    11    11    12    1
    12    11    13    2
    13    10     5   ar
    14     1    14    1
    15     2    15    1
    16     2    16    1
    17     3    17    1
    18     3    18    1
    19     4    19    1
    20     4    20    1
    21     6    21    1
    22     7    22    1
    23     8    23    1
    24     9    24    1
    25    10    25    1
    26    12    26    1
    27    12    27    1
    28    12    28    1
