@<TRIPOS>MOLECULE
*****
 52 55 0 0 0
SMALL
GASTEIGER

@<TRIPOS>ATOM
      1 O          -0.0879    2.5820   -1.7116 O.2     1  UNL1       -0.2699
      2 C          -0.0896    1.3265   -1.9598 C.2     1  UNL1        0.2483
      3 N          -1.2479    0.7237   -2.5044 N.am    1  UNL1       -0.2808
      4 C          -2.4120    1.5116   -2.7729 C.ar    1  UNL1        0.0459
      5 C          -2.5108    2.1053   -4.0176 C.ar    1  UNL1       -0.0384
      6 C          -3.6325    2.8702   -4.2965 C.ar    1  UNL1       -0.0416
      7 C          -4.6203    3.0271   -3.3444 C.ar    1  UNL1        0.0418
      8 CL         -6.0309    3.9885   -3.6937 Cl      1  UNL1       -0.0835
      9 C          -4.4665    2.4118   -2.1221 C.ar    1  UNL1       -0.0295
     10 C          -3.3749    1.6436   -1.7964 C.ar    1  UNL1        0.0596
     11 C          -3.2046    0.9852   -0.5097 C.2     1  UNL1        0.2511
     12 O          -2.1506    0.2926   -0.3097 O.2     1  UNL1       -0.2697
     13 N          -4.1119    1.0408    0.5606 N.am    1  UNL1       -0.2663
     14 C          -3.9171    0.3879    1.8046 C.ar    1  UNL1        0.1252
     15 C          -4.8560    0.4906    2.8006 C.ar    1  UNL1       -0.0201
     16 C          -4.6901   -0.1430    4.0354 C.ar    1  UNL1       -0.0387
     17 C          -3.5479   -0.8875    4.2444 C.ar    1  UNL1        0.0592
     18 CL         -3.2561   -1.7210    5.7780 Cl      1  UNL1       -0.0820
     19 C          -2.6375   -0.9579    3.2132 C.ar    1  UNL1        0.0480
     20 N          -2.8038   -0.3419    2.0186 N.ar    1  UNL1       -0.2387
     21 C           1.1407    0.6054   -1.6509 C.ar    1  UNL1        0.0370
     22 C           2.2674    1.2709   -1.1875 C.ar    1  UNL1       -0.0493
     23 C           3.4418    0.6147   -0.8864 C.ar    1  UNL1       -0.0564
     24 C           3.5227   -0.7585   -1.0443 C.ar    1  UNL1       -0.0300
     25 C           4.8127   -1.4279   -0.7210 C.3     1  UNL1        0.0412
     26 N           4.9094   -1.7751    0.6923 N.am    1  UNL1       -0.2798
     27 C           4.4621   -3.0006    1.3095 C.3     1  UNL1        0.0321
     28 C           4.9347   -2.9046    2.7396 C.3     1  UNL1        0.0289
     29 N           5.2874   -1.5252    2.9290 N.am    1  UNL1       -0.2977
     30 C           5.4766   -0.9067    1.6698 C.2     1  UNL1        0.3026
     31 O           6.0432    0.2130    1.4308 O.2     1  UNL1       -0.2526
     32 C           2.4206   -1.4500   -1.5028 C.ar    1  UNL1       -0.0564
     33 C           1.2439   -0.7617   -1.8010 C.ar    1  UNL1       -0.0493
     34 H          -1.2281   -0.2944   -2.7020 H       1  UNL1        0.1552
     35 H          -1.7613    2.0086   -4.7930 H       1  UNL1        0.0637
     36 H          -3.7660    3.3535   -5.2424 H       1  UNL1        0.0633
     37 H          -5.2430    2.5396   -1.3871 H       1  UNL1        0.0640
     38 H          -4.9810    1.6004    0.4236 H       1  UNL1        0.1566
     39 H          -5.7420    1.0789    2.6188 H       1  UNL1        0.0652
     40 H          -5.4279   -0.0677    4.8279 H       1  UNL1        0.0634
     41 H          -1.7493   -1.5328    3.3636 H       1  UNL1        0.0845
     42 H           2.1928    2.3500   -1.0657 H       1  UNL1        0.0625
     43 H           4.3144    1.1573   -0.5222 H       1  UNL1        0.0621
     44 H           4.8994   -2.3507   -1.3555 H       1  UNL1        0.0514
     45 H           5.6792   -0.7841   -0.9596 H       1  UNL1        0.0514
     46 H           3.3476   -3.0891    1.3057 H       1  UNL1        0.0480
     47 H           4.8483   -3.8881    0.7857 H       1  UNL1        0.0480
     48 H           4.1486   -3.1819    3.4799 H       1  UNL1        0.0478
     49 H           5.8464   -3.5339    2.8537 H       1  UNL1        0.0478
     50 H           5.3879   -1.0507    3.8542 H       1  UNL1        0.1503
     51 H           2.5103   -2.5151   -1.6175 H       1  UNL1        0.0621
     52 H           0.4094   -1.3294   -2.1517 H       1  UNL1        0.0625
@<TRIPOS>BOND
     1     1     2    2
     2     2     3   am
     3     3     4    1
     4     4     5   ar
     5     5     6   ar
     6     6     7   ar
     7     7     8    1
     8     7     9   ar
     9     9    10   ar
    10    10    11    1
    11    11    12    2
    12    11    13   am
    13    13    14    1
    14    14    15   ar
    15    15    16   ar
    16    16    17   ar
    17    17    18    1
    18    17    19   ar
    19    19    20   ar
    20     2    21    1
    21    21    22   ar
    22    22    23   ar
    23    23    24   ar
    24    24    25    1
    25    25    26    1
    26    26    27    1
    27    27    28    1
    28    28    29    1
    29    29    30   am
    30    30    31    2
    31    24    32   ar
    32    32    33   ar
    33    10     4   ar
    34    20    14   ar
    35    33    21   ar
    36    30    26   am
    37     3    34    1
    38     5    35    1
    39     6    36    1
    40     9    37    1
    41    13    38    1
    42    15    39    1
    43    16    40    1
    44    19    41    1
    45    22    42    1
    46    23    43    1
    47    25    44    1
    48    25    45    1
    49    27    46    1
    50    27    47    1
    51    28    48    1
    52    28    49    1
    53    29    50    1
    54    32    51    1
    55    33    52    1
