@<TRIPOS>MOLECULE
*****
 55 58 0 0 0
SMALL
GASTEIGER

@<TRIPOS>ATOM
      1 C           4.3476    4.2776    0.7308 C.3     1  UNL1       -0.0397
      2 C           3.5215    3.0418    0.7604 C.ar    1  UNL1       -0.0504
      3 C           2.4779    2.8649    1.6479 C.ar    1  UNL1       -0.0586
      4 C           1.7142    1.7221    1.6751 C.ar    1  UNL1       -0.0580
      5 C           2.0013    0.7182    0.7844 C.ar    1  UNL1       -0.0435
      6 C           1.1730   -0.5441    0.8002 C.3     1  UNL1       -0.0032
      7 C           2.1241   -1.6641    1.1220 C.3     1  UNL1       -0.0298
      8 C           1.5578   -3.0260    0.9085 C.3     1  UNL1        0.0110
      9 C           2.1294   -3.6586   -0.3652 C.3     1  UNL1       -0.0359
     10 C           1.3445   -2.9996   -1.4942 C.3     1  UNL1       -0.0352
     11 C           0.2510   -2.2633   -0.7505 C.3     1  UNL1        0.0208
     12 C           0.5805   -0.7902   -0.5706 C.3     1  UNL1        0.0422
     13 C          -0.6060    0.0588   -0.8211 C.ar    1  UNL1        0.1427
     14 C          -1.7855    0.0529   -0.1100 C.ar    1  UNL1        0.0043
     15 C          -2.6309    1.0109   -0.6873 C.ar    1  UNL1        0.0892
     16 C          -3.9933    1.4004   -0.3136 C.3     1  UNL1        0.0077
     17 C          -4.5200    0.6386    0.8612 C.3     1  UNL1       -0.0545
     18 C          -4.0474    2.8846    0.0529 C.3     1  UNL1       -0.0545
     19 C          -4.9822    1.1973   -1.4623 C.3     1  UNL1       -0.0545
     20 N          -1.9114    1.5228   -1.6952 N.ar    1  UNL1       -0.0825
     21 O          -0.7504    0.9624   -1.7556 O.2     1  UNL1       -0.3590
     22 N           0.1563   -2.9036    0.5558 N.3     1  UNL1       -0.2988
     23 C          -0.3793   -4.2403    0.3902 C.3     1  UNL1       -0.0122
     24 C           3.0348    0.8696   -0.1090 C.ar    1  UNL1       -0.0580
     25 C           3.7894    2.0170   -0.1246 C.ar    1  UNL1       -0.0586
     26 H           4.8989    4.3110   -0.2354 H       1  UNL1        0.0278
     27 H           3.7257    5.2005    0.8359 H       1  UNL1        0.0278
     28 H           5.1050    4.1817    1.5352 H       1  UNL1        0.0278
     29 H           2.2698    3.6645    2.3376 H       1  UNL1        0.0620
     30 H           0.8863    1.6145    2.3993 H       1  UNL1        0.0620
     31 H           0.4240   -0.4429    1.5805 H       1  UNL1        0.0357
     32 H           2.9993   -1.5416    0.4189 H       1  UNL1        0.0286
     33 H           2.4804   -1.6076    2.1776 H       1  UNL1        0.0286
     34 H           1.7101   -3.7297    1.7386 H       1  UNL1        0.0463
     35 H           2.0234   -4.7491   -0.3552 H       1  UNL1        0.0281
     36 H           3.2161   -3.4362   -0.4412 H       1  UNL1        0.0281
     37 H           1.9624   -2.2285   -2.0023 H       1  UNL1        0.0281
     38 H           0.9139   -3.7364   -2.1835 H       1  UNL1        0.0281
     39 H          -0.6858   -2.4068   -1.3126 H       1  UNL1        0.0470
     40 H           1.3799   -0.5627   -1.3059 H       1  UNL1        0.0401
     41 H          -2.0691   -0.5491    0.7393 H       1  UNL1        0.0671
     42 H          -4.4108   -0.4680    0.7122 H       1  UNL1        0.0239
     43 H          -4.1312    0.9859    1.8226 H       1  UNL1        0.0239
     44 H          -5.6337    0.8149    0.8969 H       1  UNL1        0.0239
     45 H          -3.8164    2.9798    1.1432 H       1  UNL1        0.0239
     46 H          -5.1026    3.2126   -0.1120 H       1  UNL1        0.0239
     47 H          -3.3494    3.4475   -0.5861 H       1  UNL1        0.0239
     48 H          -4.7172    0.3010   -2.0697 H       1  UNL1        0.0239
     49 H          -5.9873    1.1146   -1.0055 H       1  UNL1        0.0239
     50 H          -4.9710    2.1289   -2.0542 H       1  UNL1        0.0239
     51 H           0.0376   -4.9010    1.1600 H       1  UNL1        0.0391
     52 H          -0.1451   -4.6830   -0.5908 H       1  UNL1        0.0391
     53 H          -1.4900   -4.2660    0.4967 H       1  UNL1        0.0391
     54 H           3.2609    0.0600   -0.8220 H       1  UNL1        0.0620
     55 H           4.6189    2.1413   -0.8401 H       1  UNL1        0.0620
@<TRIPOS>BOND
     1     1     2    1
     2     2     3   ar
     3     3     4   ar
     4     4     5   ar
     5     5     6    1
     6     6     7    1
     7     7     8    1
     8     8     9    1
     9     9    10    1
    10    10    11    1
    11    11    12    1
    12    12    13    1
    13    13    14   ar
    14    14    15   ar
    15    15    16    1
    16    16    17    1
    17    16    18    1
    18    16    19    1
    19    15    20   ar
    20    20    21   ar
    21    11    22    1
    22    22    23    1
    23     5    24   ar
    24    24    25   ar
    25    25     2   ar
    26    12     6    1
    27    21    13   ar
    28    22     8    1
    29     1    26    1
    30     1    27    1
    31     1    28    1
    32     3    29    1
    33     4    30    1
    34     6    31    1
    35     7    32    1
    36     7    33    1
    37     8    34    1
    38     9    35    1
    39     9    36    1
    40    10    37    1
    41    10    38    1
    42    11    39    1
    43    12    40    1
    44    14    41    1
    45    17    42    1
    46    17    43    1
    47    17    44    1
    48    18    45    1
    49    18    46    1
    50    18    47    1
    51    19    48    1
    52    19    49    1
    53    19    50    1
    54    23    51    1
    55    23    52    1
    56    23    53    1
    57    24    54    1
    58    25    55    1
