@<TRIPOS>MOLECULE
*****
 33 35 0 0 0
SMALL
GASTEIGER

@<TRIPOS>ATOM
      1 C          -5.8911    0.0247   -0.5188 C.3     1  UNL1        0.0788
      2 O          -4.5309   -0.3480   -0.6484 O.3     1  UNL1       -0.4951
      3 C          -3.5238    0.3482    0.0055 C.ar    1  UNL1        0.1208
      4 C          -3.6361    1.4416    0.8359 C.ar    1  UNL1       -0.0199
      5 C          -2.5133    2.0067    1.4021 C.ar    1  UNL1       -0.0576
      6 C          -1.2465    1.5213    1.1747 C.ar    1  UNL1       -0.0509
      7 C          -1.1235    0.4202    0.3396 C.ar    1  UNL1        0.0207
      8 C          -2.2420   -0.1587   -0.2367 C.ar    1  UNL1       -0.0093
      9 C           0.1978   -0.1445    0.0574 C.ar    1  UNL1        0.1394
     10 N           1.3637    0.3166    0.5483 N.ar    1  UNL1       -0.2270
     11 C           2.3856   -0.4510    0.0748 C.ar    1  UNL1        0.1015
     12 C           1.8199   -1.4173   -0.7362 C.ar    1  UNL1        0.0672
     13 N           0.4848   -1.2014   -0.7246 N.ar    1  UNL1       -0.3379
     14 C           2.6658   -2.3251   -1.3383 C.ar    1  UNL1       -0.0362
     15 C           4.0375   -2.3171   -1.1730 C.ar    1  UNL1       -0.0590
     16 C           4.6076   -1.3389   -0.3523 C.ar    1  UNL1       -0.0475
     17 C           3.7546   -0.4347    0.2462 C.ar    1  UNL1        0.0639
     18 C           4.3792    0.5722    1.0954 C.2     1  UNL1        0.2437
     19 N           3.6684    1.5839    1.7932 N.am    1  UNL1       -0.3253
     20 O           5.6070    0.6954    1.3330 O.2     1  UNL1       -0.2703
     21 H          -6.0834    0.8376   -1.2778 H       1  UNL1        0.0660
     22 H          -6.5238   -0.8628   -0.7286 H       1  UNL1        0.0660
     23 H          -6.1055    0.4513    0.4816 H       1  UNL1        0.0660
     24 H          -4.6450    1.7843    0.9832 H       1  UNL1        0.0654
     25 H          -2.6403    2.8594    2.0451 H       1  UNL1        0.0619
     26 H          -0.3749    1.9816    1.6309 H       1  UNL1        0.0625
     27 H          -2.0672   -1.0293   -0.8880 H       1  UNL1        0.0661
     28 H          -0.1787   -1.7897   -1.2554 H       1  UNL1        0.1674
     29 H           2.1591   -3.0633   -1.9666 H       1  UNL1        0.0639
     30 H           4.6131   -3.0657   -1.6837 H       1  UNL1        0.0618
     31 H           5.6796   -1.3255   -0.2176 H       1  UNL1        0.0626
     32 H           2.9698    2.1290    1.2066 H       1  UNL1        0.1453
     33 H           2.9323    2.2990    1.5737 H       1  UNL1        0.1453
@<TRIPOS>BOND
     1     1     2    1
     2     2     3    1
     3     3     4   ar
     4     4     5   ar
     5     5     6   ar
     6     6     7   ar
     7     7     8   ar
     8     7     9    1
     9     9    10   ar
    10    10    11   ar
    11    11    12   ar
    12    12    13   ar
    13    12    14   ar
    14    14    15   ar
    15    15    16   ar
    16    16    17   ar
    17    17    18    1
    18    18    19   am
    19    18    20    2
    20     8     3   ar
    21    13     9   ar
    22    17    11   ar
    23     1    21    1
    24     1    22    1
    25     1    23    1
    26     4    24    1
    27     5    25    1
    28     6    26    1
    29     8    27    1
    30    13    28    1
    31    14    29    1
    32    15    30    1
    33    16    31    1
    34    19    32    1
    35    19    33    1
