@<TRIPOS>MOLECULE
*****
 55 59 0 0 0
SMALL
GASTEIGER

@<TRIPOS>ATOM
      1 C          -2.4471    2.6446    2.8827 C.3     1  UNL1        0.0788
      2 O          -1.3839    1.8566    2.3910 O.3     1  UNL1       -0.4944
      3 C          -1.5666    0.8890    1.4094 C.ar    1  UNL1        0.1300
      4 C          -2.8651    0.7226    0.9185 C.ar    1  UNL1       -0.0088
      5 C          -3.1064   -0.2320   -0.0655 C.ar    1  UNL1        0.0208
      6 C          -4.4640   -0.4160   -0.5894 C.ar    1  UNL1       -0.0145
      7 C          -4.6510   -0.5300   -1.9454 C.ar    1  UNL1       -0.0539
      8 C          -5.9257   -0.7033   -2.4686 C.ar    1  UNL1       -0.0607
      9 C          -6.9886   -0.7590   -1.6202 C.ar    1  UNL1       -0.0501
     10 C          -6.8223   -0.6474   -0.2634 C.ar    1  UNL1        0.0554
     11 C          -7.9550   -0.7039    0.6736 C.3     1  UNL1        0.4174
     12 F          -8.4579    0.5656    0.8486 F       1  UNL1       -0.1659
     13 F          -8.8997   -1.5624    0.1765 F       1  UNL1       -0.1659
     14 F          -7.5278   -1.2079    1.8907 F       1  UNL1       -0.1659
     15 C          -5.5508   -0.4757    0.2394 C.ar    1  UNL1       -0.0423
     16 C          -2.0764   -1.0123   -0.5578 C.ar    1  UNL1        0.1319
     17 F          -2.3407   -1.9211   -1.5037 F       1  UNL1       -0.2048
     18 C          -0.7859   -0.8186   -0.0424 C.ar    1  UNL1       -0.0131
     19 C          -0.5413    0.1186    0.9252 C.ar    1  UNL1        0.0453
     20 C           0.7874    0.3021    1.4660 C.ar    1  UNL1        0.0822
     21 N           0.9775    0.1533    2.8130 N.ar    1  UNL1       -0.2542
     22 C           2.1649    0.3080    3.3971 C.ar    1  UNL1        0.0289
     23 C           3.2234    0.6287    2.5971 C.ar    1  UNL1       -0.0358
     24 C           3.0979    0.7925    1.2366 C.ar    1  UNL1       -0.0126
     25 C           4.1626    1.1207    0.4248 C.ar    1  UNL1       -0.0272
     26 C           4.0919    1.3000   -0.9346 C.ar    1  UNL1        0.1091
     27 S           5.4468    1.7022   -1.9547 S.O2    1  UNL1        0.0736
     28 O           6.5220    2.2707   -1.0651 O.2     1  UNL1       -0.1499
     29 O           4.9787    2.7971   -2.8830 O.2     1  UNL1       -0.1499
     30 N           6.1149    0.3878   -2.7983 N.pl3   1  UNL1       -0.1968
     31 C           6.6875   -0.7133   -2.1275 C.ar    1  UNL1        0.1805
     32 C           6.8706   -0.9953   -0.7969 C.ar    1  UNL1        0.0203
     33 C           7.5054   -2.2263   -0.6820 C.ar    1  UNL1        0.1261
     34 O           7.6871   -2.6491   -1.9055 O.2     1  UNL1       -0.3611
     35 N           7.2274   -1.8010   -2.7633 N.ar    1  UNL1       -0.0620
     36 C           2.8116    1.1225   -1.4774 C.ar    1  UNL1       -0.0344
     37 C           1.7298    0.7948   -0.6932 C.ar    1  UNL1       -0.0501
     38 C           1.8595    0.6264    0.6637 C.ar    1  UNL1        0.0083
     39 H          -2.8581    3.2618    2.0619 H       1  UNL1        0.0660
     40 H          -3.2555    2.0208    3.3308 H       1  UNL1        0.0660
     41 H          -2.0235    3.2843    3.6919 H       1  UNL1        0.0660
     42 H          -3.6800    1.3314    1.3000 H       1  UNL1        0.0661
     43 H          -3.8131   -0.4873   -2.6296 H       1  UNL1        0.0624
     44 H          -6.0564   -0.7919   -3.5498 H       1  UNL1        0.0618
     45 H          -7.9786   -0.8923   -2.0116 H       1  UNL1        0.0623
     46 H          -5.4317   -0.3881    1.3230 H       1  UNL1        0.0629
     47 H          -0.0315   -1.4608   -0.4655 H       1  UNL1        0.0654
     48 H           2.2488    0.1745    4.4794 H       1  UNL1        0.0830
     49 H           4.1995    0.7616    3.0340 H       1  UNL1        0.0639
     50 H           5.1258    1.2527    0.9112 H       1  UNL1        0.0643
     51 H           6.1210    0.3565   -3.8529 H       1  UNL1        0.1753
     52 H           6.5756   -0.3643    0.0038 H       1  UNL1        0.0685
     53 H           7.7650   -2.6793    0.2626 H       1  UNL1        0.1058
     54 H           2.7384    1.2626   -2.5605 H       1  UNL1        0.0637
     55 H           0.7635    0.6747   -1.1445 H       1  UNL1        0.0625
@<TRIPOS>BOND
     1     1     2    1
     2     2     3    1
     3     3     4   ar
     4     4     5   ar
     5     5     6    1
     6     6     7   ar
     7     7     8   ar
     8     8     9   ar
     9     9    10   ar
    10    10    11    1
    11    11    12    1
    12    11    13    1
    13    11    14    1
    14    10    15   ar
    15     5    16   ar
    16    16    17    1
    17    16    18   ar
    18    18    19   ar
    19    19    20    1
    20    20    21   ar
    21    21    22   ar
    22    22    23   ar
    23    23    24   ar
    24    24    25   ar
    25    25    26   ar
    26    26    27    1
    27    27    28    2
    28    27    29    2
    29    27    30    1
    30    30    31    1
    31    31    32   ar
    32    32    33   ar
    33    33    34   ar
    34    34    35   ar
    35    26    36   ar
    36    36    37   ar
    37    37    38   ar
    38    19     3   ar
    39    38    20   ar
    40    15     6   ar
    41    38    24   ar
    42    35    31   ar
    43     1    39    1
    44     1    40    1
    45     1    41    1
    46     4    42    1
    47     7    43    1
    48     8    44    1
    49     9    45    1
    50    15    46    1
    51    18    47    1
    52    22    48    1
    53    23    49    1
    54    25    50    1
    55    30    51    1
    56    32    52    1
    57    33    53    1
    58    36    54    1
    59    37    55    1
