
     RDKit          3D

 55 59  0  0  0  0  0  0  0  0999 V2000
   -2.4471    2.6446    2.8827 C   0  0  0  0  0  0  0  0  0  0  0  0
   -1.3839    1.8566    2.3910 O   0  0  0  0  0  0  0  0  0  0  0  0
   -1.5666    0.8890    1.4094 C   0  0  0  0  0  0  0  0  0  0  0  0
   -2.8651    0.7226    0.9185 C   0  0  0  0  0  0  0  0  0  0  0  0
   -3.1064   -0.2320   -0.0655 C   0  0  0  0  0  0  0  0  0  0  0  0
   -4.4640   -0.4160   -0.5894 C   0  0  0  0  0  0  0  0  0  0  0  0
   -4.6510   -0.5300   -1.9454 C   0  0  0  0  0  0  0  0  0  0  0  0
   -5.9257   -0.7033   -2.4686 C   0  0  0  0  0  0  0  0  0  0  0  0
   -6.9886   -0.7590   -1.6202 C   0  0  0  0  0  0  0  0  0  0  0  0
   -6.8223   -0.6474   -0.2634 C   0  0  0  0  0  0  0  0  0  0  0  0
   -7.9550   -0.7039    0.6736 C   0  0  0  0  0  0  0  0  0  0  0  0
   -8.4579    0.5656    0.8486 F   0  0  0  0  0  0  0  0  0  0  0  0
   -8.8997   -1.5624    0.1765 F   0  0  0  0  0  0  0  0  0  0  0  0
   -7.5278   -1.2079    1.8907 F   0  0  0  0  0  0  0  0  0  0  0  0
   -5.5508   -0.4757    0.2394 C   0  0  0  0  0  0  0  0  0  0  0  0
   -2.0764   -1.0123   -0.5578 C   0  0  0  0  0  0  0  0  0  0  0  0
   -2.3407   -1.9211   -1.5037 F   0  0  0  0  0  0  0  0  0  0  0  0
   -0.7859   -0.8186   -0.0424 C   0  0  0  0  0  0  0  0  0  0  0  0
   -0.5413    0.1186    0.9252 C   0  0  0  0  0  0  0  0  0  0  0  0
    0.7874    0.3021    1.4660 C   0  0  0  0  0  0  0  0  0  0  0  0
    0.9775    0.1533    2.8130 N   0  0  0  0  0  0  0  0  0  0  0  0
    2.1649    0.3080    3.3971 C   0  0  0  0  0  0  0  0  0  0  0  0
    3.2234    0.6287    2.5971 C   0  0  0  0  0  0  0  0  0  0  0  0
    3.0979    0.7925    1.2366 C   0  0  0  0  0  0  0  0  0  0  0  0
    4.1626    1.1207    0.4248 C   0  0  0  0  0  0  0  0  0  0  0  0
    4.0919    1.3000   -0.9346 C   0  0  0  0  0  0  0  0  0  0  0  0
    5.4468    1.7022   -1.9547 S   0  0  0  0  0  6  0  0  0  0  0  0
    6.5220    2.2707   -1.0651 O   0  0  0  0  0  0  0  0  0  0  0  0
    4.9787    2.7971   -2.8830 O   0  0  0  0  0  0  0  0  0  0  0  0
    6.1149    0.3878   -2.7983 N   0  0  0  0  0  0  0  0  0  0  0  0
    6.6875   -0.7133   -2.1275 C   0  0  0  0  0  0  0  0  0  0  0  0
    6.8706   -0.9953   -0.7969 C   0  0  0  0  0  0  0  0  0  0  0  0
    7.5054   -2.2263   -0.6820 C   0  0  0  0  0  0  0  0  0  0  0  0
    7.6871   -2.6491   -1.9055 O   0  0  0  0  0  0  0  0  0  0  0  0
    7.2274   -1.8010   -2.7633 N   0  0  0  0  0  0  0  0  0  0  0  0
    2.8116    1.1225   -1.4774 C   0  0  0  0  0  0  0  0  0  0  0  0
    1.7298    0.7948   -0.6932 C   0  0  0  0  0  0  0  0  0  0  0  0
    1.8595    0.6264    0.6637 C   0  0  0  0  0  0  0  0  0  0  0  0
   -2.8581    3.2618    2.0619 H   0  0  0  0  0  0  0  0  0  0  0  0
   -3.2555    2.0208    3.3308 H   0  0  0  0  0  0  0  0  0  0  0  0
   -2.0235    3.2843    3.6919 H   0  0  0  0  0  0  0  0  0  0  0  0
   -3.6800    1.3314    1.3000 H   0  0  0  0  0  0  0  0  0  0  0  0
   -3.8131   -0.4873   -2.6296 H   0  0  0  0  0  0  0  0  0  0  0  0
   -6.0564   -0.7919   -3.5498 H   0  0  0  0  0  0  0  0  0  0  0  0
   -7.9786   -0.8923   -2.0116 H   0  0  0  0  0  0  0  0  0  0  0  0
   -5.4317   -0.3881    1.3230 H   0  0  0  0  0  0  0  0  0  0  0  0
   -0.0315   -1.4608   -0.4655 H   0  0  0  0  0  0  0  0  0  0  0  0
    2.2488    0.1745    4.4794 H   0  0  0  0  0  0  0  0  0  0  0  0
    4.1995    0.7616    3.0340 H   0  0  0  0  0  0  0  0  0  0  0  0
    5.1258    1.2527    0.9112 H   0  0  0  0  0  0  0  0  0  0  0  0
    6.1210    0.3565   -3.8529 H   0  0  0  0  0  0  0  0  0  0  0  0
    6.5756   -0.3643    0.0038 H   0  0  0  0  0  0  0  0  0  0  0  0
    7.7650   -2.6793    0.2626 H   0  0  0  0  0  0  0  0  0  0  0  0
    2.7384    1.2626   -2.5605 H   0  0  0  0  0  0  0  0  0  0  0  0
    0.7635    0.6747   -1.1445 H   0  0  0  0  0  0  0  0  0  0  0  0
  1  2  1  0
  2  3  1  0
  3  4  2  0
  4  5  1  0
  5  6  1  0
  6  7  2  0
  7  8  1  0
  8  9  2  0
  9 10  1  0
 10 11  1  0
 11 12  1  0
 11 13  1  0
 11 14  1  0
 10 15  2  0
  5 16  2  0
 16 17  1  0
 16 18  1  0
 18 19  2  0
 19 20  1  0
 20 21  2  0
 21 22  1  0
 22 23  2  0
 23 24  1  0
 24 25  2  0
 25 26  1  0
 26 27  1  0
 27 28  2  0
 27 29  2  0
 27 30  1  0
 30 31  1  0
 31 32  1  0
 32 33  2  0
 33 34  1  0
 34 35  1  0
 26 36  2  0
 36 37  1  0
 37 38  2  0
 19  3  1  0
 38 20  1  0
 15  6  1  0
 38 24  1  0
 35 31  2  0
  1 39  1  0
  1 40  1  0
  1 41  1  0
  4 42  1  0
  7 43  1  0
  8 44  1  0
  9 45  1  0
 15 46  1  0
 18 47  1  0
 22 48  1  0
 23 49  1  0
 25 50  1  0
 30 51  1  0
 32 52  1  0
 33 53  1  0
 36 54  1  0
 37 55  1  0
M  END
$$$$
