@<TRIPOS>MOLECULE
*****
 40 42 0 0 0
SMALL
GASTEIGER

@<TRIPOS>ATOM
      1 C           3.4892   -2.2607   -0.3610 C.3     1  UNL1       -0.0158
      2 N           2.0689   -2.2725   -0.6238 N.3     1  UNL1       -0.3188
      3 C           1.7742   -1.3447   -1.6708 C.3     1  UNL1       -0.0007
      4 C           2.0130    0.0549   -1.1849 C.3     1  UNL1        0.0015
      5 C           1.1526    0.4340    0.0138 C.3     1  UNL1        0.1323
      6 O          -0.1261    0.3548   -0.2459 O.3     1  UNL1       -0.4831
      7 C          -1.3714    0.2706   -0.4904 C.ar    1  UNL1        0.1291
      8 C          -1.8888    1.0337   -1.5424 C.ar    1  UNL1       -0.0193
      9 C          -3.2419    1.0194   -1.9010 C.ar    1  UNL1       -0.0577
     10 C          -4.0426    0.1884   -1.1337 C.ar    1  UNL1       -0.0538
     11 C          -3.6052   -0.5971   -0.0772 C.ar    1  UNL1       -0.0144
     12 C          -4.4746   -1.3952    0.6311 C.ar    1  UNL1       -0.0539
     13 C          -3.9541   -2.1456    1.6676 C.ar    1  UNL1       -0.0612
     14 C          -2.6125   -2.1303    2.0215 C.ar    1  UNL1       -0.0611
     15 C          -1.7841   -1.3044    1.2690 C.ar    1  UNL1       -0.0505
     16 C          -2.2544   -0.5243    0.2108 C.ar    1  UNL1        0.0238
     17 C           1.6654    1.7745    0.4452 C.ar    1  UNL1        0.0299
     18 C           2.7763    2.5578    0.0990 C.ar    1  UNL1       -0.0480
     19 C           2.9060    3.7510    0.7223 C.ar    1  UNL1       -0.0544
     20 C           1.8982    4.1244    1.6892 C.ar    1  UNL1       -0.0240
     21 S           0.7255    2.6344    1.6551 S.2     1  UNL1       -0.0979
     22 H           3.7815   -1.4154    0.3068 H       1  UNL1        0.0388
     23 H           4.0446   -2.1600   -1.3102 H       1  UNL1        0.0388
     24 H           3.7821   -3.1859    0.2084 H       1  UNL1        0.0388
     25 H           1.4874   -2.1384    0.2205 H       1  UNL1        0.1216
     26 H           0.8086   -1.4889   -2.1516 H       1  UNL1        0.0425
     27 H           2.5391   -1.5321   -2.4755 H       1  UNL1        0.0425
     28 H           3.0594    0.1810   -0.8315 H       1  UNL1        0.0317
     29 H           1.8486    0.8168   -1.9726 H       1  UNL1        0.0317
     30 H           1.4352   -0.2342    0.8918 H       1  UNL1        0.0790
     31 H          -1.2473    1.6858   -2.1407 H       1  UNL1        0.0654
     32 H          -3.6196    1.6099   -2.7081 H       1  UNL1        0.0619
     33 H          -5.0731    0.1586   -1.3838 H       1  UNL1        0.0624
     34 H          -5.5241   -1.4394    0.3920 H       1  UNL1        0.0624
     35 H          -4.6291   -2.7726    2.2248 H       1  UNL1        0.0618
     36 H          -2.2282   -2.7277    2.8386 H       1  UNL1        0.0618
     37 H          -0.7377   -1.2774    1.5268 H       1  UNL1        0.0625
     38 H           3.4518    2.1620   -0.6382 H       1  UNL1        0.0627
     39 H           3.7300    4.4159    0.5166 H       1  UNL1        0.0623
     40 H           1.9773    5.1188    2.2291 H       1  UNL1        0.0693
@<TRIPOS>BOND
     1     1     2    1
     2     2     3    1
     3     3     4    1
     4     4     5    1
     5     5     6    1
     6     6     7    1
     7     7     8   ar
     8     8     9   ar
     9     9    10   ar
    10    10    11   ar
    11    11    12   ar
    12    12    13   ar
    13    13    14   ar
    14    14    15   ar
    15    15    16   ar
    16     5    17    1
    17    17    18   ar
    18    18    19   ar
    19    19    20   ar
    20    20    21   ar
    21    16     7   ar
    22    21    17   ar
    23    16    11   ar
    24     1    22    1
    25     1    23    1
    26     1    24    1
    27     2    25    1
    28     3    26    1
    29     3    27    1
    30     4    28    1
    31     4    29    1
    32     5    30    1
    33     8    31    1
    34     9    32    1
    35    10    33    1
    36    12    34    1
    37    13    35    1
    38    14    36    1
    39    15    37    1
    40    18    38    1
    41    19    39    1
    42    20    40    1
