@<TRIPOS>MOLECULE
*****
 59 63 0 0 0
SMALL
GASTEIGER

@<TRIPOS>ATOM
      1 C          -7.5231    1.4887   -1.7962 C.3     1  UNL1       -0.0377
      2 C          -8.2194    0.5042   -0.9272 C.ar    1  UNL1       -0.0243
      3 C          -9.5294    0.1615   -1.1174 C.ar    1  UNL1       -0.0568
      4 C         -10.1311   -0.7685   -0.2705 C.ar    1  UNL1       -0.0607
      5 C          -9.4239   -1.3590    0.7699 C.ar    1  UNL1       -0.0473
      6 C          -8.1076   -1.0107    0.9563 C.ar    1  UNL1        0.0649
      7 C          -7.3456   -1.5565    1.9682 C.ar    1  UNL1        0.2592
      8 O          -7.8926   -2.3982    2.7334 O.2     1  UNL1       -0.2672
      9 N          -6.0563   -1.2355    2.1752 N.ar    1  UNL1       -0.3103
     10 C          -5.4976   -0.3364    1.3458 C.ar    1  UNL1        0.1108
     11 C          -4.0818    0.0970    1.4742 C.3     1  UNL1        0.0138
     12 C          -3.2440   -0.8227    0.6414 C.3     1  UNL1        0.0311
     13 C          -1.7997   -0.4806    0.6952 C.2     1  UNL1        0.2176
     14 O          -1.4552    0.5107    1.4107 O.2     1  UNL1       -0.2755
     15 N          -0.8021   -1.1834    0.0069 N.am    1  UNL1       -0.2855
     16 C           0.5679   -0.8202    0.0877 C.ar    1  UNL1        0.0334
     17 C           1.1773    0.0687   -0.7653 C.ar    1  UNL1       -0.0398
     18 C           2.5145    0.4035   -0.6620 C.ar    1  UNL1       -0.0479
     19 C           3.3057   -0.1467    0.3140 C.ar    1  UNL1        0.0371
     20 C           4.7272    0.1793    0.4611 C.2     1  UNL1        0.2483
     21 O           5.4017   -0.3630    1.3826 O.2     1  UNL1       -0.2699
     22 N           5.3482    1.0865   -0.4092 N.am    1  UNL1       -0.2797
     23 C           6.7470    1.3527   -0.1975 C.ar    1  UNL1        0.0598
     24 C           7.1386    2.3780    0.6388 C.ar    1  UNL1       -0.0384
     25 C           8.4715    2.6595    0.8632 C.ar    1  UNL1       -0.0593
     26 C           9.4496    1.9139    0.2496 C.ar    1  UNL1       -0.0524
     27 C           9.0976    0.8799   -0.5940 C.ar    1  UNL1        0.0022
     28 C          10.0778    0.1388   -1.2038 C.ar    1  UNL1       -0.0511
     29 C           9.7138   -0.8843   -2.0384 C.ar    1  UNL1       -0.0430
     30 C           8.3588   -1.1363   -2.2385 C.ar    1  UNL1        0.0283
     31 N           7.4437   -0.3815   -1.6178 N.ar    1  UNL1       -0.2531
     32 C           7.7445    0.6197   -0.8009 C.ar    1  UNL1        0.0921
     33 C           2.7057   -1.0543    1.1934 C.ar    1  UNL1       -0.0479
     34 C           1.3718   -1.3679    1.0654 C.ar    1  UNL1       -0.0398
     35 N          -6.2221    0.2085    0.3524 N.ar    1  UNL1       -0.2334
     36 C          -7.5118   -0.0824    0.1089 C.ar    1  UNL1        0.0810
     37 H          -8.0968    1.7493   -2.6850 H       1  UNL1        0.0278
     38 H          -7.2082    2.3432   -1.1740 H       1  UNL1        0.0278
     39 H          -6.5622    0.9859   -2.1125 H       1  UNL1        0.0278
     40 H         -10.0890    0.6072   -1.9146 H       1  UNL1        0.0621
     41 H         -11.1693   -1.0009   -0.4687 H       1  UNL1        0.0618
     42 H          -9.9025   -2.0765    1.4167 H       1  UNL1        0.0626
     43 H          -5.4720   -1.6378    2.9315 H       1  UNL1        0.1700
     44 H          -3.7560    0.1509    2.5307 H       1  UNL1        0.0348
     45 H          -3.9886    1.1230    1.0700 H       1  UNL1        0.0348
     46 H          -3.3763   -1.8622    1.0071 H       1  UNL1        0.0363
     47 H          -3.6186   -0.7827   -0.4014 H       1  UNL1        0.0363
     48 H          -1.1167   -2.0092   -0.5852 H       1  UNL1        0.1548
     49 H           0.6068    0.5355   -1.5546 H       1  UNL1        0.0636
     50 H           2.9292    1.1246   -1.3845 H       1  UNL1        0.0626
     51 H           4.8657    1.5771   -1.1940 H       1  UNL1        0.1552
     52 H           6.3763    2.9867    1.1396 H       1  UNL1        0.0637
     53 H           8.7553    3.4640    1.5195 H       1  UNL1        0.0618
     54 H          10.5097    2.1044    0.4008 H       1  UNL1        0.0624
     55 H          11.1055    0.3532   -1.0329 H       1  UNL1        0.0625
     56 H          10.4002   -1.5197   -2.5606 H       1  UNL1        0.0633
     57 H           8.0064   -1.9298   -2.8854 H       1  UNL1        0.0830
     58 H           3.3496   -1.4747    1.9541 H       1  UNL1        0.0626
     59 H           0.9314   -2.0747    1.7606 H       1  UNL1        0.0636
@<TRIPOS>BOND
     1     1     2    1
     2     2     3   ar
     3     3     4   ar
     4     4     5   ar
     5     5     6   ar
     6     6     7   ar
     7     7     8    2
     8     7     9   ar
     9     9    10   ar
    10    10    11    1
    11    11    12    1
    12    12    13    1
    13    13    14    2
    14    13    15   am
    15    15    16    1
    16    16    17   ar
    17    17    18   ar
    18    18    19   ar
    19    19    20    1
    20    20    21    2
    21    20    22   am
    22    22    23    1
    23    23    24   ar
    24    24    25   ar
    25    25    26   ar
    26    26    27   ar
    27    27    28   ar
    28    28    29   ar
    29    29    30   ar
    30    30    31   ar
    31    31    32   ar
    32    19    33   ar
    33    33    34   ar
    34    10    35   ar
    35    35    36   ar
    36    36     2   ar
    37    36     6   ar
    38    34    16   ar
    39    32    23   ar
    40    32    27   ar
    41     1    37    1
    42     1    38    1
    43     1    39    1
    44     3    40    1
    45     4    41    1
    46     5    42    1
    47     9    43    1
    48    11    44    1
    49    11    45    1
    50    12    46    1
    51    12    47    1
    52    15    48    1
    53    17    49    1
    54    18    50    1
    55    22    51    1
    56    24    52    1
    57    25    53    1
    58    26    54    1
    59    28    55    1
    60    29    56    1
    61    30    57    1
    62    33    58    1
    63    34    59    1
