@<TRIPOS>MOLECULE
*****
 94 96 0 0 0
SMALL
GASTEIGER

@<TRIPOS>ATOM
      1 C          12.4887    2.0240    0.4140 C.3     1  UNL1       -0.0056
      2 C          11.8472    0.7267    0.7569 C.2     1  UNL1        0.1382
      3 O          12.1008   -0.2169   -0.0076 O.2     1  UNL1       -0.2972
      4 C          11.0289    0.8058    1.9564 C.3     1  UNL1        0.0744
      5 C          10.6796   -0.5671    2.4535 C.2     1  UNL1        0.1965
      6 O          11.3020   -1.2196    1.6498 O.2     1  UNL1       -0.2848
      7 S          10.0457   -1.9698    3.3232 S.3     1  UNL1       -0.0862
      8 C           8.9525   -1.5802    4.6540 C.3     1  UNL1        0.0165
      9 C           7.5465   -1.3004    4.3303 C.3     1  UNL1        0.0210
     10 N           7.2744   -0.2805    3.3969 N.am    1  UNL1       -0.3145
     11 C           7.3556    0.1392    2.0842 C.2     1  UNL1        0.2145
     12 O           7.8745   -0.7595    1.3479 O.2     1  UNL1       -0.2758
     13 C           6.8793    1.4948    1.6244 C.3     1  UNL1        0.0395
     14 C           6.9056    1.4760    0.1383 C.3     1  UNL1        0.0199
     15 N           5.9745    0.4495   -0.3397 N.am    1  UNL1       -0.3127
     16 C           4.5676    0.5771   -0.0352 C.2     1  UNL1        0.2423
     17 O           4.0834    1.5468    0.6370 O.2     1  UNL1       -0.2730
     18 C           3.4547   -0.3212   -0.4072 C.3     1  UNL1        0.1380
     19 O           3.8759   -1.4190   -1.1596 O.3     1  UNL1       -0.3820
     20 C           2.4430    0.4899   -1.2053 C.3     1  UNL1        0.0235
     21 C           3.0782    1.0515   -2.4331 C.3     1  UNL1       -0.0549
     22 C           1.8151    1.5922   -0.3934 C.3     1  UNL1       -0.0549
     23 C           1.3621   -0.4865   -1.5978 C.3     1  UNL1        0.0670
     24 O           0.3719    0.1434   -2.3387 O.3     1  UNL1       -0.2857
     25 P          -1.0330   -0.8047   -2.3998 P.3     1  UNL1        0.4834
     26 O          -1.4736   -1.3150   -0.8305 O.3     1  UNL1       -0.3022
     27 O          -0.7760   -2.0142   -3.3046 O.2     1  UNL1       -0.2269
     28 O          -2.3490    0.0181   -3.0501 O.3     1  UNL1       -0.1861
     29 P          -3.0317    1.0857   -1.9604 P.3     1  UNL1        0.4835
     30 O          -2.3976    2.6472   -2.1222 O.3     1  UNL1       -0.3022
     31 O          -2.7379    0.6796   -0.5158 O.2     1  UNL1       -0.2269
     32 O          -4.7109    1.0413   -2.1117 O.3     1  UNL1       -0.2837
     33 C          -5.2872   -0.0224   -1.4253 C.3     1  UNL1        0.0879
     34 C          -6.7701    0.1111   -1.4708 C.3     1  UNL1        0.1142
     35 O          -7.4047   -0.9637   -0.7854 O.3     1  UNL1       -0.3456
     36 C          -8.7384   -0.5882   -1.0798 C.3     1  UNL1        0.1667
     37 C          -8.7910    0.7929   -0.4751 C.3     1  UNL1        0.1294
     38 O          -9.6148    1.5507   -1.3059 O.3     1  UNL1       -0.3846
     39 C          -7.3431    1.2711   -0.7236 C.3     1  UNL1        0.1283
     40 O          -7.3499    2.3892   -1.5443 O.3     1  UNL1       -0.2780
     41 P          -6.7799    3.7606   -0.7402 P.3     1  UNL1        0.4728
     42 O          -7.4638    3.8711    0.8134 O.3     1  UNL1       -0.3026
     43 O          -5.1111    3.6724   -0.6236 O.3     1  UNL1       -0.3026
     44 O          -7.1295    4.9574   -1.5826 O.2     1  UNL1       -0.2275
     45 N          -9.6821   -1.5160   -0.5440 N.ar    1  UNL1       -0.2855
     46 C         -10.9839   -1.2136   -0.4316 C.ar    1  UNL1        0.1004
     47 N         -11.7055   -2.2124    0.0966 N.ar    1  UNL1       -0.2306
     48 C         -10.8304   -3.2116    0.3382 C.ar    1  UNL1        0.1473
     49 C          -9.5969   -2.7643   -0.0607 C.ar    1  UNL1        0.1674
     50 N          -8.5080   -3.5397    0.0520 N.ar    1  UNL1       -0.2159
     51 C          -8.5672   -4.7762    0.5544 C.ar    1  UNL1        0.1205
     52 N          -9.7667   -5.2503    0.9590 N.ar    1  UNL1       -0.2188
     53 C         -10.8532   -4.4847    0.8497 C.ar    1  UNL1        0.1472
     54 N         -12.1614   -4.9118    1.2562 N.pl3   1  UNL1       -0.3413
     55 H          11.7657    2.8226    0.2585 H       1  UNL1        0.0306
     56 H          13.1566    1.8840   -0.4561 H       1  UNL1        0.0306
     57 H          13.1169    2.3158    1.3131 H       1  UNL1        0.0306
     58 H          11.5775    1.3036    2.8020 H       1  UNL1        0.0428
     59 H          10.0775    1.3437    1.7453 H       1  UNL1        0.0428
     60 H           9.4017   -0.6607    5.1853 H       1  UNL1        0.0396
     61 H           9.0093   -2.3698    5.4931 H       1  UNL1        0.0396
     62 H           6.9598   -1.1610    5.2984 H       1  UNL1        0.0470
     63 H           7.0768   -2.2668    3.8641 H       1  UNL1        0.0470
     64 H           6.7938    0.5091    3.9398 H       1  UNL1        0.1487
     65 H           7.5802    2.2644    2.0275 H       1  UNL1        0.0374
     66 H           5.8691    1.6389    2.0175 H       1  UNL1        0.0374
     67 H           7.9269    1.1935   -0.1956 H       1  UNL1        0.0467
     68 H           6.6769    2.4593   -0.2962 H       1  UNL1        0.0467
     69 H           6.1824   -0.4053   -0.8942 H       1  UNL1        0.1488
     70 H           2.9942   -0.6858    0.5358 H       1  UNL1        0.0696
     71 H           3.6919   -2.2723   -0.6695 H       1  UNL1        0.2105
     72 H           2.4198    0.9419   -3.3012 H       1  UNL1        0.0237
     73 H           3.2979    2.1461   -2.3185 H       1  UNL1        0.0237
     74 H           4.0350    0.5016   -2.6349 H       1  UNL1        0.0237
     75 H           2.3516    2.5229   -0.5997 H       1  UNL1        0.0237
     76 H           1.8033    1.3214    0.6949 H       1  UNL1        0.0237
     77 H           0.7406    1.7110   -0.6897 H       1  UNL1        0.0237
     78 H           0.9660   -0.9134   -0.6522 H       1  UNL1        0.0572
     79 H           1.8074   -1.3162   -2.1754 H       1  UNL1        0.0572
     80 H          -2.2261   -1.9756   -0.9023 H       1  UNL1        0.2220
     81 H          -2.0634    2.7069   -3.0758 H       1  UNL1        0.2220
     82 H          -4.9380   -0.9657   -1.8805 H       1  UNL1        0.0592
     83 H          -4.9040    0.0851   -0.3615 H       1  UNL1        0.0592
     84 H          -7.2066    0.0984   -2.4626 H       1  UNL1        0.0647
     85 H          -8.7521   -0.4998   -2.1983 H       1  UNL1        0.0866
     86 H          -9.0574    0.8129    0.5791 H       1  UNL1        0.0666
     87 H          -9.2106    1.5018   -2.2226 H       1  UNL1        0.2101
     88 H          -6.8542    1.4699    0.2537 H       1  UNL1        0.0656
     89 H          -7.3690    4.8359    1.0881 H       1  UNL1        0.2220
     90 H          -4.7857    3.5532    0.2945 H       1  UNL1        0.2220
     91 H         -11.5696   -0.3171   -0.6828 H       1  UNL1        0.1030
     92 H          -7.6391   -5.3244    0.6067 H       1  UNL1        0.1048
     93 H         -12.2064   -5.8931    1.6636 H       1  UNL1        0.1438
     94 H         -12.8559   -5.5724    1.6455 H       1  UNL1        0.1438
@<TRIPOS>BOND
     1     1     2    1
     2     2     3    2
     3     2     4    1
     4     4     5    1
     5     5     6    2
     6     5     7    1
     7     7     8    1
     8     8     9    1
     9     9    10    1
    10    10    11   am
    11    11    12    2
    12    11    13    1
    13    13    14    1
    14    14    15    1
    15    15    16   am
    16    16    17    2
    17    16    18    1
    18    18    19    1
    19    18    20    1
    20    20    21    1
    21    20    22    1
    22    20    23    1
    23    23    24    1
    24    24    25    1
    25    25    26    1
    26    25    27    2
    27    25    28    1
    28    28    29    1
    29    29    30    1
    30    29    31    2
    31    29    32    1
    32    32    33    1
    33    33    34    1
    34    34    35    1
    35    35    36    1
    36    36    37    1
    37    37    38    1
    38    37    39    1
    39    39    40    1
    40    40    41    1
    41    41    42    1
    42    41    43    1
    43    41    44    2
    44    36    45    1
    45    45    46   ar
    46    46    47   ar
    47    47    48   ar
    48    48    49   ar
    49    49    50   ar
    50    50    51   ar
    51    51    52   ar
    52    52    53   ar
    53    53    54    1
    54    39    34    1
    55    49    45   ar
    56    53    48   ar
    57     1    55    1
    58     1    56    1
    59     1    57    1
    60     4    58    1
    61     4    59    1
    62     8    60    1
    63     8    61    1
    64     9    62    1
    65     9    63    1
    66    10    64    1
    67    13    65    1
    68    13    66    1
    69    14    67    1
    70    14    68    1
    71    15    69    1
    72    18    70    1
    73    19    71    1
    74    21    72    1
    75    21    73    1
    76    21    74    1
    77    22    75    1
    78    22    76    1
    79    22    77    1
    80    23    78    1
    81    23    79    1
    82    26    80    1
    83    30    81    1
    84    33    82    1
    85    33    83    1
    86    34    84    1
    87    36    85    1
    88    37    86    1
    89    38    87    1
    90    39    88    1
    91    42    89    1
    92    43    90    1
    93    46    91    1
    94    51    92    1
    95    54    93    1
    96    54    94    1
