
     RDKit          3D

 48 51  0  0  0  0  0  0  0  0999 V2000
    8.1694   -2.6338   -3.1721 C   0  0  0  0  0  0  0  0  0  0  0  0
    7.4280   -3.3062   -2.5371 C   0  0  0  0  0  0  0  0  0  0  0  0
    6.5801   -4.1034   -1.8055 C   0  0  0  0  0  0  0  0  0  0  0  0
    5.9672   -3.7776   -0.6644 O   0  0  0  0  0  0  0  0  0  0  0  0
    5.0866   -2.7586   -0.4267 C   0  0  0  0  0  0  0  0  0  0  0  0
    4.5176   -2.7028    0.8228 C   0  0  0  0  0  0  0  0  0  0  0  0
    3.6256   -1.7245    1.0870 N   0  0  0  0  0  0  0  0  0  0  0  0
    3.2657   -0.7757    0.1562 C   0  0  0  0  0  0  0  0  0  0  0  0
    2.1622    0.0817    0.4560 C   0  0  0  0  0  0  0  0  0  0  0  0
    1.2698   -0.3630    1.4353 F   0  0  0  0  0  0  0  0  0  0  0  0
    1.8190    1.2310   -0.0705 C   0  0  0  0  0  0  0  0  0  0  0  0
    0.5799    1.8695    0.4636 C   0  0  0  0  0  0  0  0  0  0  0  0
    0.5822    2.9309    1.2765 C   0  0  0  0  0  0  0  0  0  0  0  0
   -0.6440    3.3768    1.7858 C   0  0  0  0  0  0  0  0  0  0  0  0
   -1.8259    2.7456    1.4573 C   0  0  0  0  0  0  0  0  0  0  0  0
   -3.0193    3.1668    1.9513 F   0  0  0  0  0  0  0  0  0  0  0  0
   -1.7985    1.6602    0.6132 C   0  0  0  0  0  0  0  0  0  0  0  0
   -3.0392    0.8468    0.2802 C   0  0  1  0  0  0  0  0  0  0  0  0
   -2.6833   -0.1601   -0.7864 C   0  0  0  0  0  0  0  0  0  0  0  0
   -3.4764    0.2586    1.4995 N   0  0  0  0  0  0  0  0  0  0  0  0
   -4.5698   -0.4001    1.6196 C   0  0  0  0  0  0  0  0  0  0  0  0
   -5.0553   -1.0084    2.7934 N   0  0  0  0  0  0  0  0  0  0  0  0
   -5.5427   -0.4461    0.0721 S   0  0  0  0  0  0  0  0  0  0  0  0
   -5.2735    1.2378   -0.6434 C   0  0  1  0  0  0  0  0  0  0  0  0
   -6.1799    1.6072   -1.7401 C   0  0  0  0  0  0  0  0  0  0  0  0
   -6.8574    1.8888   -2.5908 N   0  0  0  0  0  0  0  0  0  0  0  0
   -5.1941    2.2759    0.4510 C   0  0  0  0  0  0  0  0  0  0  0  0
   -4.0073    1.8540   -0.3332 C   0  0  1  0  0  0  0  0  0  0  0  0
   -0.6117    1.2262    0.1227 C   0  0  0  0  0  0  0  0  0  0  0  0
    3.8871   -0.8977   -1.0663 C   0  0  0  0  0  0  0  0  0  0  0  0
    4.7776   -1.8666   -1.3546 N   0  0  0  0  0  0  0  0  0  0  0  0
    8.8533   -2.0253   -3.7724 H   0  0  0  0  0  0  0  0  0  0  0  0
    5.6669   -4.3479   -2.5823 H   0  0  0  0  0  0  0  0  0  0  0  0
    7.0128   -5.1639   -1.6779 H   0  0  0  0  0  0  0  0  0  0  0  0
    4.7177   -3.3872    1.6292 H   0  0  0  0  0  0  0  0  0  0  0  0
    2.4361    1.6454   -0.8282 H   0  0  0  0  0  0  0  0  0  0  0  0
    1.5058    3.4723    1.5648 H   0  0  0  0  0  0  0  0  0  0  0  0
   -0.6749    4.2344    2.4615 H   0  0  0  0  0  0  0  0  0  0  0  0
   -2.1830    0.3297   -1.6759 H   0  0  0  0  0  0  0  0  0  0  0  0
   -1.9358   -0.9020   -0.4321 H   0  0  0  0  0  0  0  0  0  0  0  0
   -3.5253   -0.7285   -1.2016 H   0  0  0  0  0  0  0  0  0  0  0  0
   -5.8730   -1.6268    2.7167 H   0  0  0  0  0  0  0  0  0  0  0  0
   -4.6047   -0.8356    3.7001 H   0  0  0  0  0  0  0  0  0  0  0  0
   -5.3257    1.9819    1.5056 H   0  0  0  0  0  0  0  0  0  0  0  0
   -5.6410    3.2526    0.2382 H   0  0  0  0  0  0  0  0  0  0  0  0
   -3.5343    2.5761   -1.0105 H   0  0  0  0  0  0  0  0  0  0  0  0
   -0.5134    0.3712   -0.5592 H   0  0  0  0  0  0  0  0  0  0  0  0
    3.6789   -0.1794   -1.8668 H   0  0  0  0  0  0  0  0  0  0  0  0
  1  2  3  0
  2  3  1  0
  3  4  1  0
  4  5  1  0
  5  6  2  0
  6  7  1  0
  7  8  2  0
  8  9  1  0
  9 10  1  0
  9 11  2  0
 11 12  1  0
 12 13  2  0
 13 14  1  0
 14 15  2  0
 15 16  1  0
 15 17  1  0
 17 18  1  0
 18 19  1  6
 18 20  1  0
 20 21  2  0
 21 22  1  0
 21 23  1  0
 23 24  1  0
 24 25  1  6
 25 26  3  0
 24 27  1  0
 27 28  1  0
 17 29  2  0
  8 30  1  0
 30 31  2  0
 31  5  1  0
 29 12  1  0
 28 18  1  0
 28 24  1  0
  1 32  1  0
  3 33  1  0
  3 34  1  0
  6 35  1  0
 11 36  1  0
 13 37  1  0
 14 38  1  0
 19 39  1  0
 19 40  1  0
 19 41  1  0
 22 42  1  0
 22 43  1  0
 27 44  1  0
 27 45  1  0
 28 46  1  6
 29 47  1  0
 30 48  1  0
M  END
$$$$
