@<TRIPOS>MOLECULE
*****
 48 51 0 0 0
SMALL
GASTEIGER

@<TRIPOS>ATOM
      1 C           8.1694   -2.6338   -3.1721 C.1     1  UNL1       -0.1158
      2 C           7.4280   -3.3062   -2.5371 C.1     1  UNL1       -0.0647
      3 C           6.5801   -4.1034   -1.8055 C.3     1  UNL1        0.1513
      4 O           5.9672   -3.7776   -0.6644 O.3     1  UNL1       -0.4624
      5 C           5.0866   -2.7586   -0.4267 C.ar    1  UNL1        0.2344
      6 C           4.5176   -2.7028    0.8228 C.ar    1  UNL1        0.0899
      7 N           3.6256   -1.7245    1.0870 N.ar    1  UNL1       -0.2459
      8 C           3.2657   -0.7757    0.1562 C.ar    1  UNL1        0.1172
      9 C           2.1622    0.0817    0.4560 C.2     1  UNL1        0.1507
     10 F           1.2698   -0.3630    1.4353 F       1  UNL1       -0.2032
     11 C           1.8190    1.2310   -0.0705 C.2     1  UNL1       -0.0171
     12 C           0.5799    1.8695    0.4636 C.ar    1  UNL1       -0.0217
     13 C           0.5822    2.9309    1.2765 C.ar    1  UNL1       -0.0518
     14 C          -0.6440    3.3768    1.7858 C.ar    1  UNL1       -0.0255
     15 C          -1.8259    2.7456    1.4573 C.ar    1  UNL1        0.1289
     16 F          -3.0193    3.1668    1.9513 F       1  UNL1       -0.2051
     17 C          -1.7985    1.6602    0.6132 C.ar    1  UNL1        0.0158
     18 C          -3.0392    0.8468    0.2802 C.3     1  UNL1        0.0940
     19 C          -2.6833   -0.1601   -0.7864 C.3     1  UNL1       -0.0351
     20 N          -3.4764    0.2586    1.4995 N.2     1  UNL1       -0.2521
     21 C          -4.5698   -0.4001    1.6196 C.2     1  UNL1        0.1490
     22 N          -5.0553   -1.0084    2.7934 N.pl3   1  UNL1       -0.3380
     23 S          -5.5427   -0.4461    0.0721 S.3     1  UNL1       -0.0689
     24 C          -5.2735    1.2378   -0.6434 C.3     1  UNL1        0.1153
     25 C          -6.1799    1.6072   -1.7401 C.1     1  UNL1        0.0808
     26 N          -6.8574    1.8888   -2.5908 N.1     1  UNL1       -0.1951
     27 C          -5.1941    2.2759    0.4510 C.3     1  UNL1       -0.0169
     28 C          -4.0073    1.8540   -0.3332 C.3     1  UNL1        0.0185
     29 C          -0.6117    1.2262    0.1227 C.ar    1  UNL1       -0.0463
     30 C           3.8871   -0.8977   -1.0663 C.ar    1  UNL1        0.0596
     31 N           4.7776   -1.8666   -1.3546 N.ar    1  UNL1       -0.2178
     32 H           8.8533   -2.0253   -3.7724 H       1  UNL1        0.1229
     33 H           5.6669   -4.3479   -2.5823 H       1  UNL1        0.0837
     34 H           7.0128   -5.1639   -1.6779 H       1  UNL1        0.0837
     35 H           4.7177   -3.3872    1.6292 H       1  UNL1        0.0884
     36 H           2.4361    1.6454   -0.8282 H       1  UNL1        0.0653
     37 H           1.5058    3.4723    1.5648 H       1  UNL1        0.0624
     38 H          -0.6749    4.2344    2.4615 H       1  UNL1        0.0646
     39 H          -2.1830    0.3297   -1.6759 H       1  UNL1        0.0256
     40 H          -1.9358   -0.9020   -0.4321 H       1  UNL1        0.0256
     41 H          -3.5253   -0.7285   -1.2016 H       1  UNL1        0.0256
     42 H          -5.8730   -1.6268    2.7167 H       1  UNL1        0.1442
     43 H          -4.6047   -0.8356    3.7001 H       1  UNL1        0.1442
     44 H          -5.3257    1.9819    1.5056 H       1  UNL1        0.0293
     45 H          -5.6410    3.2526    0.2382 H       1  UNL1        0.0293
     46 H          -3.5343    2.5761   -1.0105 H       1  UNL1        0.0352
     47 H          -0.5134    0.3712   -0.5592 H       1  UNL1        0.0628
     48 H           3.6789   -0.1794   -1.8668 H       1  UNL1        0.0853
@<TRIPOS>BOND
     1     1     2    3
     2     2     3    1
     3     3     4    1
     4     4     5    1
     5     5     6   ar
     6     6     7   ar
     7     7     8   ar
     8     8     9    1
     9     9    10    1
    10     9    11    2
    11    11    12    1
    12    12    13   ar
    13    13    14   ar
    14    14    15   ar
    15    15    16    1
    16    15    17   ar
    17    17    18    1
    18    18    19    1
    19    18    20    1
    20    20    21    2
    21    21    22    1
    22    21    23    1
    23    23    24    1
    24    24    25    1
    25    25    26    3
    26    24    27    1
    27    27    28    1
    28    17    29   ar
    29     8    30   ar
    30    30    31   ar
    31    31     5   ar
    32    29    12   ar
    33    28    18    1
    34    28    24    1
    35     1    32    1
    36     3    33    1
    37     3    34    1
    38     6    35    1
    39    11    36    1
    40    13    37    1
    41    14    38    1
    42    19    39    1
    43    19    40    1
    44    19    41    1
    45    22    42    1
    46    22    43    1
    47    27    44    1
    48    27    45    1
    49    28    46    1
    50    29    47    1
    51    30    48    1
