@<TRIPOS>MOLECULE
*****
 68 71 0 0 0
SMALL
GASTEIGER

@<TRIPOS>ATOM
      1 C          -5.8023   -3.6187   -4.6385 C.3     1  UNL1        0.0001
      2 N          -4.8869   -3.8188   -3.5300 N.am    1  UNL1       -0.3181
      3 C          -4.9835   -3.0729   -2.3249 C.2     1  UNL1        0.2161
      4 O          -5.9221   -2.2135   -2.2691 O.2     1  UNL1       -0.2755
      5 C          -4.0783   -3.2490   -1.1856 C.3     1  UNL1        0.0407
      6 C          -4.4424   -2.2968   -0.0544 C.3     1  UNL1       -0.0198
      7 C          -3.2348   -1.4055    0.1353 C.3     1  UNL1        0.0611
      8 N          -3.0852   -0.9177    1.4839 N.am    1  UNL1       -0.3049
      9 C          -3.0575    0.4590    1.7829 C.2     1  UNL1        0.2444
     10 O          -3.1731    1.2514    0.7846 O.2     1  UNL1       -0.2702
     11 C          -2.9079    0.9414    3.1287 C.ar    1  UNL1        0.0369
     12 C          -2.9154    2.2988    3.3604 C.ar    1  UNL1       -0.0462
     13 C          -2.7737    2.8218    4.6473 C.ar    1  UNL1       -0.0195
     14 C          -2.6258    1.9147    5.6803 C.ar    1  UNL1        0.1169
     15 O          -2.4803    2.4056    6.9908 O.3     1  UNL1       -0.5068
     16 C          -2.6133    0.5596    5.4945 C.ar    1  UNL1       -0.0195
     17 C          -2.7590    0.0883    4.1808 C.ar    1  UNL1       -0.0462
     18 C          -2.0862   -2.2924   -0.2224 C.3     1  UNL1        0.1223
     19 O          -0.8734   -1.6326   -0.4473 O.3     1  UNL1       -0.4560
     20 C           0.3316   -2.0257    0.1249 C.2     1  UNL1        0.3397
     21 O           0.3606   -3.0112    0.8716 O.2     1  UNL1       -0.2449
     22 C           1.5519   -1.2819   -0.1532 C.ar    1  UNL1        0.0659
     23 C           2.7281   -1.7283    0.3993 C.ar    1  UNL1       -0.0053
     24 C           3.8848   -1.0227    0.1561 C.ar    1  UNL1        0.1320
     25 O           5.0862   -1.4945    0.7304 O.3     1  UNL1       -0.5059
     26 C           3.9515    0.1188   -0.6134 C.ar    1  UNL1        0.1050
     27 C           5.2096    0.7284   -0.9027 C.2     1  UNL1        0.2044
     28 O           6.2318   -0.0727   -0.8136 O.2     1  UNL1       -0.2863
     29 C           5.4869    2.0913   -1.2861 C.ar    1  UNL1        0.0778
     30 C           6.4777    2.2494   -2.2905 C.ar    1  UNL1        0.1285
     31 O           7.0451    1.1009   -2.8152 O.3     1  UNL1       -0.5060
     32 C           6.8394    3.5017   -2.7070 C.ar    1  UNL1       -0.0194
     33 C           6.2791    4.6390   -2.1897 C.ar    1  UNL1       -0.0575
     34 C           5.3269    4.5155   -1.2202 C.ar    1  UNL1       -0.0468
     35 C           4.9346    3.2240   -0.7669 C.ar    1  UNL1        0.0731
     36 C           4.0806    3.1761    0.4062 C.2     1  UNL1        0.3376
     37 O           3.8637    2.1637    1.0647 O.2     1  UNL1       -0.2451
     38 O           3.4281    4.3456    0.8668 O.3     1  UNL1       -0.4771
     39 C           2.7259    0.5282   -1.1522 C.ar    1  UNL1        0.1320
     40 O           2.6954    1.6504   -1.9370 O.3     1  UNL1       -0.5059
     41 C           1.5538   -0.1463   -0.9334 C.ar    1  UNL1       -0.0053
     42 C          -2.6246   -2.9217   -1.5251 C.3     1  UNL1       -0.0027
     43 H          -6.7830   -4.0427   -4.3388 H       1  UNL1        0.0426
     44 H          -5.4300   -4.0364   -5.5786 H       1  UNL1        0.0426
     45 H          -5.9321   -2.5091   -4.7921 H       1  UNL1        0.0426
     46 H          -4.1132   -4.5243   -3.5735 H       1  UNL1        0.1484
     47 H          -4.0720   -4.2953   -0.7829 H       1  UNL1        0.0396
     48 H          -4.5790   -2.8568    0.8754 H       1  UNL1        0.0291
     49 H          -5.3616   -1.7021   -0.3330 H       1  UNL1        0.0291
     50 H          -3.2969   -0.5405   -0.5724 H       1  UNL1        0.0535
     51 H          -2.9970   -1.6174    2.2340 H       1  UNL1        0.1494
     52 H          -3.0310    3.0334    2.5587 H       1  UNL1        0.0626
     53 H          -2.7786    3.8810    4.8381 H       1  UNL1        0.0654
     54 H          -2.5143    3.3849    7.1985 H       1  UNL1        0.2921
     55 H          -2.4971   -0.1191    6.3229 H       1  UNL1        0.0654
     56 H          -2.7413   -0.9903    4.0851 H       1  UNL1        0.0626
     57 H          -1.9962   -3.1405    0.4816 H       1  UNL1        0.0753
     58 H           2.7359   -2.6366    1.0247 H       1  UNL1        0.0662
     59 H           5.6396   -2.1293    0.1313 H       1  UNL1        0.2922
     60 H           6.9820    0.7940   -3.7662 H       1  UNL1        0.2922
     61 H           7.5943    3.5971   -3.4724 H       1  UNL1        0.0654
     62 H           6.5718    5.6422   -2.5286 H       1  UNL1        0.0619
     63 H           4.8355    5.3813   -0.7622 H       1  UNL1        0.0626
     64 H           3.1472    4.3905    1.8592 H       1  UNL1        0.2954
     65 H           1.9368    2.3329   -1.9681 H       1  UNL1        0.2922
     66 H           0.5986    0.1670   -1.3464 H       1  UNL1        0.0662
     67 H          -2.0604   -3.8324   -1.7729 H       1  UNL1        0.0309
     68 H          -2.6056   -2.1821   -2.3474 H       1  UNL1        0.0309
@<TRIPOS>BOND
     1     1     2    1
     2     2     3   am
     3     3     4    2
     4     3     5    1
     5     5     6    1
     6     6     7    1
     7     7     8    1
     8     8     9   am
     9     9    10    2
    10     9    11    1
    11    11    12   ar
    12    12    13   ar
    13    13    14   ar
    14    14    15    1
    15    14    16   ar
    16    16    17   ar
    17     7    18    1
    18    18    19    1
    19    19    20    1
    20    20    21    2
    21    20    22    1
    22    22    23   ar
    23    23    24   ar
    24    24    25    1
    25    24    26   ar
    26    26    27    1
    27    27    28    2
    28    27    29    1
    29    29    30   ar
    30    30    31    1
    31    30    32   ar
    32    32    33   ar
    33    33    34   ar
    34    34    35   ar
    35    35    36    1
    36    36    37    2
    37    36    38    1
    38    26    39   ar
    39    39    40    1
    40    39    41   ar
    41    18    42    1
    42    42     5    1
    43    17    11   ar
    44    41    22   ar
    45    35    29   ar
    46     1    43    1
    47     1    44    1
    48     1    45    1
    49     2    46    1
    50     5    47    1
    51     6    48    1
    52     6    49    1
    53     7    50    1
    54     8    51    1
    55    12    52    1
    56    13    53    1
    57    15    54    1
    58    16    55    1
    59    17    56    1
    60    18    57    1
    61    23    58    1
    62    25    59    1
    63    31    60    1
    64    32    61    1
    65    33    62    1
    66    34    63    1
    67    38    64    1
    68    40    65    1
    69    41    66    1
    70    42    67    1
    71    42    68    1
