
     RDKit          3D

 69 72  0  0  0  0  0  0  0  0999 V2000
   -0.9666   -3.1924    2.9129 C   0  0  0  0  0  0  0  0  0  0  0  0
   -0.6995   -1.9495    2.3403 O   0  0  0  0  0  0  0  0  0  0  0  0
   -1.5566   -1.2253    1.5386 C   0  0  0  0  0  0  0  0  0  0  0  0
   -2.8011   -1.7256    1.2433 N   0  0  0  0  0  0  0  0  0  0  0  0
   -3.6798   -1.0744    0.4724 C   0  0  0  0  0  0  0  0  0  0  0  0
   -4.9751   -1.6251    0.1793 N   0  0  0  0  0  0  0  0  0  0  0  0
   -5.8438   -0.8316   -0.6681 C   0  0  0  0  0  0  0  0  0  0  0  0
   -7.1155   -1.5772   -0.8611 C   0  0  0  0  0  0  0  0  0  0  0  0
   -8.0876   -0.9233   -1.6822 N   0  0  0  0  0  0  0  0  0  0  0  0
   -8.6426    0.2638   -1.0781 C   0  0  0  0  0  0  0  0  0  0  0  0
   -9.6982    0.7734   -2.0674 C   0  0  0  0  0  0  0  0  0  0  0  0
   -9.0544    1.2984   -3.1667 O   0  0  0  0  0  0  0  0  0  0  0  0
   -7.7564    0.8661   -3.3253 C   0  0  0  0  0  0  0  0  0  0  0  0
   -7.6265   -0.6274   -3.0154 C   0  0  0  0  0  0  0  0  0  0  0  0
   -3.2971    0.1129   -0.0151 N   0  0  0  0  0  0  0  0  0  0  0  0
   -2.0940    0.6470    0.2421 C   0  0  0  0  0  0  0  0  0  0  0  0
   -1.1568   -0.0153    1.0459 C   0  0  0  0  0  0  0  0  0  0  0  0
    0.1258    0.6034    1.2885 C   0  0  0  0  0  0  0  0  0  0  0  0
    0.3483    1.7517    0.7499 O   0  0  0  0  0  0  0  0  0  0  0  0
    1.1922    0.1131    2.0501 N   0  0  0  0  0  0  0  0  0  0  0  0
    2.4302    0.8375    2.2116 C   0  0  0  0  0  0  0  0  0  0  0  0
    3.4845    0.6875    1.3599 C   0  0  0  0  0  0  0  0  0  0  0  0
    4.6448    1.3804    1.5282 C   0  0  0  0  0  0  0  0  0  0  0  0
    5.8051    1.2620    0.6497 C   0  0  0  0  0  0  0  0  0  0  0  0
    6.8378    1.9357    0.8661 O   0  0  0  0  0  0  0  0  0  0  0  0
    5.7852    0.3832   -0.4642 N   0  0  0  0  0  0  0  0  0  0  0  0
    6.9602    0.3180   -1.2851 C   0  0  0  0  0  0  0  0  0  0  0  0
    7.1120    1.1627   -2.3795 C   0  0  0  0  0  0  0  0  0  0  0  0
    8.2477    1.0822   -3.1547 C   0  0  0  0  0  0  0  0  0  0  0  0
    9.2399    0.1742   -2.8620 C   0  0  0  0  0  0  0  0  0  0  0  0
    9.1209   -0.6760   -1.7864 C   0  0  0  0  0  0  0  0  0  0  0  0
   10.2024   -1.6582   -1.4770 C   0  0  0  0  0  0  0  0  0  0  0  0
   10.9416   -1.9221   -2.5963 F   0  0  0  0  0  0  0  0  0  0  0  0
   10.9884   -1.2146   -0.4262 F   0  0  0  0  0  0  0  0  0  0  0  0
    9.6073   -2.8445   -1.0760 F   0  0  0  0  0  0  0  0  0  0  0  0
    7.9699   -0.5778   -1.0198 C   0  0  0  0  0  0  0  0  0  0  0  0
    4.7300    2.2559    2.6029 C   0  0  0  0  0  0  0  0  0  0  0  0
    3.6862    2.4275    3.4758 C   0  0  0  0  0  0  0  0  0  0  0  0
    2.5377    1.7088    3.2669 C   0  0  0  0  0  0  0  0  0  0  0  0
    1.3918    1.8786    4.2004 C   0  0  0  0  0  0  0  0  0  0  0  0
   -0.7246   -3.1324    3.9929 H   0  0  0  0  0  0  0  0  0  0  0  0
   -0.3755   -3.9594    2.3943 H   0  0  0  0  0  0  0  0  0  0  0  0
   -2.0363   -3.4593    2.7468 H   0  0  0  0  0  0  0  0  0  0  0  0
   -5.2780   -2.5391    0.5505 H   0  0  0  0  0  0  0  0  0  0  0  0
   -5.2843   -0.6379   -1.6001 H   0  0  0  0  0  0  0  0  0  0  0  0
   -5.9913    0.1638   -0.1858 H   0  0  0  0  0  0  0  0  0  0  0  0
   -7.5838   -1.7014    0.1516 H   0  0  0  0  0  0  0  0  0  0  0  0
   -6.8856   -2.6019   -1.2017 H   0  0  0  0  0  0  0  0  0  0  0  0
   -7.9208    1.0598   -0.8942 H   0  0  0  0  0  0  0  0  0  0  0  0
   -9.2170   -0.0429   -0.1795 H   0  0  0  0  0  0  0  0  0  0  0  0
  -10.2739    1.5616   -1.5554 H   0  0  0  0  0  0  0  0  0  0  0  0
  -10.4093   -0.0413   -2.3195 H   0  0  0  0  0  0  0  0  0  0  0  0
   -7.0000    1.4567   -2.8097 H   0  0  0  0  0  0  0  0  0  0  0  0
   -7.5234    0.9569   -4.4256 H   0  0  0  0  0  0  0  0  0  0  0  0
   -6.6129   -0.9658   -3.2277 H   0  0  0  0  0  0  0  0  0  0  0  0
   -8.3103   -1.1414   -3.7222 H   0  0  0  0  0  0  0  0  0  0  0  0
   -1.7900    1.6110   -0.1573 H   0  0  0  0  0  0  0  0  0  0  0  0
    1.1198   -0.7958    2.5245 H   0  0  0  0  0  0  0  0  0  0  0  0
    3.4029   -0.0049    0.5191 H   0  0  0  0  0  0  0  0  0  0  0  0
    4.9788   -0.2104   -0.7188 H   0  0  0  0  0  0  0  0  0  0  0  0
    6.3349    1.8670   -2.6013 H   0  0  0  0  0  0  0  0  0  0  0  0
    8.3911    1.7272   -4.0109 H   0  0  0  0  0  0  0  0  0  0  0  0
   10.1311    0.1053   -3.4645 H   0  0  0  0  0  0  0  0  0  0  0  0
    7.8730   -1.2406   -0.1779 H   0  0  0  0  0  0  0  0  0  0  0  0
    5.6437    2.8262    2.7665 H   0  0  0  0  0  0  0  0  0  0  0  0
    3.7979    3.1282    4.3089 H   0  0  0  0  0  0  0  0  0  0  0  0
    1.5285    2.7483    4.8389 H   0  0  0  0  0  0  0  0  0  0  0  0
    1.1810    0.9465    4.7671 H   0  0  0  0  0  0  0  0  0  0  0  0
    0.4965    2.0526    3.5419 H   0  0  0  0  0  0  0  0  0  0  0  0
  1  2  1  0
  2  3  1  0
  3  4  2  0
  4  5  1  0
  5  6  1  0
  6  7  1  0
  7  8  1  0
  8  9  1  0
  9 10  1  0
 10 11  1  0
 11 12  1  0
 12 13  1  0
 13 14  1  0
  5 15  2  0
 15 16  1  0
 16 17  2  0
 17 18  1  0
 18 19  2  0
 18 20  1  0
 20 21  1  0
 21 22  2  0
 22 23  1  0
 23 24  1  0
 24 25  2  0
 24 26  1  0
 26 27  1  0
 27 28  2  0
 28 29  1  0
 29 30  2  0
 30 31  1  0
 31 32  1  0
 32 33  1  0
 32 34  1  0
 32 35  1  0
 31 36  2  0
 23 37  2  0
 37 38  1  0
 38 39  2  0
 39 40  1  0
 17  3  1  0
 39 21  1  0
 14  9  1  0
 36 27  1  0
  1 41  1  0
  1 42  1  0
  1 43  1  0
  6 44  1  0
  7 45  1  0
  7 46  1  0
  8 47  1  0
  8 48  1  0
 10 49  1  0
 10 50  1  0
 11 51  1  0
 11 52  1  0
 13 53  1  0
 13 54  1  0
 14 55  1  0
 14 56  1  0
 16 57  1  0
 20 58  1  0
 22 59  1  0
 26 60  1  0
 28 61  1  0
 29 62  1  0
 30 63  1  0
 36 64  1  0
 37 65  1  0
 38 66  1  0
 40 67  1  0
 40 68  1  0
 40 69  1  0
M  END
$$$$
