@<TRIPOS>MOLECULE
*****
 69 72 0 0 0
SMALL
GASTEIGER

@<TRIPOS>ATOM
      1 C          -0.9666   -3.1924    2.9129 C.3     1  UNL1        0.0804
      2 O          -0.6995   -1.9495    2.3403 O.3     1  UNL1       -0.4790
      3 C          -1.5566   -1.2253    1.5386 C.ar    1  UNL1        0.2313
      4 N          -2.8011   -1.7256    1.2433 N.ar    1  UNL1       -0.1788
      5 C          -3.6798   -1.0744    0.4724 C.ar    1  UNL1        0.2183
      6 N          -4.9751   -1.6251    0.1793 N.pl3   1  UNL1       -0.3122
      7 C          -5.8438   -0.8316   -0.6681 C.3     1  UNL1        0.0246
      8 C          -7.1155   -1.5772   -0.8611 C.3     1  UNL1        0.0146
      9 N          -8.0876   -0.9233   -1.6822 N.3     1  UNL1       -0.2965
     10 C          -8.6426    0.2638   -1.0781 C.3     1  UNL1        0.0225
     11 C          -9.6982    0.7734   -2.0674 C.3     1  UNL1        0.0604
     12 O          -9.0544    1.2984   -3.1667 O.3     1  UNL1       -0.3772
     13 C          -7.7564    0.8661   -3.3253 C.3     1  UNL1        0.0604
     14 C          -7.6265   -0.6274   -3.0154 C.3     1  UNL1        0.0225
     15 N          -3.2971    0.1129   -0.0151 N.ar    1  UNL1       -0.2220
     16 C          -2.0940    0.6470    0.2421 C.ar    1  UNL1        0.0485
     17 C          -1.1568   -0.0153    1.0459 C.ar    1  UNL1        0.1165
     18 C           0.1258    0.6034    1.2885 C.2     1  UNL1        0.2549
     19 O           0.3483    1.7517    0.7499 O.2     1  UNL1       -0.2696
     20 N           1.1922    0.1131    2.0501 N.am    1  UNL1       -0.2811
     21 C           2.4302    0.8375    2.2116 C.ar    1  UNL1        0.0373
     22 C           3.4845    0.6875    1.3599 C.ar    1  UNL1       -0.0281
     23 C           4.6448    1.3804    1.5282 C.ar    1  UNL1        0.0388
     24 C           5.8051    1.2620    0.6497 C.2     1  UNL1        0.2483
     25 O           6.8378    1.9357    0.8661 O.2     1  UNL1       -0.2699
     26 N           5.7852    0.3832   -0.4642 N.am    1  UNL1       -0.2815
     27 C           6.9602    0.3180   -1.2851 C.ar    1  UNL1        0.0342
     28 C           7.1120    1.1627   -2.3795 C.ar    1  UNL1       -0.0404
     29 C           8.2477    1.0822   -3.1547 C.ar    1  UNL1       -0.0595
     30 C           9.2399    0.1742   -2.8620 C.ar    1  UNL1       -0.0500
     31 C           9.1209   -0.6760   -1.7864 C.ar    1  UNL1        0.0566
     32 C          10.2024   -1.6582   -1.4770 C.3     1  UNL1        0.4175
     33 F          10.9416   -1.9221   -2.5963 F       1  UNL1       -0.1659
     34 F          10.9884   -1.2146   -0.4262 F       1  UNL1       -0.1659
     35 F           9.6073   -2.8445   -1.0760 F       1  UNL1       -0.1659
     36 C           7.9699   -0.5778   -1.0198 C.ar    1  UNL1       -0.0288
     37 C           4.7300    2.2559    2.6029 C.ar    1  UNL1       -0.0493
     38 C           3.6862    2.4275    3.4758 C.ar    1  UNL1       -0.0564
     39 C           2.5377    1.7088    3.2669 C.ar    1  UNL1       -0.0292
     40 C           1.3918    1.8786    4.2004 C.3     1  UNL1       -0.0380
     41 H          -0.7246   -3.1324    3.9929 H       1  UNL1        0.0660
     42 H          -0.3755   -3.9594    2.3943 H       1  UNL1        0.0660
     43 H          -2.0363   -3.4593    2.7468 H       1  UNL1        0.0660
     44 H          -5.2780   -2.5391    0.5505 H       1  UNL1        0.1489
     45 H          -5.2843   -0.6379   -1.6001 H       1  UNL1        0.0475
     46 H          -5.9913    0.1638   -0.1858 H       1  UNL1        0.0475
     47 H          -7.5838   -1.7014    0.1516 H       1  UNL1        0.0442
     48 H          -6.8856   -2.6019   -1.2017 H       1  UNL1        0.0442
     49 H          -7.9208    1.0598   -0.8942 H       1  UNL1        0.0449
     50 H          -9.2170   -0.0429   -0.1795 H       1  UNL1        0.0449
     51 H         -10.2739    1.5616   -1.5554 H       1  UNL1        0.0572
     52 H         -10.4093   -0.0413   -2.3195 H       1  UNL1        0.0572
     53 H          -7.0000    1.4567   -2.8097 H       1  UNL1        0.0572
     54 H          -7.5234    0.9569   -4.4256 H       1  UNL1        0.0572
     55 H          -6.6129   -0.9658   -3.2277 H       1  UNL1        0.0449
     56 H          -8.3103   -1.1414   -3.7222 H       1  UNL1        0.0449
     57 H          -1.7900    1.6110   -0.1573 H       1  UNL1        0.0840
     58 H           1.1198   -0.7958    2.5245 H       1  UNL1        0.1551
     59 H           3.4029   -0.0049    0.5191 H       1  UNL1        0.0644
     60 H           4.9788   -0.2104   -0.7188 H       1  UNL1        0.1551
     61 H           6.3349    1.8670   -2.6013 H       1  UNL1        0.0636
     62 H           8.3911    1.7272   -4.0109 H       1  UNL1        0.0618
     63 H          10.1311    0.1053   -3.4645 H       1  UNL1        0.0623
     64 H           7.8730   -1.2406   -0.1779 H       1  UNL1        0.0642
     65 H           5.6437    2.8262    2.7665 H       1  UNL1        0.0625
     66 H           3.7979    3.1282    4.3089 H       1  UNL1        0.0621
     67 H           1.5285    2.7483    4.8389 H       1  UNL1        0.0278
     68 H           1.1810    0.9465    4.7671 H       1  UNL1        0.0278
     69 H           0.4965    2.0526    3.5419 H       1  UNL1        0.0278
@<TRIPOS>BOND
     1     1     2    1
     2     2     3    1
     3     3     4   ar
     4     4     5   ar
     5     5     6    1
     6     6     7    1
     7     7     8    1
     8     8     9    1
     9     9    10    1
    10    10    11    1
    11    11    12    1
    12    12    13    1
    13    13    14    1
    14     5    15   ar
    15    15    16   ar
    16    16    17   ar
    17    17    18    1
    18    18    19    2
    19    18    20   am
    20    20    21    1
    21    21    22   ar
    22    22    23   ar
    23    23    24    1
    24    24    25    2
    25    24    26   am
    26    26    27    1
    27    27    28   ar
    28    28    29   ar
    29    29    30   ar
    30    30    31   ar
    31    31    32    1
    32    32    33    1
    33    32    34    1
    34    32    35    1
    35    31    36   ar
    36    23    37   ar
    37    37    38   ar
    38    38    39   ar
    39    39    40    1
    40    17     3   ar
    41    39    21   ar
    42    14     9    1
    43    36    27   ar
    44     1    41    1
    45     1    42    1
    46     1    43    1
    47     6    44    1
    48     7    45    1
    49     7    46    1
    50     8    47    1
    51     8    48    1
    52    10    49    1
    53    10    50    1
    54    11    51    1
    55    11    52    1
    56    13    53    1
    57    13    54    1
    58    14    55    1
    59    14    56    1
    60    16    57    1
    61    20    58    1
    62    22    59    1
    63    26    60    1
    64    28    61    1
    65    29    62    1
    66    30    63    1
    67    36    64    1
    68    37    65    1
    69    38    66    1
    70    40    67    1
    71    40    68    1
    72    40    69    1
