@<TRIPOS>MOLECULE
*****
 64 69 0 0 0
SMALL
GASTEIGER

@<TRIPOS>ATOM
      1 C          -3.2231   -1.8031   -0.8565 C.3     1  UNL1       -0.0373
      2 C          -4.0332   -0.6680   -0.3767 C.ar    1  UNL1       -0.0202
      3 C          -3.8081    0.5926   -0.8033 C.ar    1  UNL1        0.0350
      4 N          -2.8272    0.9931   -1.7129 N.pl3   1  UNL1       -0.3126
      5 C          -2.5901    0.5530   -3.0251 C.ar    1  UNL1        0.0626
      6 C          -3.5770    0.8159   -3.9536 C.ar    1  UNL1        0.0916
      7 C          -4.8119    1.4491   -3.6165 C.1     1  UNL1        0.1026
      8 N          -5.8189    1.9461   -3.3337 N.1     1  UNL1       -0.1908
      9 C          -3.3534    0.4467   -5.2607 C.ar    1  UNL1        0.0468
     10 N          -2.2121   -0.1534   -5.6377 N.ar    1  UNL1       -0.2612
     11 C          -1.2588   -0.4077   -4.7418 C.ar    1  UNL1        0.0401
     12 C          -1.4333   -0.0526   -3.3933 C.ar    1  UNL1        0.0577
     13 C          -0.3303   -0.3773   -2.4578 C.ar    1  UNL1        0.1395
     14 C          -0.2692   -0.2312   -1.1091 C.ar    1  UNL1       -0.0080
     15 C           0.9846   -0.6779   -0.6493 C.ar    1  UNL1        0.0211
     16 C           1.5734   -0.7579    0.5946 C.ar    1  UNL1       -0.0466
     17 C           2.8640   -1.2607    0.7358 C.ar    1  UNL1       -0.0326
     18 C           3.5343   -1.3798    2.0358 C.3     1  UNL1        0.0241
     19 N           4.2274   -0.2080    2.4010 N.3     1  UNL1       -0.2957
     20 C           3.4346    0.9900    2.4477 C.3     1  UNL1        0.0120
     21 C           4.2466    2.1436    3.0275 C.3     1  UNL1        0.0114
     22 N           5.4523    2.3825    2.2889 N.3     1  UNL1       -0.3029
     23 C           6.5644    2.4900    3.1813 C.3     1  UNL1       -0.0127
     24 C           5.6645    1.4163    1.2618 C.3     1  UNL1        0.0114
     25 C           5.4987    0.0216    1.8370 C.3     1  UNL1        0.0120
     26 C           3.4893   -1.6589   -0.4162 C.ar    1  UNL1       -0.0538
     27 C           2.9070   -1.5814   -1.6588 C.ar    1  UNL1       -0.0184
     28 C           1.6213   -1.0810   -1.8026 C.ar    1  UNL1        0.1357
     29 O           0.8339   -0.8926   -2.8188 O.2     1  UNL1       -0.4547
     30 C          -4.6478    1.5876   -0.2946 C.ar    1  UNL1       -0.0383
     31 C          -5.6642    1.3532    0.5952 C.ar    1  UNL1       -0.0360
     32 C          -5.8879    0.0777    1.0242 C.ar    1  UNL1        0.0468
     33 N          -6.7738   -0.4911    1.8694 N.ar    1  UNL1       -0.3606
     34 C          -6.5640   -1.8153    1.9470 C.ar    1  UNL1        0.0027
     35 C          -5.4936   -2.1063    1.1121 C.ar    1  UNL1       -0.0364
     36 C          -5.0768   -0.9235    0.5402 C.ar    1  UNL1        0.0043
     37 H          -2.3252   -1.9952   -0.2330 H       1  UNL1        0.0278
     38 H          -3.0519   -1.8329   -1.9413 H       1  UNL1        0.0278
     39 H          -3.8522   -2.7391   -0.6744 H       1  UNL1        0.0278
     40 H          -2.1563    1.7776   -1.4074 H       1  UNL1        0.1522
     41 H          -4.1017    0.6303   -6.0437 H       1  UNL1        0.0843
     42 H          -0.3207   -0.8921   -5.0043 H       1  UNL1        0.0837
     43 H          -1.0051    0.1373   -0.4272 H       1  UNL1        0.0661
     44 H           1.0309   -0.4310    1.4483 H       1  UNL1        0.0628
     45 H           2.7403   -1.5585    2.8226 H       1  UNL1        0.0476
     46 H           4.2343   -2.2489    2.0811 H       1  UNL1        0.0476
     47 H           3.0491    1.2674    1.4463 H       1  UNL1        0.0439
     48 H           2.5441    0.8819    3.1016 H       1  UNL1        0.0439
     49 H           4.4822    1.8439    4.0903 H       1  UNL1        0.0439
     50 H           3.5761    3.0138    3.0802 H       1  UNL1        0.0439
     51 H           7.2885    1.6627    3.1431 H       1  UNL1        0.0391
     52 H           7.1106    3.4411    2.9742 H       1  UNL1        0.0391
     53 H           6.2055    2.5969    4.2406 H       1  UNL1        0.0391
     54 H           6.7537    1.4804    0.9747 H       1  UNL1        0.0439
     55 H           5.0669    1.5861    0.3580 H       1  UNL1        0.0439
     56 H           5.7803   -0.7351    1.0783 H       1  UNL1        0.0439
     57 H           6.2452   -0.0197    2.6863 H       1  UNL1        0.0439
     58 H           4.4928   -2.0664   -0.3957 H       1  UNL1        0.0622
     59 H           3.4285   -1.9061   -2.5599 H       1  UNL1        0.0654
     60 H          -4.4617    2.6055   -0.6437 H       1  UNL1        0.0637
     61 H          -6.2784    2.1796    0.9484 H       1  UNL1        0.0639
     62 H          -7.5255    0.0441    2.3931 H       1  UNL1        0.1653
     63 H          -7.1411   -2.4942    2.5563 H       1  UNL1        0.0807
     64 H          -5.0505   -3.0700    0.9265 H       1  UNL1        0.0639
@<TRIPOS>BOND
     1     1     2    1
     2     2     3   ar
     3     3     4    1
     4     4     5    1
     5     5     6   ar
     6     6     7    1
     7     7     8    3
     8     6     9   ar
     9     9    10   ar
    10    10    11   ar
    11    11    12   ar
    12    12    13    1
    13    13    14   ar
    14    14    15   ar
    15    15    16   ar
    16    16    17   ar
    17    17    18    1
    18    18    19    1
    19    19    20    1
    20    20    21    1
    21    21    22    1
    22    22    23    1
    23    22    24    1
    24    24    25    1
    25    17    26   ar
    26    26    27   ar
    27    27    28   ar
    28    28    29   ar
    29     3    30   ar
    30    30    31   ar
    31    31    32   ar
    32    32    33   ar
    33    33    34   ar
    34    34    35   ar
    35    35    36   ar
    36    36     2   ar
    37    12     5   ar
    38    29    13   ar
    39    36    32   ar
    40    28    15   ar
    41    25    19    1
    42     1    37    1
    43     1    38    1
    44     1    39    1
    45     4    40    1
    46     9    41    1
    47    11    42    1
    48    14    43    1
    49    16    44    1
    50    18    45    1
    51    18    46    1
    52    20    47    1
    53    20    48    1
    54    21    49    1
    55    21    50    1
    56    23    51    1
    57    23    52    1
    58    23    53    1
    59    24    54    1
    60    24    55    1
    61    25    56    1
    62    25    57    1
    63    26    58    1
    64    27    59    1
    65    30    60    1
    66    31    61    1
    67    33    62    1
    68    34    63    1
    69    35    64    1
