
     RDKit          3D

 64 69  0  0  0  0  0  0  0  0999 V2000
   -3.2231   -1.8031   -0.8565 C   0  0  0  0  0  0  0  0  0  0  0  0
   -4.0332   -0.6680   -0.3767 C   0  0  0  0  0  0  0  0  0  0  0  0
   -3.8081    0.5926   -0.8033 C   0  0  0  0  0  0  0  0  0  0  0  0
   -2.8272    0.9931   -1.7129 N   0  0  0  0  0  0  0  0  0  0  0  0
   -2.5901    0.5530   -3.0251 C   0  0  0  0  0  0  0  0  0  0  0  0
   -3.5770    0.8159   -3.9536 C   0  0  0  0  0  0  0  0  0  0  0  0
   -4.8119    1.4491   -3.6165 C   0  0  0  0  0  0  0  0  0  0  0  0
   -5.8189    1.9461   -3.3337 N   0  0  0  0  0  0  0  0  0  0  0  0
   -3.3534    0.4467   -5.2607 C   0  0  0  0  0  0  0  0  0  0  0  0
   -2.2121   -0.1534   -5.6377 N   0  0  0  0  0  0  0  0  0  0  0  0
   -1.2588   -0.4077   -4.7418 C   0  0  0  0  0  0  0  0  0  0  0  0
   -1.4333   -0.0526   -3.3933 C   0  0  0  0  0  0  0  0  0  0  0  0
   -0.3303   -0.3773   -2.4578 C   0  0  0  0  0  0  0  0  0  0  0  0
   -0.2692   -0.2312   -1.1091 C   0  0  0  0  0  0  0  0  0  0  0  0
    0.9846   -0.6779   -0.6493 C   0  0  0  0  0  0  0  0  0  0  0  0
    1.5734   -0.7579    0.5946 C   0  0  0  0  0  0  0  0  0  0  0  0
    2.8640   -1.2607    0.7358 C   0  0  0  0  0  0  0  0  0  0  0  0
    3.5343   -1.3798    2.0358 C   0  0  0  0  0  0  0  0  0  0  0  0
    4.2274   -0.2080    2.4010 N   0  0  0  0  0  0  0  0  0  0  0  0
    3.4346    0.9900    2.4477 C   0  0  0  0  0  0  0  0  0  0  0  0
    4.2466    2.1436    3.0275 C   0  0  0  0  0  0  0  0  0  0  0  0
    5.4523    2.3825    2.2889 N   0  0  0  0  0  0  0  0  0  0  0  0
    6.5644    2.4900    3.1813 C   0  0  0  0  0  0  0  0  0  0  0  0
    5.6645    1.4163    1.2618 C   0  0  0  0  0  0  0  0  0  0  0  0
    5.4987    0.0216    1.8370 C   0  0  0  0  0  0  0  0  0  0  0  0
    3.4893   -1.6589   -0.4162 C   0  0  0  0  0  0  0  0  0  0  0  0
    2.9070   -1.5814   -1.6588 C   0  0  0  0  0  0  0  0  0  0  0  0
    1.6213   -1.0810   -1.8026 C   0  0  0  0  0  0  0  0  0  0  0  0
    0.8339   -0.8926   -2.8188 O   0  0  0  0  0  0  0  0  0  0  0  0
   -4.6478    1.5876   -0.2946 C   0  0  0  0  0  0  0  0  0  0  0  0
   -5.6642    1.3532    0.5952 C   0  0  0  0  0  0  0  0  0  0  0  0
   -5.8879    0.0777    1.0242 C   0  0  0  0  0  0  0  0  0  0  0  0
   -6.7738   -0.4911    1.8694 N   0  0  0  0  0  0  0  0  0  0  0  0
   -6.5640   -1.8153    1.9470 C   0  0  0  0  0  0  0  0  0  0  0  0
   -5.4936   -2.1063    1.1121 C   0  0  0  0  0  0  0  0  0  0  0  0
   -5.0768   -0.9235    0.5402 C   0  0  0  0  0  0  0  0  0  0  0  0
   -2.3252   -1.9952   -0.2330 H   0  0  0  0  0  0  0  0  0  0  0  0
   -3.0519   -1.8329   -1.9413 H   0  0  0  0  0  0  0  0  0  0  0  0
   -3.8522   -2.7391   -0.6744 H   0  0  0  0  0  0  0  0  0  0  0  0
   -2.1563    1.7776   -1.4074 H   0  0  0  0  0  0  0  0  0  0  0  0
   -4.1017    0.6303   -6.0437 H   0  0  0  0  0  0  0  0  0  0  0  0
   -0.3207   -0.8921   -5.0043 H   0  0  0  0  0  0  0  0  0  0  0  0
   -1.0051    0.1373   -0.4272 H   0  0  0  0  0  0  0  0  0  0  0  0
    1.0309   -0.4310    1.4483 H   0  0  0  0  0  0  0  0  0  0  0  0
    2.7403   -1.5585    2.8226 H   0  0  0  0  0  0  0  0  0  0  0  0
    4.2343   -2.2489    2.0811 H   0  0  0  0  0  0  0  0  0  0  0  0
    3.0491    1.2674    1.4463 H   0  0  0  0  0  0  0  0  0  0  0  0
    2.5441    0.8819    3.1016 H   0  0  0  0  0  0  0  0  0  0  0  0
    4.4822    1.8439    4.0903 H   0  0  0  0  0  0  0  0  0  0  0  0
    3.5761    3.0138    3.0802 H   0  0  0  0  0  0  0  0  0  0  0  0
    7.2885    1.6627    3.1431 H   0  0  0  0  0  0  0  0  0  0  0  0
    7.1106    3.4411    2.9742 H   0  0  0  0  0  0  0  0  0  0  0  0
    6.2055    2.5969    4.2406 H   0  0  0  0  0  0  0  0  0  0  0  0
    6.7537    1.4804    0.9747 H   0  0  0  0  0  0  0  0  0  0  0  0
    5.0669    1.5861    0.3580 H   0  0  0  0  0  0  0  0  0  0  0  0
    5.7803   -0.7351    1.0783 H   0  0  0  0  0  0  0  0  0  0  0  0
    6.2452   -0.0197    2.6863 H   0  0  0  0  0  0  0  0  0  0  0  0
    4.4928   -2.0664   -0.3957 H   0  0  0  0  0  0  0  0  0  0  0  0
    3.4285   -1.9061   -2.5599 H   0  0  0  0  0  0  0  0  0  0  0  0
   -4.4617    2.6055   -0.6437 H   0  0  0  0  0  0  0  0  0  0  0  0
   -6.2784    2.1796    0.9484 H   0  0  0  0  0  0  0  0  0  0  0  0
   -7.5255    0.0441    2.3931 H   0  0  0  0  0  0  0  0  0  0  0  0
   -7.1411   -2.4942    2.5563 H   0  0  0  0  0  0  0  0  0  0  0  0
   -5.0505   -3.0700    0.9265 H   0  0  0  0  0  0  0  0  0  0  0  0
  1  2  1  0
  2  3  2  0
  3  4  1  0
  4  5  1  0
  5  6  2  0
  6  7  1  0
  7  8  3  0
  6  9  1  0
  9 10  2  0
 10 11  1  0
 11 12  2  0
 12 13  1  0
 13 14  2  0
 14 15  1  0
 15 16  2  0
 16 17  1  0
 17 18  1  0
 18 19  1  0
 19 20  1  0
 20 21  1  0
 21 22  1  0
 22 23  1  0
 22 24  1  0
 24 25  1  0
 17 26  2  0
 26 27  1  0
 27 28  2  0
 28 29  1  0
  3 30  1  0
 30 31  2  0
 31 32  1  0
 32 33  1  0
 33 34  1  0
 34 35  2  0
 35 36  1  0
 36  2  1  0
 12  5  1  0
 29 13  1  0
 36 32  2  0
 28 15  1  0
 25 19  1  0
  1 37  1  0
  1 38  1  0
  1 39  1  0
  4 40  1  0
  9 41  1  0
 11 42  1  0
 14 43  1  0
 16 44  1  0
 18 45  1  0
 18 46  1  0
 20 47  1  0
 20 48  1  0
 21 49  1  0
 21 50  1  0
 23 51  1  0
 23 52  1  0
 23 53  1  0
 24 54  1  0
 24 55  1  0
 25 56  1  0
 25 57  1  0
 26 58  1  0
 27 59  1  0
 30 60  1  0
 31 61  1  0
 33 62  1  0
 34 63  1  0
 35 64  1  0
M  END
$$$$
