@<TRIPOS>MOLECULE
*****
 53 55 0 0 0
SMALL
GASTEIGER

@<TRIPOS>ATOM
      1 C          -6.1939    3.3211   -0.4000 C.3     1  UNL1        0.0386
      2 C          -6.0305    1.9486   -0.9328 C.2     1  UNL1        0.2771
      3 N          -6.9870    1.4500   -1.6204 N.2     1  UNL1       -0.1041
      4 N          -4.8446    1.2438   -0.6705 N.pl3   1  UNL1       -0.2236
      5 C          -3.5893    1.9298   -0.4537 C.3     1  UNL1        0.0696
      6 C          -4.8414   -0.2164   -0.6077 C.3     1  UNL1        0.1053
      7 C          -3.4807   -0.7340   -0.3192 C.ar    1  UNL1       -0.0081
      8 C          -2.5885   -1.0399   -1.3114 C.ar    1  UNL1       -0.0543
      9 C          -1.3189   -1.5239   -0.9803 C.ar    1  UNL1       -0.0492
     10 C          -0.9490   -1.6987    0.3252 C.ar    1  UNL1        0.0370
     11 C           0.3655   -2.2003    0.6850 C.2     1  UNL1        0.2483
     12 O           0.6597   -2.3447    1.9152 O.2     1  UNL1       -0.2699
     13 N           1.3649   -2.5481   -0.2414 N.am    1  UNL1       -0.2808
     14 C           2.6421   -3.0366    0.1472 C.ar    1  UNL1        0.0459
     15 C           2.8106   -4.4006    0.2961 C.ar    1  UNL1       -0.0384
     16 C           4.0306   -4.9163    0.6711 C.ar    1  UNL1       -0.0416
     17 C           5.0740   -4.0422    0.8930 C.ar    1  UNL1        0.0418
     18 CL          6.6645   -4.6071    1.3738 Cl      1  UNL1       -0.0835
     19 C           4.8736   -2.6762    0.7352 C.ar    1  UNL1       -0.0295
     20 C           3.6693   -2.1487    0.3636 C.ar    1  UNL1        0.0596
     21 C           3.3866   -0.7228    0.1786 C.2     1  UNL1        0.2511
     22 O           2.2361   -0.3436   -0.1670 O.2     1  UNL1       -0.2697
     23 N           4.3686    0.2856    0.3736 N.am    1  UNL1       -0.2663
     24 C           4.2117    1.6712    0.2262 C.ar    1  UNL1        0.1252
     25 C           3.0971    2.3526   -0.1322 C.ar    1  UNL1       -0.0201
     26 C           3.1123    3.7287   -0.2314 C.ar    1  UNL1       -0.0387
     27 C           4.2658    4.4349    0.0336 C.ar    1  UNL1        0.0592
     28 CL          4.3385    6.1797   -0.0775 Cl      1  UNL1       -0.0820
     29 C           5.4004    3.7360    0.3988 C.ar    1  UNL1        0.0480
     30 N           5.3287    2.4219    0.4777 N.ar    1  UNL1       -0.2387
     31 C          -1.8679   -1.3824    1.3027 C.ar    1  UNL1       -0.0492
     32 C          -3.1267   -0.9034    1.0029 C.ar    1  UNL1       -0.0543
     33 H          -5.9810    4.0252   -1.2479 H       1  UNL1        0.0351
     34 H          -7.2287    3.5292   -0.0626 H       1  UNL1        0.0351
     35 H          -5.4356    3.5264    0.3625 H       1  UNL1        0.0351
     36 H          -7.0217    0.5233   -2.0507 H       1  UNL1        0.3629
     37 H          -3.6909    2.9336   -0.9262 H       1  UNL1        0.0689
     38 H          -3.4073    2.0728    0.6311 H       1  UNL1        0.0689
     39 H          -2.7207    1.3814   -0.8555 H       1  UNL1        0.0689
     40 H          -5.5127   -0.5817    0.1921 H       1  UNL1        0.0778
     41 H          -5.2409   -0.6385   -1.5549 H       1  UNL1        0.0778
     42 H          -2.8715   -0.9051   -2.3463 H       1  UNL1        0.0622
     43 H          -0.6678   -1.7444   -1.7996 H       1  UNL1        0.0625
     44 H           1.1700   -2.4467   -1.2611 H       1  UNL1        0.1552
     45 H           1.9939   -5.0931    0.1231 H       1  UNL1        0.0637
     46 H           4.2142   -5.9731    0.8011 H       1  UNL1        0.0633
     47 H           5.7053   -2.0201    0.9151 H       1  UNL1        0.0640
     48 H           5.3254   -0.0887    0.6654 H       1  UNL1        0.1566
     49 H           2.1991    1.8366   -0.3410 H       1  UNL1        0.0652
     50 H           2.2454    4.3109   -0.5141 H       1  UNL1        0.0634
     51 H           6.2903    4.3016    0.6017 H       1  UNL1        0.0845
     52 H          -1.6195   -1.5041    2.3327 H       1  UNL1        0.0625
     53 H          -3.8274   -0.6635    1.7923 H       1  UNL1        0.0622
@<TRIPOS>BOND
     1     1     2    1
     2     2     3    2
     3     2     4    1
     4     4     5    1
     5     4     6    1
     6     6     7    1
     7     7     8   ar
     8     8     9   ar
     9     9    10   ar
    10    10    11    1
    11    11    12    2
    12    11    13   am
    13    13    14    1
    14    14    15   ar
    15    15    16   ar
    16    16    17   ar
    17    17    18    1
    18    17    19   ar
    19    19    20   ar
    20    20    21    1
    21    21    22    2
    22    21    23   am
    23    23    24    1
    24    24    25   ar
    25    25    26   ar
    26    26    27   ar
    27    27    28    1
    28    27    29   ar
    29    29    30   ar
    30    10    31   ar
    31    31    32   ar
    32    32     7   ar
    33    20    14   ar
    34    30    24   ar
    35     1    33    1
    36     1    34    1
    37     1    35    1
    38     3    36    1
    39     5    37    1
    40     5    38    1
    41     5    39    1
    42     6    40    1
    43     6    41    1
    44     8    42    1
    45     9    43    1
    46    13    44    1
    47    15    45    1
    48    16    46    1
    49    19    47    1
    50    23    48    1
    51    25    49    1
    52    26    50    1
    53    29    51    1
    54    31    52    1
    55    32    53    1
