
     RDKit          3D

 37 39  0  0  0  0  0  0  0  0999 V2000
   -0.9071   -3.3132   -0.1755 N   0  0  0  0  0  0  0  0  0  0  0  0
   -1.8195   -2.2502   -0.5363 C   0  0  0  0  0  0  0  0  0  0  0  0
   -1.6396   -1.0077    0.3024 C   0  0  2  0  0  0  0  0  0  0  0  0
   -2.5830    0.0751   -0.0806 C   0  0  0  0  0  0  0  0  0  0  0  0
   -3.2199    0.8485    0.8981 C   0  0  0  0  0  0  0  0  0  0  0  0
   -4.0999    1.8605    0.6052 C   0  0  0  0  0  0  0  0  0  0  0  0
   -4.3692    2.1281   -0.7140 C   0  0  0  0  0  0  0  0  0  0  0  0
   -5.4975    3.4275   -1.0441 Cl  0  0  0  0  0  0  0  0  0  0  0  0
   -3.7739    1.4019   -1.7299 C   0  0  0  0  0  0  0  0  0  0  0  0
   -2.8980    0.3965   -1.3816 C   0  0  0  0  0  0  0  0  0  0  0  0
   -0.2443   -0.5870    0.4263 C   0  0  0  0  0  0  0  0  0  0  0  0
    0.4406   -0.1046    1.5283 C   0  0  0  0  0  0  0  0  0  0  0  0
    1.7668    0.2468    1.4623 C   0  0  0  0  0  0  0  0  0  0  0  0
    2.4839    0.1361    0.2915 C   0  0  0  0  0  0  0  0  0  0  0  0
    1.8252   -0.3405   -0.8163 C   0  0  0  0  0  0  0  0  0  0  0  0
    0.4791   -0.7016   -0.7659 C   0  0  0  0  0  0  0  0  0  0  0  0
    3.8928    0.5073    0.2134 C   0  0  0  0  0  0  0  0  0  0  0  0
    4.5461    1.0121   -0.8960 C   0  0  0  0  0  0  0  0  0  0  0  0
    5.8454    1.2418   -0.6036 N   0  0  0  0  0  0  0  0  0  0  0  0
    6.0407    0.8985    0.6596 N   0  0  0  0  0  0  0  0  0  0  0  0
    4.8776    0.4455    1.1963 C   0  0  0  0  0  0  0  0  0  0  0  0
   -0.0040   -2.9413    0.1899 H   0  0  0  0  0  0  0  0  0  0  0  0
   -0.7376   -3.8754   -1.0435 H   0  0  0  0  0  0  0  0  0  0  0  0
   -2.8365   -2.6784   -0.4237 H   0  0  0  0  0  0  0  0  0  0  0  0
   -1.6952   -2.0107   -1.6061 H   0  0  0  0  0  0  0  0  0  0  0  0
   -1.9584   -1.3233    1.3404 H   0  0  0  0  0  0  0  0  0  0  0  0
   -3.0011    0.6304    1.9510 H   0  0  0  0  0  0  0  0  0  0  0  0
   -4.5453    2.4061    1.4374 H   0  0  0  0  0  0  0  0  0  0  0  0
   -4.0010    1.6305   -2.7631 H   0  0  0  0  0  0  0  0  0  0  0  0
   -2.4325   -0.1718   -2.1826 H   0  0  0  0  0  0  0  0  0  0  0  0
   -0.1810   -0.0435    2.4119 H   0  0  0  0  0  0  0  0  0  0  0  0
    2.2487    0.6135    2.3408 H   0  0  0  0  0  0  0  0  0  0  0  0
    2.4172   -0.4173   -1.7292 H   0  0  0  0  0  0  0  0  0  0  0  0
    0.1034   -1.0559   -1.7103 H   0  0  0  0  0  0  0  0  0  0  0  0
    4.1405    1.2167   -1.8777 H   0  0  0  0  0  0  0  0  0  0  0  0
    6.6517    1.6120   -1.1580 H   0  0  0  0  0  0  0  0  0  0  0  0
    4.6845    0.0874    2.1986 H   0  0  0  0  0  0  0  0  0  0  0  0
  1  2  1  0
  2  3  1  0
  3  4  1  0
  4  5  2  0
  5  6  1  0
  6  7  2  0
  7  8  1  0
  7  9  1  0
  9 10  2  0
  3 11  1  0
 11 12  2  0
 12 13  1  0
 13 14  2  0
 14 15  1  0
 15 16  2  0
 14 17  1  0
 17 18  2  0
 18 19  1  0
 19 20  1  0
 20 21  2  0
 10  4  1  0
 16 11  1  0
 21 17  1  0
  1 22  1  0
  1 23  1  0
  2 24  1  0
  2 25  1  0
  3 26  1  1
  5 27  1  0
  6 28  1  0
  9 29  1  0
 10 30  1  0
 12 31  1  0
 13 32  1  0
 15 33  1  0
 16 34  1  0
 18 35  1  0
 19 36  1  0
 21 37  1  0
M  END
$$$$
