
     RDKit          3D

 37 39  0  0  0  0  0  0  0  0999 V2000
    5.6696    0.6609    2.7616 Cl  0  0  0  0  0  0  0  0  0  0  0  0
    4.7555    0.7217    1.2600 C   0  0  0  0  0  0  0  0  0  0  0  0
    5.4338    0.7317    0.0673 C   0  0  0  0  0  0  0  0  0  0  0  0
    4.7537    0.7787   -1.1260 C   0  0  0  0  0  0  0  0  0  0  0  0
    3.3735    0.8162   -1.1193 C   0  0  0  0  0  0  0  0  0  0  0  0
    2.6716    0.8069    0.0687 C   0  0  0  0  0  0  0  0  0  0  0  0
    0.8926    0.8562    0.0340 S   0  0  0  0  0  0  0  0  0  0  0  0
    0.2365   -0.8294   -0.0181 C   0  0  0  0  0  0  0  0  0  0  0  0
    1.1378   -1.8937   -0.0241 C   0  0  0  0  0  0  0  0  0  0  0  0
    0.7070   -3.1931   -0.0789 C   0  0  0  0  0  0  0  0  0  0  0  0
   -0.6357   -3.4784   -0.1294 C   0  0  0  0  0  0  0  0  0  0  0  0
   -1.5320   -2.4390   -0.1235 C   0  0  0  0  0  0  0  0  0  0  0  0
   -1.1058   -1.1060   -0.0679 C   0  0  0  0  0  0  0  0  0  0  0  0
   -2.0449   -0.0415   -0.0327 N   0  0  0  0  0  0  0  0  0  0  0  0
   -3.4117   -0.3170   -0.4885 C   0  0  0  0  0  0  0  0  0  0  0  0
   -3.8992    0.9435   -1.1771 C   0  0  0  0  0  0  0  0  0  0  0  0
   -4.0583    1.9880   -0.2201 N   0  0  0  0  0  0  0  0  0  0  0  0
   -3.1121    1.9493    0.8501 C   0  0  0  0  0  0  0  0  0  0  0  0
   -1.7927    1.2851    0.4387 C   0  0  0  0  0  0  0  0  0  0  0  0
    3.3757    0.7595    1.2537 C   0  0  0  0  0  0  0  0  0  0  0  0
    2.5248    0.7460    2.7897 Cl  0  0  0  0  0  0  0  0  0  0  0  0
    6.5171    0.7016    0.0925 H   0  0  0  0  0  0  0  0  0  0  0  0
    5.3096    0.7856   -2.0492 H   0  0  0  0  0  0  0  0  0  0  0  0
    2.8040    0.8536   -2.0369 H   0  0  0  0  0  0  0  0  0  0  0  0
    2.2006   -1.6505    0.0165 H   0  0  0  0  0  0  0  0  0  0  0  0
    1.4726   -3.9772   -0.0804 H   0  0  0  0  0  0  0  0  0  0  0  0
   -0.9451   -4.5038   -0.1720 H   0  0  0  0  0  0  0  0  0  0  0  0
   -2.5964   -2.6032   -0.1534 H   0  0  0  0  0  0  0  0  0  0  0  0
   -3.3461   -1.1472   -1.2496 H   0  0  0  0  0  0  0  0  0  0  0  0
   -4.0517   -0.5447    0.3626 H   0  0  0  0  0  0  0  0  0  0  0  0
   -4.8842    0.7514   -1.6565 H   0  0  0  0  0  0  0  0  0  0  0  0
   -3.1819    1.1813   -1.9869 H   0  0  0  0  0  0  0  0  0  0  0  0
   -4.2218    2.9165   -0.6249 H   0  0  0  0  0  0  0  0  0  0  0  0
   -2.9260    2.9533    1.2629 H   0  0  0  0  0  0  0  0  0  0  0  0
   -3.5629    1.3311    1.6688 H   0  0  0  0  0  0  0  0  0  0  0  0
   -1.1545    1.2951    1.3494 H   0  0  0  0  0  0  0  0  0  0  0  0
   -1.3730    1.9114   -0.3677 H   0  0  0  0  0  0  0  0  0  0  0  0
  1  2  1  0
  2  3  2  0
  3  4  1  0
  4  5  2  0
  5  6  1  0
  6  7  1  0
  7  8  1  0
  8  9  2  0
  9 10  1  0
 10 11  2  0
 11 12  1  0
 12 13  2  0
 13 14  1  0
 14 15  1  0
 15 16  1  0
 16 17  1  0
 17 18  1  0
 18 19  1  0
  6 20  2  0
 20 21  1  0
 20  2  1  0
 13  8  1  0
 19 14  1  0
  3 22  1  0
  4 23  1  0
  5 24  1  0
  9 25  1  0
 10 26  1  0
 11 27  1  0
 12 28  1  0
 15 29  1  0
 15 30  1  0
 16 31  1  0
 16 32  1  0
 17 33  1  0
 18 34  1  0
 18 35  1  0
 19 36  1  0
 19 37  1  0
M  END
$$$$
