@<TRIPOS>MOLECULE
*****
 37 39 0 0 0
SMALL
GASTEIGER

@<TRIPOS>ATOM
      1 CL          5.6696    0.6609    2.7616 Cl      1  UNL1       -0.0820
      2 C           4.7555    0.7217    1.2600 C.ar    1  UNL1        0.0603
      3 C           5.4338    0.7317    0.0673 C.ar    1  UNL1       -0.0419
      4 C           4.7537    0.7787   -1.1260 C.ar    1  UNL1       -0.0592
      5 C           3.3735    0.8162   -1.1193 C.ar    1  UNL1       -0.0465
      6 C           2.6716    0.8069    0.0687 C.ar    1  UNL1        0.0325
      7 S           0.8926    0.8562    0.0340 S.3     1  UNL1       -0.0861
      8 C           0.2365   -0.8294   -0.0181 C.ar    1  UNL1        0.0338
      9 C           1.1378   -1.8937   -0.0241 C.ar    1  UNL1       -0.0462
     10 C           0.7070   -3.1931   -0.0789 C.ar    1  UNL1       -0.0606
     11 C          -0.6357   -3.4784   -0.1294 C.ar    1  UNL1       -0.0599
     12 C          -1.5320   -2.4390   -0.1235 C.ar    1  UNL1       -0.0396
     13 C          -1.1058   -1.1060   -0.0679 C.ar    1  UNL1        0.0437
     14 N          -2.0449   -0.0415   -0.0327 N.pl3   1  UNL1       -0.3266
     15 C          -3.4117   -0.3170   -0.4885 C.3     1  UNL1        0.0248
     16 C          -3.8992    0.9435   -1.1771 C.3     1  UNL1        0.0117
     17 N          -4.0583    1.9880   -0.2201 N.3     1  UNL1       -0.3130
     18 C          -3.1121    1.9493    0.8501 C.3     1  UNL1        0.0117
     19 C          -1.7927    1.2851    0.4387 C.3     1  UNL1        0.0248
     20 C           3.3757    0.7595    1.2537 C.ar    1  UNL1        0.0729
     21 CL          2.5248    0.7460    2.7897 Cl      1  UNL1       -0.0809
     22 H           6.5171    0.7016    0.0925 H       1  UNL1        0.0633
     23 H           5.3096    0.7856   -2.0492 H       1  UNL1        0.0618
     24 H           2.8040    0.8536   -2.0369 H       1  UNL1        0.0629
     25 H           2.2006   -1.6505    0.0165 H       1  UNL1        0.0629
     26 H           1.4726   -3.9772   -0.0804 H       1  UNL1        0.0618
     27 H          -0.9451   -4.5038   -0.1720 H       1  UNL1        0.0618
     28 H          -2.5964   -2.6032   -0.1534 H       1  UNL1        0.0636
     29 H          -3.3461   -1.1472   -1.2496 H       1  UNL1        0.0476
     30 H          -4.0517   -0.5447    0.3626 H       1  UNL1        0.0476
     31 H          -4.8842    0.7514   -1.6565 H       1  UNL1        0.0439
     32 H          -3.1819    1.1813   -1.9869 H       1  UNL1        0.0439
     33 H          -4.2218    2.9165   -0.6249 H       1  UNL1        0.1220
     34 H          -2.9260    2.9533    1.2629 H       1  UNL1        0.0439
     35 H          -3.5629    1.3311    1.6688 H       1  UNL1        0.0439
     36 H          -1.1545    1.2951    1.3494 H       1  UNL1        0.0476
     37 H          -1.3730    1.9114   -0.3677 H       1  UNL1        0.0476
@<TRIPOS>BOND
     1     1     2    1
     2     2     3   ar
     3     3     4   ar
     4     4     5   ar
     5     5     6   ar
     6     6     7    1
     7     7     8    1
     8     8     9   ar
     9     9    10   ar
    10    10    11   ar
    11    11    12   ar
    12    12    13   ar
    13    13    14    1
    14    14    15    1
    15    15    16    1
    16    16    17    1
    17    17    18    1
    18    18    19    1
    19     6    20   ar
    20    20    21    1
    21    20     2   ar
    22    13     8   ar
    23    19    14    1
    24     3    22    1
    25     4    23    1
    26     5    24    1
    27     9    25    1
    28    10    26    1
    29    11    27    1
    30    12    28    1
    31    15    29    1
    32    15    30    1
    33    16    31    1
    34    16    32    1
    35    17    33    1
    36    18    34    1
    37    18    35    1
    38    19    36    1
    39    19    37    1
