@<TRIPOS>MOLECULE
*****
 58 62 0 0 0
SMALL
GASTEIGER

@<TRIPOS>ATOM
      1 O           2.2731    3.3952    1.6214 O.2     1  UNL1       -0.2817
      2 C           2.7266    2.4799    0.8989 C.2     1  UNL1        0.2496
      3 C           4.0392    2.4707    0.2788 C.2     1  UNL1        0.2915
      4 O           4.9468    3.3545    0.3459 O.2     1  UNL1       -0.2661
      5 N           4.1541    1.2665   -0.4459 N.am    1  UNL1       -0.2598
      6 C           5.2720    0.7918   -1.2391 C.3     1  UNL1        0.0452
      7 C           6.2356    0.0357   -0.4187 C.ar    1  UNL1       -0.0296
      8 C           6.1490   -1.3266   -0.2439 C.ar    1  UNL1       -0.0561
      9 C           7.0562   -2.0090    0.5253 C.ar    1  UNL1       -0.0483
     10 C           8.0920   -1.3146    1.1473 C.ar    1  UNL1        0.0134
     11 I           9.4579   -2.4123    2.3178 I       1  UNL1       -0.0438
     12 C           8.2095    0.0372    0.9965 C.ar    1  UNL1       -0.0483
     13 C           7.2867    0.6969    0.2201 C.ar    1  UNL1       -0.0561
     14 C           2.9215    0.5398   -0.2736 C.ar    1  UNL1        0.0481
     15 C           2.5230   -0.6857   -0.7723 C.ar    1  UNL1       -0.0377
     16 C           1.2910   -1.2339   -0.5027 C.ar    1  UNL1       -0.0335
     17 C           0.4241   -0.5256    0.2986 C.ar    1  UNL1        0.1063
     18 S          -1.1312   -1.1817    0.6594 S.O2    1  UNL1        0.0612
     19 O          -1.5976   -0.8017    2.0530 O.2     1  UNL1       -0.1528
     20 O          -1.0080   -2.6903    0.6604 O.2     1  UNL1       -0.1528
     21 N          -2.3495   -0.7535   -0.4390 N.3     1  UNL1       -0.1703
     22 C          -2.1392   -1.1859   -1.7779 C.3     1  UNL1        0.0210
     23 C          -2.1934   -0.0186   -2.7054 C.3     1  UNL1       -0.0370
     24 C          -2.3154    1.1790   -1.7986 C.3     1  UNL1       -0.0313
     25 C          -2.7073    0.6278   -0.4422 C.3     1  UNL1        0.0659
     26 C          -4.2359    0.6969   -0.3346 C.3     1  UNL1        0.1067
     27 O          -4.5842    0.0716    0.8637 O.3     1  UNL1       -0.4904
     28 C          -5.8620   -0.0864    1.3489 C.ar    1  UNL1        0.1206
     29 C          -6.0232   -0.7326    2.5569 C.ar    1  UNL1       -0.0199
     30 C          -7.2890   -0.9100    3.0756 C.ar    1  UNL1       -0.0583
     31 C          -8.4184   -0.4616    2.4273 C.ar    1  UNL1       -0.0615
     32 C          -8.2516    0.1791    1.2284 C.ar    1  UNL1       -0.0583
     33 C          -6.9905    0.3601    0.7040 C.ar    1  UNL1       -0.0199
     34 C           0.8077    0.6962    0.8020 C.ar    1  UNL1       -0.0226
     35 C           2.0576    1.2490    0.5264 C.ar    1  UNL1        0.0502
     36 H           4.8773    0.1133   -2.0234 H       1  UNL1        0.0518
     37 H           5.7629    1.6711   -1.7021 H       1  UNL1        0.0518
     38 H           5.3708   -1.9162   -0.7010 H       1  UNL1        0.0621
     39 H           6.9915   -3.0687    0.6632 H       1  UNL1        0.0628
     40 H           9.0214    0.5465    1.4901 H       1  UNL1        0.0628
     41 H           7.3461    1.7581    0.0781 H       1  UNL1        0.0621
     42 H           3.1936   -1.2747   -1.4190 H       1  UNL1        0.0637
     43 H           1.0054   -2.2182   -0.9193 H       1  UNL1        0.0638
     44 H          -2.9935   -1.8781   -2.0383 H       1  UNL1        0.0444
     45 H          -1.2295   -1.8052   -1.9151 H       1  UNL1        0.0444
     46 H          -1.2493    0.0469   -3.3141 H       1  UNL1        0.0279
     47 H          -3.0547   -0.0745   -3.3831 H       1  UNL1        0.0279
     48 H          -3.0754    1.9099   -2.1626 H       1  UNL1        0.0282
     49 H          -1.3467    1.7119   -1.7701 H       1  UNL1        0.0282
     50 H          -2.2940    1.2262    0.3724 H       1  UNL1        0.0513
     51 H          -4.5977    1.7364   -0.3274 H       1  UNL1        0.0713
     52 H          -4.6320    0.1724   -1.2327 H       1  UNL1        0.0713
     53 H          -5.1947   -1.1168    3.1335 H       1  UNL1        0.0654
     54 H          -7.4354   -1.4185    4.0292 H       1  UNL1        0.0619
     55 H          -9.4115   -0.6120    2.8548 H       1  UNL1        0.0618
     56 H          -9.1588    0.5283    0.7280 H       1  UNL1        0.0619
     57 H          -6.8915    0.8629   -0.2319 H       1  UNL1        0.0654
     58 H           0.1686    1.3010    1.4388 H       1  UNL1        0.0645
@<TRIPOS>BOND
     1     1     2    2
     2     2     3    1
     3     3     4    2
     4     3     5   am
     5     5     6    1
     6     6     7    1
     7     7     8   ar
     8     8     9   ar
     9     9    10   ar
    10    10    11    1
    11    10    12   ar
    12    12    13   ar
    13     5    14    1
    14    14    15   ar
    15    15    16   ar
    16    16    17   ar
    17    17    18    1
    18    18    19    2
    19    18    20    2
    20    18    21    1
    21    21    22    1
    22    22    23    1
    23    23    24    1
    24    24    25    1
    25    25    26    1
    26    26    27    1
    27    27    28    1
    28    28    29   ar
    29    29    30   ar
    30    30    31   ar
    31    31    32   ar
    32    32    33   ar
    33    17    34   ar
    34    34    35   ar
    35    35     2    1
    36    13     7   ar
    37    35    14   ar
    38    25    21    1
    39    33    28   ar
    40     6    36    1
    41     6    37    1
    42     8    38    1
    43     9    39    1
    44    12    40    1
    45    13    41    1
    46    15    42    1
    47    16    43    1
    48    22    44    1
    49    22    45    1
    50    23    46    1
    51    23    47    1
    52    24    48    1
    53    24    49    1
    54    25    50    1
    55    26    51    1
    56    26    52    1
    57    29    53    1
    58    30    54    1
    59    31    55    1
    60    32    56    1
    61    33    57    1
    62    34    58    1
