
     RDKit          3D

 58 62  0  0  0  0  0  0  0  0999 V2000
    2.2731    3.3952    1.6214 O   0  0  0  0  0  0  0  0  0  0  0  0
    2.7266    2.4799    0.8989 C   0  0  0  0  0  0  0  0  0  0  0  0
    4.0392    2.4707    0.2788 C   0  0  0  0  0  0  0  0  0  0  0  0
    4.9468    3.3545    0.3459 O   0  0  0  0  0  0  0  0  0  0  0  0
    4.1541    1.2665   -0.4459 N   0  0  0  0  0  0  0  0  0  0  0  0
    5.2720    0.7918   -1.2391 C   0  0  0  0  0  0  0  0  0  0  0  0
    6.2356    0.0357   -0.4187 C   0  0  0  0  0  0  0  0  0  0  0  0
    6.1490   -1.3266   -0.2439 C   0  0  0  0  0  0  0  0  0  0  0  0
    7.0562   -2.0090    0.5253 C   0  0  0  0  0  0  0  0  0  0  0  0
    8.0920   -1.3146    1.1473 C   0  0  0  0  0  0  0  0  0  0  0  0
    9.4579   -2.4123    2.3178 I   0  0  0  0  0  0  0  0  0  0  0  0
    8.2095    0.0372    0.9965 C   0  0  0  0  0  0  0  0  0  0  0  0
    7.2867    0.6969    0.2201 C   0  0  0  0  0  0  0  0  0  0  0  0
    2.9215    0.5398   -0.2736 C   0  0  0  0  0  0  0  0  0  0  0  0
    2.5230   -0.6857   -0.7723 C   0  0  0  0  0  0  0  0  0  0  0  0
    1.2910   -1.2339   -0.5027 C   0  0  0  0  0  0  0  0  0  0  0  0
    0.4241   -0.5256    0.2986 C   0  0  0  0  0  0  0  0  0  0  0  0
   -1.1312   -1.1817    0.6594 S   0  0  0  0  0  6  0  0  0  0  0  0
   -1.5976   -0.8017    2.0530 O   0  0  0  0  0  0  0  0  0  0  0  0
   -1.0080   -2.6903    0.6604 O   0  0  0  0  0  0  0  0  0  0  0  0
   -2.3495   -0.7535   -0.4390 N   0  0  0  0  0  0  0  0  0  0  0  0
   -2.1392   -1.1859   -1.7779 C   0  0  0  0  0  0  0  0  0  0  0  0
   -2.1934   -0.0186   -2.7054 C   0  0  0  0  0  0  0  0  0  0  0  0
   -2.3154    1.1790   -1.7986 C   0  0  0  0  0  0  0  0  0  0  0  0
   -2.7073    0.6278   -0.4422 C   0  0  1  0  0  0  0  0  0  0  0  0
   -4.2359    0.6969   -0.3346 C   0  0  0  0  0  0  0  0  0  0  0  0
   -4.5842    0.0716    0.8637 O   0  0  0  0  0  0  0  0  0  0  0  0
   -5.8620   -0.0864    1.3489 C   0  0  0  0  0  0  0  0  0  0  0  0
   -6.0232   -0.7326    2.5569 C   0  0  0  0  0  0  0  0  0  0  0  0
   -7.2890   -0.9100    3.0756 C   0  0  0  0  0  0  0  0  0  0  0  0
   -8.4184   -0.4616    2.4273 C   0  0  0  0  0  0  0  0  0  0  0  0
   -8.2516    0.1791    1.2284 C   0  0  0  0  0  0  0  0  0  0  0  0
   -6.9905    0.3601    0.7040 C   0  0  0  0  0  0  0  0  0  0  0  0
    0.8077    0.6962    0.8020 C   0  0  0  0  0  0  0  0  0  0  0  0
    2.0576    1.2490    0.5264 C   0  0  0  0  0  0  0  0  0  0  0  0
    4.8773    0.1133   -2.0234 H   0  0  0  0  0  0  0  0  0  0  0  0
    5.7629    1.6711   -1.7021 H   0  0  0  0  0  0  0  0  0  0  0  0
    5.3708   -1.9162   -0.7010 H   0  0  0  0  0  0  0  0  0  0  0  0
    6.9915   -3.0687    0.6632 H   0  0  0  0  0  0  0  0  0  0  0  0
    9.0214    0.5465    1.4901 H   0  0  0  0  0  0  0  0  0  0  0  0
    7.3461    1.7581    0.0781 H   0  0  0  0  0  0  0  0  0  0  0  0
    3.1936   -1.2747   -1.4190 H   0  0  0  0  0  0  0  0  0  0  0  0
    1.0054   -2.2182   -0.9193 H   0  0  0  0  0  0  0  0  0  0  0  0
   -2.9935   -1.8781   -2.0383 H   0  0  0  0  0  0  0  0  0  0  0  0
   -1.2295   -1.8052   -1.9151 H   0  0  0  0  0  0  0  0  0  0  0  0
   -1.2493    0.0469   -3.3141 H   0  0  0  0  0  0  0  0  0  0  0  0
   -3.0547   -0.0745   -3.3831 H   0  0  0  0  0  0  0  0  0  0  0  0
   -3.0754    1.9099   -2.1626 H   0  0  0  0  0  0  0  0  0  0  0  0
   -1.3467    1.7119   -1.7701 H   0  0  0  0  0  0  0  0  0  0  0  0
   -2.2940    1.2262    0.3724 H   0  0  0  0  0  0  0  0  0  0  0  0
   -4.5977    1.7364   -0.3274 H   0  0  0  0  0  0  0  0  0  0  0  0
   -4.6320    0.1724   -1.2327 H   0  0  0  0  0  0  0  0  0  0  0  0
   -5.1947   -1.1168    3.1335 H   0  0  0  0  0  0  0  0  0  0  0  0
   -7.4354   -1.4185    4.0292 H   0  0  0  0  0  0  0  0  0  0  0  0
   -9.4115   -0.6120    2.8548 H   0  0  0  0  0  0  0  0  0  0  0  0
   -9.1588    0.5283    0.7280 H   0  0  0  0  0  0  0  0  0  0  0  0
   -6.8915    0.8629   -0.2319 H   0  0  0  0  0  0  0  0  0  0  0  0
    0.1686    1.3010    1.4388 H   0  0  0  0  0  0  0  0  0  0  0  0
  1  2  2  0
  2  3  1  0
  3  4  2  0
  3  5  1  0
  5  6  1  0
  6  7  1  0
  7  8  2  0
  8  9  1  0
  9 10  2  0
 10 11  1  0
 10 12  1  0
 12 13  2  0
  5 14  1  0
 14 15  2  0
 15 16  1  0
 16 17  2  0
 17 18  1  0
 18 19  2  0
 18 20  2  0
 18 21  1  0
 21 22  1  0
 22 23  1  0
 23 24  1  0
 24 25  1  0
 25 26  1  0
 26 27  1  0
 27 28  1  0
 28 29  2  0
 29 30  1  0
 30 31  2  0
 31 32  1  0
 32 33  2  0
 17 34  1  0
 34 35  2  0
 35  2  1  0
 13  7  1  0
 35 14  1  0
 25 21  1  0
 33 28  1  0
  6 36  1  0
  6 37  1  0
  8 38  1  0
  9 39  1  0
 12 40  1  0
 13 41  1  0
 15 42  1  0
 16 43  1  0
 22 44  1  0
 22 45  1  0
 23 46  1  0
 23 47  1  0
 24 48  1  0
 24 49  1  0
 25 50  1  1
 26 51  1  0
 26 52  1  0
 29 53  1  0
 30 54  1  0
 31 55  1  0
 32 56  1  0
 33 57  1  0
 34 58  1  0
M  END
$$$$
