@<TRIPOS>MOLECULE
*****
 38 41 0 0 0
SMALL
GASTEIGER

@<TRIPOS>ATOM
      1 O           5.4176   -0.3419   -0.2707 O.3     1  UNL1       -0.5068
      2 C           4.0608   -0.3144    0.0381 C.ar    1  UNL1        0.1169
      3 C           3.2028   -0.1436   -1.0521 C.ar    1  UNL1       -0.0198
      4 C           1.8272   -0.1079   -0.8041 C.ar    1  UNL1       -0.0507
      5 C           1.2681   -0.2308    0.4480 C.ar    1  UNL1        0.0051
      6 C           2.1649   -0.3983    1.4944 C.ar    1  UNL1       -0.0507
      7 C           3.5313   -0.4404    1.3057 C.ar    1  UNL1       -0.0198
      8 C          -0.1929   -0.1879    0.6826 C.3     1  UNL1        0.1895
      9 O          -0.5069   -0.1155    2.0565 O.3     1  UNL1       -0.4400
     10 C          -1.3958   -1.1363    2.3218 C.2     1  UNL1        0.3411
     11 O          -1.8688   -1.3220    3.4754 O.2     1  UNL1       -0.2449
     12 C          -1.7121   -1.9454    1.1521 C.ar    1  UNL1        0.0667
     13 C          -2.5327   -3.0402    0.9848 C.ar    1  UNL1       -0.0474
     14 C          -2.6008   -3.5814   -0.2847 C.ar    1  UNL1       -0.0610
     15 C          -1.8618   -3.0163   -1.3074 C.ar    1  UNL1       -0.0613
     16 C          -1.0488   -1.9113   -1.0852 C.ar    1  UNL1       -0.0533
     17 C          -0.9461   -1.3267    0.1827 C.ar    1  UNL1        0.0188
     18 C          -0.6634    1.1347    0.1251 C.ar    1  UNL1        0.0051
     19 C          -1.4981    1.2622   -0.9535 C.ar    1  UNL1       -0.0507
     20 C          -1.8996    2.4898   -1.4327 C.ar    1  UNL1       -0.0198
     21 C          -1.4685    3.6487   -0.8339 C.ar    1  UNL1        0.1169
     22 O          -1.8587    4.8956   -1.2973 O.3     1  UNL1       -0.5068
     23 C          -0.6177    3.5127    0.2653 C.ar    1  UNL1       -0.0198
     24 C          -0.2079    2.2775    0.7551 C.ar    1  UNL1       -0.0507
     25 H           6.0496   -0.8352    0.3263 H       1  UNL1        0.2921
     26 H           3.5715   -0.0389   -2.0761 H       1  UNL1        0.0654
     27 H           1.2068    0.0282   -1.6752 H       1  UNL1        0.0623
     28 H           1.8102   -0.5047    2.5198 H       1  UNL1        0.0623
     29 H           4.2321   -0.5721    2.1305 H       1  UNL1        0.0654
     30 H          -3.0847   -3.4373    1.8200 H       1  UNL1        0.0626
     31 H          -3.2246   -4.4400   -0.4873 H       1  UNL1        0.0618
     32 H          -1.9545   -3.4828   -2.2833 H       1  UNL1        0.0618
     33 H          -0.5358   -1.5737   -1.9486 H       1  UNL1        0.0622
     34 H          -1.8483    0.3858   -1.4382 H       1  UNL1        0.0623
     35 H          -2.5635    2.5126   -2.2932 H       1  UNL1        0.0654
     36 H          -2.4126    5.5223   -0.7280 H       1  UNL1        0.2921
     37 H          -0.2909    4.4589    0.7203 H       1  UNL1        0.0654
     38 H           0.4527    2.3160    1.6146 H       1  UNL1        0.0623
@<TRIPOS>BOND
     1     1     2    1
     2     2     3   ar
     3     3     4   ar
     4     4     5   ar
     5     5     6   ar
     6     6     7   ar
     7     5     8    1
     8     8     9    1
     9     9    10    1
    10    10    11    2
    11    10    12    1
    12    12    13   ar
    13    13    14   ar
    14    14    15   ar
    15    15    16   ar
    16    16    17   ar
    17     8    18    1
    18    18    19   ar
    19    19    20   ar
    20    20    21   ar
    21    21    22    1
    22    21    23   ar
    23    23    24   ar
    24     7     2   ar
    25    17     8    1
    26    24    18   ar
    27    17    12   ar
    28     1    25    1
    29     3    26    1
    30     4    27    1
    31     6    28    1
    32     7    29    1
    33    13    30    1
    34    14    31    1
    35    15    32    1
    36    16    33    1
    37    19    34    1
    38    20    35    1
    39    22    36    1
    40    23    37    1
    41    24    38    1
