
     RDKit          3D

 58 62  0  0  0  0  0  0  0  0999 V2000
   -3.1731    5.8519   -1.2527 C   0  0  0  0  0  0  0  0  0  0  0  0
   -3.3224    4.4124   -1.0774 N   0  0  0  0  0  0  0  0  0  0  0  0
   -2.3284    3.6934   -0.4047 C   0  0  0  0  0  0  0  0  0  0  0  0
   -1.3312    4.3416    0.0271 O   0  0  0  0  0  0  0  0  0  0  0  0
   -2.4457    2.2743   -0.2169 N   0  0  0  0  0  0  0  0  0  0  0  0
   -3.5875    1.5907   -0.7274 C   0  0  0  0  0  0  0  0  0  0  0  0
   -3.4602    0.1142   -0.8693 C   0  0  0  0  0  0  0  0  0  0  0  0
   -2.6009   -0.5265    0.1731 C   0  0  0  0  0  0  0  0  0  0  0  0
   -1.6251    0.2156    0.7996 C   0  0  0  0  0  0  0  0  0  0  0  0
   -0.9828   -0.6174    1.7073 C   0  0  0  0  0  0  0  0  0  0  0  0
    0.0984   -0.2006    2.5621 N   0  0  0  0  0  0  0  0  0  0  0  0
    1.4160   -0.2069    2.0527 C   0  0  0  0  0  0  0  0  0  0  0  0
    1.6551   -0.6024    0.7470 C   0  0  0  0  0  0  0  0  0  0  0  0
    2.9051   -0.6215    0.2025 C   0  0  0  0  0  0  0  0  0  0  0  0
    3.9615   -0.2331    0.9837 C   0  0  0  0  0  0  0  0  0  0  0  0
    5.3234   -0.2322    0.4422 C   0  0  0  0  0  0  0  0  0  0  0  0
    6.5126   -0.4551    1.1021 C   0  0  0  0  0  0  0  0  0  0  0  0
    7.4943   -0.3489    0.1831 N   0  0  0  0  0  0  0  0  0  0  0  0
    6.9983   -0.0734   -1.0119 N   0  0  0  0  0  0  0  0  0  0  0  0
    7.7379    0.1159   -2.2529 C   0  0  0  0  0  0  0  0  0  0  0  0
    5.6551    0.0022   -0.8690 C   0  0  0  0  0  0  0  0  0  0  0  0
    3.7350    0.1641    2.2908 C   0  0  0  0  0  0  0  0  0  0  0  0
    2.4909    0.1850    2.8385 C   0  0  0  0  0  0  0  0  0  0  0  0
    2.2383    0.5706    4.1199 F   0  0  0  0  0  0  0  0  0  0  0  0
   -1.5724   -1.8136    1.6085 N   0  0  0  0  0  0  0  0  0  0  0  0
   -2.5287   -1.7564    0.7007 N   0  0  0  0  0  0  0  0  0  0  0  0
   -3.3586   -2.8829    0.3547 C   0  0  1  0  0  0  0  0  0  0  0  0
   -3.4944   -3.0995   -1.1351 C   0  0  0  0  0  0  0  0  0  0  0  0
   -3.7826   -4.6067   -1.1540 C   0  0  0  0  0  0  0  0  0  0  0  0
   -3.1217   -5.1630   -0.0969 O   0  0  0  0  0  0  0  0  0  0  0  0
   -2.6595   -4.1883    0.7401 C   0  0  0  0  0  0  0  0  0  0  0  0
   -1.3760    1.6413    0.4903 C   0  0  0  0  0  0  0  0  0  0  0  0
   -3.6722    6.3964   -0.4233 H   0  0  0  0  0  0  0  0  0  0  0  0
   -2.0755    6.0613   -1.3006 H   0  0  0  0  0  0  0  0  0  0  0  0
   -3.5781    6.1650   -2.2294 H   0  0  0  0  0  0  0  0  0  0  0  0
   -4.1704    3.9397   -1.4557 H   0  0  0  0  0  0  0  0  0  0  0  0
   -4.4662    1.8969   -0.1033 H   0  0  0  0  0  0  0  0  0  0  0  0
   -3.7735    1.9965   -1.7682 H   0  0  0  0  0  0  0  0  0  0  0  0
   -4.4888   -0.3129   -0.6867 H   0  0  0  0  0  0  0  0  0  0  0  0
   -3.1033   -0.1423   -1.8900 H   0  0  0  0  0  0  0  0  0  0  0  0
   -0.0929    0.1014    3.5458 H   0  0  0  0  0  0  0  0  0  0  0  0
    0.8020   -0.9031    0.1554 H   0  0  0  0  0  0  0  0  0  0  0  0
    3.0065   -0.9426   -0.8237 H   0  0  0  0  0  0  0  0  0  0  0  0
    6.5976   -0.6708    2.1562 H   0  0  0  0  0  0  0  0  0  0  0  0
    7.0946    0.6838   -2.9680 H   0  0  0  0  0  0  0  0  0  0  0  0
    8.5782    0.8184   -1.9935 H   0  0  0  0  0  0  0  0  0  0  0  0
    8.1211   -0.8292   -2.6473 H   0  0  0  0  0  0  0  0  0  0  0  0
    4.9547    0.2161   -1.6695 H   0  0  0  0  0  0  0  0  0  0  0  0
    4.5840    0.4718    2.9054 H   0  0  0  0  0  0  0  0  0  0  0  0
   -4.3735   -2.8191    0.7874 H   0  0  0  0  0  0  0  0  0  0  0  0
   -4.3495   -2.5378   -1.5636 H   0  0  0  0  0  0  0  0  0  0  0  0
   -2.5675   -2.9409   -1.6946 H   0  0  0  0  0  0  0  0  0  0  0  0
   -4.8913   -4.6855   -0.9528 H   0  0  0  0  0  0  0  0  0  0  0  0
   -3.5903   -5.0553   -2.1287 H   0  0  0  0  0  0  0  0  0  0  0  0
   -1.5755   -4.0143    0.4756 H   0  0  0  0  0  0  0  0  0  0  0  0
   -2.7427   -4.4008    1.8175 H   0  0  0  0  0  0  0  0  0  0  0  0
   -0.4344    1.7980   -0.0836 H   0  0  0  0  0  0  0  0  0  0  0  0
   -1.2641    2.1645    1.4812 H   0  0  0  0  0  0  0  0  0  0  0  0
  1  2  1  0
  2  3  1  0
  3  4  2  0
  3  5  1  0
  5  6  1  0
  6  7  1  0
  7  8  1  0
  8  9  2  0
  9 10  1  0
 10 11  1  0
 11 12  1  0
 12 13  2  0
 13 14  1  0
 14 15  2  0
 15 16  1  0
 16 17  1  0
 17 18  2  0
 18 19  1  0
 19 20  1  0
 19 21  1  0
 15 22  1  0
 22 23  2  0
 23 24  1  0
 10 25  2  0
 25 26  1  0
 26 27  1  0
 27 28  1  0
 28 29  1  0
 29 30  1  0
 30 31  1  0
  9 32  1  0
 32  5  1  0
 26  8  1  0
 31 27  1  0
 23 12  1  0
 21 16  2  0
  1 33  1  0
  1 34  1  0
  1 35  1  0
  2 36  1  0
  6 37  1  0
  6 38  1  0
  7 39  1  0
  7 40  1  0
 11 41  1  0
 13 42  1  0
 14 43  1  0
 17 44  1  0
 20 45  1  0
 20 46  1  0
 20 47  1  0
 21 48  1  0
 22 49  1  0
 27 50  1  1
 28 51  1  0
 28 52  1  0
 29 53  1  0
 29 54  1  0
 31 55  1  0
 31 56  1  0
 32 57  1  0
 32 58  1  0
M  END
$$$$
