@<TRIPOS>MOLECULE
*****
 58 62 0 0 0
SMALL
GASTEIGER

@<TRIPOS>ATOM
      1 C          -3.1731    5.8519   -1.2527 C.3     1  UNL1        0.0015
      2 N          -3.3224    4.4124   -1.0774 N.am    1  UNL1       -0.3023
      3 C          -2.3284    3.6934   -0.4047 C.2     1  UNL1        0.3023
      4 O          -1.3312    4.3416    0.0271 O.2     1  UNL1       -0.2526
      5 N          -2.4457    2.2743   -0.2169 N.am    1  UNL1       -0.2808
      6 C          -3.5875    1.5907   -0.7274 C.3     1  UNL1        0.0219
      7 C          -3.4602    0.1142   -0.8693 C.3     1  UNL1        0.0056
      8 C          -2.6009   -0.5265    0.1731 C.ar    1  UNL1        0.0477
      9 C          -1.6251    0.2156    0.7996 C.ar    1  UNL1        0.0325
     10 C          -0.9828   -0.6174    1.7073 C.ar    1  UNL1        0.1499
     11 N           0.0984   -0.2006    2.5621 N.pl3   1  UNL1       -0.2955
     12 C           1.4160   -0.2069    2.0527 C.ar    1  UNL1        0.0681
     13 C           1.6551   -0.6024    0.7470 C.ar    1  UNL1       -0.0371
     14 C           2.9051   -0.6215    0.2025 C.ar    1  UNL1       -0.0520
     15 C           3.9615   -0.2331    0.9837 C.ar    1  UNL1       -0.0121
     16 C           5.3234   -0.2322    0.4422 C.ar    1  UNL1        0.0196
     17 C           6.5126   -0.4551    1.1021 C.ar    1  UNL1        0.0571
     18 N           7.4943   -0.3489    0.1831 N.ar    1  UNL1       -0.1793
     19 N           6.9983   -0.0734   -1.0119 N.ar    1  UNL1       -0.2739
     20 C           7.7379    0.1159   -2.2529 C.3     1  UNL1        0.0302
     21 C           5.6551    0.0022   -0.8690 C.ar    1  UNL1        0.0329
     22 C           3.7350    0.1641    2.2908 C.ar    1  UNL1       -0.0168
     23 C           2.4909    0.1850    2.8385 C.ar    1  UNL1        0.1450
     24 F           2.2383    0.5706    4.1199 F       1  UNL1       -0.2035
     25 N          -1.5724   -1.8136    1.6085 N.ar    1  UNL1       -0.1551
     26 N          -2.5287   -1.7564    0.7007 N.ar    1  UNL1       -0.2608
     27 C          -3.3586   -2.8829    0.3547 C.3     1  UNL1        0.0784
     28 C          -3.4944   -3.0995   -1.1351 C.3     1  UNL1       -0.0048
     29 C          -3.7826   -4.6067   -1.1540 C.3     1  UNL1        0.0498
     30 O          -3.1217   -5.1630   -0.0969 O.3     1  UNL1       -0.3776
     31 C          -2.6595   -4.1883    0.7401 C.3     1  UNL1        0.0701
     32 C          -1.3760    1.6413    0.4903 C.3     1  UNL1        0.0462
     33 H          -3.6722    6.3964   -0.4233 H       1  UNL1        0.0426
     34 H          -2.0755    6.0613   -1.3006 H       1  UNL1        0.0426
     35 H          -3.5781    6.1650   -2.2294 H       1  UNL1        0.0426
     36 H          -4.1704    3.9397   -1.4557 H       1  UNL1        0.1499
     37 H          -4.4662    1.8969   -0.1033 H       1  UNL1        0.0469
     38 H          -3.7735    1.9965   -1.7682 H       1  UNL1        0.0469
     39 H          -4.4888   -0.3129   -0.6867 H       1  UNL1        0.0343
     40 H          -3.1033   -0.1423   -1.8900 H       1  UNL1        0.0343
     41 H          -0.0929    0.1014    3.5458 H       1  UNL1        0.1537
     42 H           0.8020   -0.9031    0.1554 H       1  UNL1        0.0637
     43 H           3.0065   -0.9426   -0.8237 H       1  UNL1        0.0624
     44 H           6.5976   -0.6708    2.1562 H       1  UNL1        0.0854
     45 H           7.0946    0.6838   -2.9680 H       1  UNL1        0.0473
     46 H           8.5782    0.8184   -1.9935 H       1  UNL1        0.0473
     47 H           8.1211   -0.8292   -2.6473 H       1  UNL1        0.0473
     48 H           4.9547    0.2161   -1.6695 H       1  UNL1        0.0832
     49 H           4.5840    0.4718    2.9054 H       1  UNL1        0.0653
     50 H          -4.3735   -2.8191    0.7874 H       1  UNL1        0.0568
     51 H          -4.3495   -2.5378   -1.5636 H       1  UNL1        0.0309
     52 H          -2.5675   -2.9409   -1.6946 H       1  UNL1        0.0309
     53 H          -4.8913   -4.6855   -0.9528 H       1  UNL1        0.0560
     54 H          -3.5903   -5.0553   -2.1287 H       1  UNL1        0.0560
     55 H          -1.5755   -4.0143    0.4756 H       1  UNL1        0.0581
     56 H          -2.7427   -4.4008    1.8175 H       1  UNL1        0.0581
     57 H          -0.4344    1.7980   -0.0836 H       1  UNL1        0.0516
     58 H          -1.2641    2.1645    1.4812 H       1  UNL1        0.0516
@<TRIPOS>BOND
     1     1     2    1
     2     2     3   am
     3     3     4    2
     4     3     5   am
     5     5     6    1
     6     6     7    1
     7     7     8    1
     8     8     9   ar
     9     9    10   ar
    10    10    11    1
    11    11    12    1
    12    12    13   ar
    13    13    14   ar
    14    14    15   ar
    15    15    16    1
    16    16    17   ar
    17    17    18   ar
    18    18    19   ar
    19    19    20    1
    20    19    21   ar
    21    15    22   ar
    22    22    23   ar
    23    23    24    1
    24    10    25   ar
    25    25    26   ar
    26    26    27    1
    27    27    28    1
    28    28    29    1
    29    29    30    1
    30    30    31    1
    31     9    32    1
    32    32     5    1
    33    26     8   ar
    34    31    27    1
    35    23    12   ar
    36    21    16   ar
    37     1    33    1
    38     1    34    1
    39     1    35    1
    40     2    36    1
    41     6    37    1
    42     6    38    1
    43     7    39    1
    44     7    40    1
    45    11    41    1
    46    13    42    1
    47    14    43    1
    48    17    44    1
    49    20    45    1
    50    20    46    1
    51    20    47    1
    52    21    48    1
    53    22    49    1
    54    27    50    1
    55    28    51    1
    56    28    52    1
    57    29    53    1
    58    29    54    1
    59    31    55    1
    60    31    56    1
    61    32    57    1
    62    32    58    1
