
     RDKit          3D

 51 55  0  0  0  0  0  0  0  0999 V2000
    3.4387   -0.6644   -0.1968 O   0  0  0  0  0  0  0  0  0  0  0  0
    3.9096    0.4475    0.1710 C   0  0  0  0  0  0  0  0  0  0  0  0
    5.3506    0.4426    0.2352 N   0  0  0  0  0  0  0  0  0  0  0  0
    6.1214   -0.7280   -0.0899 C   0  0  0  0  0  0  0  0  0  0  0  0
    6.4907   -1.6607    0.8634 C   0  0  0  0  0  0  0  0  0  0  0  0
    7.2282   -2.7780    0.5651 C   0  0  0  0  0  0  0  0  0  0  0  0
    7.6444   -3.0237   -0.7427 C   0  0  0  0  0  0  0  0  0  0  0  0
    8.3690   -4.1264   -1.0181 F   0  0  0  0  0  0  0  0  0  0  0  0
    7.2827   -2.1008   -1.7063 C   0  0  0  0  0  0  0  0  0  0  0  0
    6.5324   -0.9705   -1.3828 C   0  0  0  0  0  0  0  0  0  0  0  0
    6.1773   -0.0648   -2.3356 F   0  0  0  0  0  0  0  0  0  0  0  0
    3.0997    1.5904    0.4886 C   0  0  0  0  0  0  0  0  0  0  0  0
    3.6901    2.7435    1.0099 C   0  0  0  0  0  0  0  0  0  0  0  0
    2.9308    3.8394    1.3528 C   0  0  0  0  0  0  0  0  0  0  0  0
    1.5639    3.8303    1.1911 C   0  0  0  0  0  0  0  0  0  0  0  0
    1.0209    2.7276    0.6947 N   0  0  0  0  0  0  0  0  0  0  0  0
    1.7455    1.6096    0.3385 C   0  0  0  0  0  0  0  0  0  0  0  0
    1.0545    0.5179   -0.2306 N   0  0  0  0  0  0  0  0  0  0  0  0
   -0.3875    0.5451   -0.1768 C   0  0  0  0  0  0  0  0  0  0  0  0
   -1.0817    1.0708    0.8776 C   0  0  0  0  0  0  0  0  0  0  0  0
   -2.4827    1.0959    0.8793 C   0  0  0  0  0  0  0  0  0  0  0  0
   -3.1982    0.5913   -0.1817 C   0  0  0  0  0  0  0  0  0  0  0  0
   -4.5801    0.6329   -0.1470 O   0  0  0  0  0  0  0  0  0  0  0  0
   -5.3838   -0.4956   -0.1769 C   0  0  0  0  0  0  0  0  0  0  0  0
   -4.9052   -1.7848   -0.2213 C   0  0  0  0  0  0  0  0  0  0  0  0
   -5.7467   -2.8706   -0.2508 C   0  0  0  0  0  0  0  0  0  0  0  0
   -7.0724   -2.6403   -0.2345 N   0  0  0  0  0  0  0  0  0  0  0  0
   -7.5789   -1.3841   -0.1906 C   0  0  0  0  0  0  0  0  0  0  0  0
   -8.8679   -0.9681   -0.1671 N   0  0  0  0  0  0  0  0  0  0  0  0
   -8.8776    0.3756   -0.1230 C   0  0  0  0  0  0  0  0  0  0  0  0
   -7.5630    0.8431   -0.1177 C   0  0  0  0  0  0  0  0  0  0  0  0
   -6.7636   -0.2743   -0.1604 C   0  0  0  0  0  0  0  0  0  0  0  0
   -2.4992    0.0560   -1.2558 C   0  0  0  0  0  0  0  0  0  0  0  0
   -3.2101   -0.4263   -2.2997 F   0  0  0  0  0  0  0  0  0  0  0  0
   -1.1169    0.0448   -1.2294 C   0  0  0  0  0  0  0  0  0  0  0  0
    5.8189    1.3142    0.5227 H   0  0  0  0  0  0  0  0  0  0  0  0
    6.1700   -1.4775    1.8867 H   0  0  0  0  0  0  0  0  0  0  0  0
    7.5217   -3.5134    1.3115 H   0  0  0  0  0  0  0  0  0  0  0  0
    7.5950   -2.2714   -2.7279 H   0  0  0  0  0  0  0  0  0  0  0  0
    4.7697    2.7732    1.1482 H   0  0  0  0  0  0  0  0  0  0  0  0
    3.4093    4.7173    1.7524 H   0  0  0  0  0  0  0  0  0  0  0  0
    0.9415    4.6918    1.4578 H   0  0  0  0  0  0  0  0  0  0  0  0
    1.4477   -0.3042   -0.6965 H   0  0  0  0  0  0  0  0  0  0  0  0
   -0.5695    1.4661    1.7387 H   0  0  0  0  0  0  0  0  0  0  0  0
   -2.9633    1.5226    1.7383 H   0  0  0  0  0  0  0  0  0  0  0  0
   -3.8479   -1.9595   -0.2268 H   0  0  0  0  0  0  0  0  0  0  0  0
   -5.3671   -3.8858   -0.2865 H   0  0  0  0  0  0  0  0  0  0  0  0
   -9.6711   -1.6256   -0.1822 H   0  0  0  0  0  0  0  0  0  0  0  0
   -9.7597    1.0051   -0.0957 H   0  0  0  0  0  0  0  0  0  0  0  0
   -7.2393    1.8714   -0.0857 H   0  0  0  0  0  0  0  0  0  0  0  0
   -0.5913   -0.3674   -2.0569 H   0  0  0  0  0  0  0  0  0  0  0  0
  1  2  2  0
  2  3  1  0
  3  4  1  0
  4  5  2  0
  5  6  1  0
  6  7  2  0
  7  8  1  0
  7  9  1  0
  9 10  2  0
 10 11  1  0
  2 12  1  0
 12 13  2  0
 13 14  1  0
 14 15  2  0
 15 16  1  0
 16 17  2  0
 17 18  1  0
 18 19  1  0
 19 20  2  0
 20 21  1  0
 21 22  2  0
 22 23  1  0
 23 24  1  0
 24 25  2  0
 25 26  1  0
 26 27  2  0
 27 28  1  0
 28 29  1  0
 29 30  1  0
 30 31  2  0
 31 32  1  0
 22 33  1  0
 33 34  1  0
 33 35  2  0
 10  4  1  0
 17 12  1  0
 35 19  1  0
 32 24  1  0
 32 28  2  0
  3 36  1  0
  5 37  1  0
  6 38  1  0
  9 39  1  0
 13 40  1  0
 14 41  1  0
 15 42  1  0
 18 43  1  0
 20 44  1  0
 21 45  1  0
 25 46  1  0
 26 47  1  0
 29 48  1  0
 30 49  1  0
 31 50  1  0
 35 51  1  0
M  END
$$$$
