@<TRIPOS>MOLECULE
*****
 51 55 0 0 0
SMALL
GASTEIGER

@<TRIPOS>ATOM
      1 O           3.4387   -0.6644   -0.1968 O.2     1  UNL1       -0.2697
      2 C           3.9096    0.4475    0.1710 C.2     1  UNL1        0.2516
      3 N           5.3506    0.4426    0.2352 N.am    1  UNL1       -0.2791
      4 C           6.1214   -0.7280   -0.0899 C.ar    1  UNL1        0.0694
      5 C           6.4907   -1.6607    0.8634 C.ar    1  UNL1       -0.0349
      6 C           7.2282   -2.7780    0.5651 C.ar    1  UNL1       -0.0245
      7 C           7.6444   -3.0237   -0.7427 C.ar    1  UNL1        0.1262
      8 F           8.3690   -4.1264   -1.0181 F       1  UNL1       -0.2054
      9 C           7.2827   -2.1008   -1.7063 C.ar    1  UNL1        0.0106
     10 C           6.5324   -0.9705   -1.3828 C.ar    1  UNL1        0.1472
     11 F           6.1773   -0.0648   -2.3356 F       1  UNL1       -0.2035
     12 C           3.0997    1.5904    0.4886 C.ar    1  UNL1        0.0770
     13 C           3.6901    2.7435    1.0099 C.ar    1  UNL1       -0.0449
     14 C           2.9308    3.8394    1.3528 C.ar    1  UNL1       -0.0427
     15 C           1.5639    3.8303    1.1911 C.ar    1  UNL1        0.0297
     16 N           1.0209    2.7276    0.6947 N.ar    1  UNL1       -0.2394
     17 C           1.7455    1.6096    0.3385 C.ar    1  UNL1        0.1351
     18 N           1.0545    0.5179   -0.2306 N.pl3   1  UNL1       -0.2988
     19 C          -0.3875    0.5451   -0.1768 C.ar    1  UNL1        0.0354
     20 C          -1.0817    1.0708    0.8776 C.ar    1  UNL1       -0.0369
     21 C          -2.4827    1.0959    0.8793 C.ar    1  UNL1       -0.0147
     22 C          -3.1982    0.5913   -0.1817 C.ar    1  UNL1        0.1636
     23 O          -4.5801    0.6329   -0.1470 O.3     1  UNL1       -0.4524
     24 C          -5.3838   -0.4956   -0.1769 C.ar    1  UNL1        0.1406
     25 C          -4.9052   -1.7848   -0.2213 C.ar    1  UNL1       -0.0005
     26 C          -5.7467   -2.8706   -0.2508 C.ar    1  UNL1        0.0334
     27 N          -7.0724   -2.6403   -0.2345 N.ar    1  UNL1       -0.2373
     28 C          -7.5789   -1.3841   -0.1906 C.ar    1  UNL1        0.1416
     29 N          -8.8679   -0.9681   -0.1671 N.ar    1  UNL1       -0.3457
     30 C          -8.8776    0.3756   -0.1230 C.ar    1  UNL1        0.0042
     31 C          -7.5630    0.8431   -0.1177 C.ar    1  UNL1       -0.0315
     32 C          -6.7636   -0.2743   -0.1604 C.ar    1  UNL1        0.0608
     33 C          -2.4992    0.0560   -1.2558 C.ar    1  UNL1        0.1672
     34 F          -3.2101   -0.4263   -2.2997 F       1  UNL1       -0.2016
     35 C          -1.1169    0.0448   -1.2294 C.ar    1  UNL1       -0.0016
     36 H           5.8189    1.3142    0.5227 H       1  UNL1        0.1552
     37 H           6.1700   -1.4775    1.8867 H       1  UNL1        0.0638
     38 H           7.5217   -3.5134    1.3115 H       1  UNL1        0.0647
     39 H           7.5950   -2.2714   -2.7279 H       1  UNL1        0.0675
     40 H           4.7697    2.7732    1.1482 H       1  UNL1        0.0627
     41 H           3.4093    4.7173    1.7524 H       1  UNL1        0.0633
     42 H           0.9415    4.6918    1.4578 H       1  UNL1        0.0830
     43 H           1.4477   -0.3042   -0.6965 H       1  UNL1        0.1536
     44 H          -0.5695    1.4661    1.7387 H       1  UNL1        0.0637
     45 H          -2.9633    1.5226    1.7383 H       1  UNL1        0.0656
     46 H          -3.8479   -1.9595   -0.2268 H       1  UNL1        0.0670
     47 H          -5.3671   -3.8858   -0.2865 H       1  UNL1        0.0831
     48 H          -9.6711   -1.6256   -0.1822 H       1  UNL1        0.1668
     49 H          -9.7597    1.0051   -0.0957 H       1  UNL1        0.0807
     50 H          -7.2393    1.8714   -0.0857 H       1  UNL1        0.0640
     51 H          -0.5913   -0.3674   -2.0569 H       1  UNL1        0.0666
@<TRIPOS>BOND
     1     1     2    2
     2     2     3   am
     3     3     4    1
     4     4     5   ar
     5     5     6   ar
     6     6     7   ar
     7     7     8    1
     8     7     9   ar
     9     9    10   ar
    10    10    11    1
    11     2    12    1
    12    12    13   ar
    13    13    14   ar
    14    14    15   ar
    15    15    16   ar
    16    16    17   ar
    17    17    18    1
    18    18    19    1
    19    19    20   ar
    20    20    21   ar
    21    21    22   ar
    22    22    23    1
    23    23    24    1
    24    24    25   ar
    25    25    26   ar
    26    26    27   ar
    27    27    28   ar
    28    28    29   ar
    29    29    30   ar
    30    30    31   ar
    31    31    32   ar
    32    22    33   ar
    33    33    34    1
    34    33    35   ar
    35    10     4   ar
    36    17    12   ar
    37    35    19   ar
    38    32    24   ar
    39    32    28   ar
    40     3    36    1
    41     5    37    1
    42     6    38    1
    43     9    39    1
    44    13    40    1
    45    14    41    1
    46    15    42    1
    47    18    43    1
    48    20    44    1
    49    21    45    1
    50    25    46    1
    51    26    47    1
    52    29    48    1
    53    30    49    1
    54    31    50    1
    55    35    51    1
