
     RDKit          3D

 52 57  0  0  0  0  0  0  0  0999 V2000
    3.8502    0.3039   -2.3696 C   0  0  0  0  0  0  0  0  0  0  0  0
    3.3550   -0.4078   -1.1427 C   0  0  0  0  0  0  0  0  0  0  0  0
    4.0625   -1.0793   -0.2305 N   0  0  0  0  0  0  0  0  0  0  0  0
    3.2819   -1.5763    0.7162 N   0  0  0  0  0  0  0  0  0  0  0  0
    3.7120   -2.3616    1.8666 C   0  0  0  0  0  0  0  0  0  0  0  0
    3.9762   -1.7535    3.1675 C   0  0  0  0  0  0  0  0  0  0  0  0
    5.1354   -2.0653    2.2873 C   0  0  0  0  0  0  0  0  0  0  0  0
    2.0174   -1.2199    0.4164 C   0  0  0  0  0  0  0  0  0  0  0  0
    2.0421   -0.4869   -0.7436 C   0  0  0  0  0  0  0  0  0  0  0  0
    0.6737   -0.0474   -1.1133 C   0  0  0  0  0  0  0  0  0  0  0  0
    0.5925    1.4342   -1.1894 C   0  0  0  0  0  0  0  0  0  0  0  0
    0.6377    2.0755   -2.4057 C   0  0  0  0  0  0  0  0  0  0  0  0
    0.5646    3.4522   -2.5104 C   0  0  0  0  0  0  0  0  0  0  0  0
    0.4434    4.2174   -1.3814 C   0  0  0  0  0  0  0  0  0  0  0  0
    0.3549    5.9583   -1.5723 Cl  0  0  0  0  0  0  0  0  0  0  0  0
    0.3967    3.5954   -0.1598 C   0  0  0  0  0  0  0  0  0  0  0  0
    0.4705    2.2089   -0.0571 C   0  0  0  0  0  0  0  0  0  0  0  0
   -0.2214   -0.6191   -0.1261 N   0  0  0  0  0  0  0  0  0  0  0  0
   -1.6319   -0.5156   -0.0944 C   0  0  0  0  0  0  0  0  0  0  0  0
   -2.2897    0.1390   -1.1358 C   0  0  0  0  0  0  0  0  0  0  0  0
   -3.6625    0.2802   -1.1574 C   0  0  0  0  0  0  0  0  0  0  0  0
   -4.2855    0.9898   -2.3003 C   0  0  0  0  0  0  0  0  0  0  0  0
   -4.3526   -0.2590   -0.0971 C   0  0  0  0  0  0  0  0  0  0  0  0
   -5.6685   -0.2796    0.1559 N   0  0  0  0  0  0  0  0  0  0  0  0
   -5.8673   -0.9124    1.2995 N   0  0  0  0  0  0  0  0  0  0  0  0
   -4.6774   -1.3158    1.8117 C   0  0  0  0  0  0  0  0  0  0  0  0
   -4.4057   -2.0555    3.0655 C   0  0  0  0  0  0  0  0  0  0  0  0
   -3.7570   -0.8940    0.9196 N   0  0  0  0  0  0  0  0  0  0  0  0
   -2.4020   -1.0217    0.9207 C   0  0  0  0  0  0  0  0  0  0  0  0
    0.6009   -1.3032    0.8080 C   0  0  0  0  0  0  0  0  0  0  0  0
    0.2755   -1.9237    1.8514 O   0  0  0  0  0  0  0  0  0  0  0  0
    3.4950   -0.2367   -3.2715 H   0  0  0  0  0  0  0  0  0  0  0  0
    4.9560    0.2767   -2.3597 H   0  0  0  0  0  0  0  0  0  0  0  0
    3.4406    1.3250   -2.4290 H   0  0  0  0  0  0  0  0  0  0  0  0
    3.3872   -3.4207    1.8199 H   0  0  0  0  0  0  0  0  0  0  0  0
    3.7186   -0.7110    3.4007 H   0  0  0  0  0  0  0  0  0  0  0  0
    3.8850   -2.4389    4.0532 H   0  0  0  0  0  0  0  0  0  0  0  0
    5.7599   -2.9604    2.4358 H   0  0  0  0  0  0  0  0  0  0  0  0
    5.6695   -1.2030    1.8538 H   0  0  0  0  0  0  0  0  0  0  0  0
    0.3942   -0.4896   -2.0922 H   0  0  0  0  0  0  0  0  0  0  0  0
    0.7329    1.5139   -3.3253 H   0  0  0  0  0  0  0  0  0  0  0  0
    0.6026    3.9180   -3.4700 H   0  0  0  0  0  0  0  0  0  0  0  0
    0.3005    4.2326    0.7098 H   0  0  0  0  0  0  0  0  0  0  0  0
    0.4277    1.7811    0.9405 H   0  0  0  0  0  0  0  0  0  0  0  0
   -1.6925    0.5339   -1.9407 H   0  0  0  0  0  0  0  0  0  0  0  0
   -3.9814    2.0680   -2.3211 H   0  0  0  0  0  0  0  0  0  0  0  0
   -5.3826    0.9776   -2.2454 H   0  0  0  0  0  0  0  0  0  0  0  0
   -3.9899    0.5387   -3.2747 H   0  0  0  0  0  0  0  0  0  0  0  0
   -4.2853   -3.1446    2.9079 H   0  0  0  0  0  0  0  0  0  0  0  0
   -5.2278   -1.8985    3.8033 H   0  0  0  0  0  0  0  0  0  0  0  0
   -3.4830   -1.6826    3.5536 H   0  0  0  0  0  0  0  0  0  0  0  0
   -1.9490   -1.5366    1.7515 H   0  0  0  0  0  0  0  0  0  0  0  0
  1  2  1  0
  2  3  2  0
  3  4  1  0
  4  5  1  0
  5  6  1  0
  6  7  1  0
  4  8  1  0
  8  9  2  0
  9 10  1  0
 10 11  1  0
 11 12  2  0
 12 13  1  0
 13 14  2  0
 14 15  1  0
 14 16  1  0
 16 17  2  0
 10 18  1  0
 18 19  1  0
 19 20  1  0
 20 21  2  0
 21 22  1  0
 21 23  1  0
 23 24  2  0
 24 25  1  0
 25 26  2  0
 26 27  1  0
 26 28  1  0
 28 29  1  0
 18 30  1  0
 30 31  2  0
  9  2  1  0
 17 11  1  0
 29 19  2  0
  7  5  1  0
 30  8  1  0
 28 23  1  0
  1 32  1  0
  1 33  1  0
  1 34  1  0
  5 35  1  0
  6 36  1  0
  6 37  1  0
  7 38  1  0
  7 39  1  0
 10 40  1  0
 12 41  1  0
 13 42  1  0
 16 43  1  0
 17 44  1  0
 20 45  1  0
 22 46  1  0
 22 47  1  0
 22 48  1  0
 27 49  1  0
 27 50  1  0
 27 51  1  0
 29 52  1  0
M  END
$$$$
