@<TRIPOS>MOLECULE
*****
 52 57 0 0 0
SMALL
GASTEIGER

@<TRIPOS>ATOM
      1 C           3.8502    0.3039   -2.3696 C.3     1  UNL1       -0.0203
      2 C           3.3550   -0.4078   -1.1427 C.ar    1  UNL1        0.0660
      3 N           4.0625   -1.0793   -0.2305 N.ar    1  UNL1       -0.1752
      4 N           3.2819   -1.5763    0.7162 N.ar    1  UNL1       -0.2556
      5 C           3.7120   -2.3616    1.8666 C.3     1  UNL1        0.0537
      6 C           3.9762   -1.7535    3.1675 C.3     1  UNL1       -0.0285
      7 C           5.1354   -2.0653    2.2873 C.3     1  UNL1       -0.0285
      8 C           2.0174   -1.2199    0.4164 C.ar    1  UNL1        0.1297
      9 C           2.0421   -0.4869   -0.7436 C.ar    1  UNL1        0.0304
     10 C           0.6737   -0.0474   -1.1133 C.3     1  UNL1        0.0854
     11 C           0.5925    1.4342   -1.1894 C.ar    1  UNL1       -0.0221
     12 C           0.6377    2.0755   -2.4057 C.ar    1  UNL1       -0.0551
     13 C           0.5646    3.4522   -2.5104 C.ar    1  UNL1       -0.0431
     14 C           0.4434    4.2174   -1.3814 C.ar    1  UNL1        0.0410
     15 CL          0.3549    5.9583   -1.5723 Cl      1  UNL1       -0.0835
     16 C           0.3967    3.5954   -0.1598 C.ar    1  UNL1       -0.0431
     17 C           0.4705    2.2089   -0.0571 C.ar    1  UNL1       -0.0551
     18 N          -0.2214   -0.6191   -0.1261 N.am    1  UNL1       -0.2531
     19 C          -1.6319   -0.5156   -0.0944 C.ar    1  UNL1        0.0545
     20 C          -2.2897    0.1390   -1.1358 C.ar    1  UNL1       -0.0324
     21 C          -3.6625    0.2802   -1.1574 C.ar    1  UNL1       -0.0041
     22 C          -4.2855    0.9898   -2.3003 C.3     1  UNL1       -0.0361
     23 C          -4.3526   -0.2590   -0.0971 C.ar    1  UNL1        0.1641
     24 N          -5.6685   -0.2796    0.1559 N.ar    1  UNL1       -0.1292
     25 N          -5.8673   -0.9124    1.2995 N.ar    1  UNL1       -0.1340
     26 C          -4.6774   -1.3158    1.8117 C.ar    1  UNL1        0.1347
     27 C          -4.4057   -2.0555    3.0655 C.3     1  UNL1       -0.0041
     28 N          -3.7570   -0.8940    0.9196 N.ar    1  UNL1       -0.2846
     29 C          -2.4020   -1.0217    0.9207 C.ar    1  UNL1        0.0344
     30 C           0.6009   -1.3032    0.8080 C.2     1  UNL1        0.2700
     31 O           0.2755   -1.9237    1.8514 O.2     1  UNL1       -0.2679
     32 H           3.4950   -0.2367   -3.2715 H       1  UNL1        0.0293
     33 H           4.9560    0.2767   -2.3597 H       1  UNL1        0.0293
     34 H           3.4406    1.3250   -2.4290 H       1  UNL1        0.0293
     35 H           3.3872   -3.4207    1.8199 H       1  UNL1        0.0545
     36 H           3.7186   -0.7110    3.4007 H       1  UNL1        0.0286
     37 H           3.8850   -2.4389    4.0532 H       1  UNL1        0.0286
     38 H           5.7599   -2.9604    2.4358 H       1  UNL1        0.0286
     39 H           5.6695   -1.2030    1.8538 H       1  UNL1        0.0286
     40 H           0.3942   -0.4896   -2.0922 H       1  UNL1        0.0606
     41 H           0.7329    1.5139   -3.3253 H       1  UNL1        0.0621
     42 H           0.6026    3.9180   -3.4700 H       1  UNL1        0.0632
     43 H           0.3005    4.2326    0.7098 H       1  UNL1        0.0632
     44 H           0.4277    1.7811    0.9405 H       1  UNL1        0.0621
     45 H          -1.6925    0.5339   -1.9407 H       1  UNL1        0.0640
     46 H          -3.9814    2.0680   -2.3211 H       1  UNL1        0.0279
     47 H          -5.3826    0.9776   -2.2454 H       1  UNL1        0.0279
     48 H          -3.9899    0.5387   -3.2747 H       1  UNL1        0.0279
     49 H          -4.2853   -3.1446    2.9079 H       1  UNL1        0.0308
     50 H          -5.2278   -1.8985    3.8033 H       1  UNL1        0.0308
     51 H          -3.4830   -1.6826    3.5536 H       1  UNL1        0.0308
     52 H          -1.9490   -1.5366    1.7515 H       1  UNL1        0.0833
@<TRIPOS>BOND
     1     1     2    1
     2     2     3   ar
     3     3     4   ar
     4     4     5    1
     5     5     6    1
     6     6     7    1
     7     4     8   ar
     8     8     9   ar
     9     9    10    1
    10    10    11    1
    11    11    12   ar
    12    12    13   ar
    13    13    14   ar
    14    14    15    1
    15    14    16   ar
    16    16    17   ar
    17    10    18    1
    18    18    19    1
    19    19    20   ar
    20    20    21   ar
    21    21    22    1
    22    21    23   ar
    23    23    24   ar
    24    24    25   ar
    25    25    26   ar
    26    26    27    1
    27    26    28   ar
    28    28    29   ar
    29    18    30   am
    30    30    31    2
    31     9     2   ar
    32    17    11   ar
    33    29    19   ar
    34     7     5    1
    35    30     8    1
    36    28    23   ar
    37     1    32    1
    38     1    33    1
    39     1    34    1
    40     5    35    1
    41     6    36    1
    42     6    37    1
    43     7    38    1
    44     7    39    1
    45    10    40    1
    46    12    41    1
    47    13    42    1
    48    16    43    1
    49    17    44    1
    50    20    45    1
    51    22    46    1
    52    22    47    1
    53    22    48    1
    54    27    49    1
    55    27    50    1
    56    27    51    1
    57    29    52    1
