
     RDKit          3D

 47 48  0  0  0  0  0  0  0  0999 V2000
   -4.9068    2.2626   -0.9590 O   0  0  0  0  0  0  0  0  0  0  0  0
   -3.5229    2.2076   -1.0688 C   0  0  0  0  0  0  0  0  0  0  0  0
   -3.0567    0.7674   -1.0606 C   0  0  1  0  0  0  0  0  0  0  0  0
   -1.5735    0.6404   -1.1758 C   0  0  0  0  0  0  0  0  0  0  0  0
   -1.1574   -0.7715   -0.9759 C   0  0  1  0  0  0  0  0  0  0  0  0
   -0.1260   -0.9783    0.5186 S   0  0  0  0  0  0  0  0  0  0  0  0
    1.4031   -0.0796    0.1763 C   0  0  0  0  0  0  0  0  0  0  0  0
    1.7005   -0.4934    1.3631 N   0  0  0  0  0  0  0  0  0  0  0  0
    0.8175   -1.2610    2.0898 O   0  0  0  0  0  0  0  0  0  0  0  0
    1.0969   -2.9408    2.1049 S   0  0  0  0  0  0  0  0  0  0  0  0
    2.3601   -3.3790    1.0859 O   0  0  0  0  0  0  0  0  0  0  0  0
   -0.1265   -3.6956    1.6443 O   0  0  0  0  0  0  0  0  0  0  0  0
    1.5035   -3.4026    3.4857 O   0  0  0  0  0  0  0  0  0  0  0  0
    2.2554    0.7504   -0.7159 C   0  0  0  0  0  0  0  0  0  0  0  0
    3.5258    1.0302    0.0061 C   0  0  0  0  0  0  0  0  0  0  0  0
    3.5110    2.1816    0.7730 C   0  0  0  0  0  0  0  0  0  0  0  0
    4.6504    2.5157    1.4766 C   0  0  0  0  0  0  0  0  0  0  0  0
    5.8107    1.7758    1.4677 C   0  0  0  0  0  0  0  0  0  0  0  0
    5.7404    0.6479    0.6808 C   0  0  0  0  0  0  0  0  0  0  0  0
    4.6501    0.2376   -0.0533 C   0  0  0  0  0  0  0  0  0  0  0  0
   -2.2654   -1.7809   -0.9286 C   0  0  2  0  0  0  0  0  0  0  0  0
   -2.7296   -2.0767   -2.2124 O   0  0  0  0  0  0  0  0  0  0  0  0
   -3.3830   -1.4016    0.0042 C   0  0  1  0  0  0  0  0  0  0  0  0
   -3.3059   -2.0978    1.1875 O   0  0  0  0  0  0  0  0  0  0  0  0
   -3.4608    0.0844    0.2483 C   0  0  2  0  0  0  0  0  0  0  0  0
   -4.6922    0.4916    0.7032 O   0  0  0  0  0  0  0  0  0  0  0  0
   -5.1820    2.6904   -0.0966 H   0  0  0  0  0  0  0  0  0  0  0  0
   -3.0007    2.8228   -0.2991 H   0  0  0  0  0  0  0  0  0  0  0  0
   -3.2492    2.6412   -2.0463 H   0  0  0  0  0  0  0  0  0  0  0  0
   -3.5697    0.2516   -1.8783 H   0  0  0  0  0  0  0  0  0  0  0  0
   -1.2336    1.0950   -2.1305 H   0  0  0  0  0  0  0  0  0  0  0  0
   -1.1087    1.2618   -0.3660 H   0  0  0  0  0  0  0  0  0  0  0  0
   -0.5108   -1.0480   -1.8345 H   0  0  0  0  0  0  0  0  0  0  0  0
    2.4916   -2.5955    0.4705 H   0  0  0  0  0  0  0  0  0  0  0  0
    1.7072    1.6713   -0.9603 H   0  0  0  0  0  0  0  0  0  0  0  0
    2.4548    0.2530   -1.6866 H   0  0  0  0  0  0  0  0  0  0  0  0
    2.6325    2.8310    0.8397 H   0  0  0  0  0  0  0  0  0  0  0  0
    4.6192    3.4325    2.0789 H   0  0  0  0  0  0  0  0  0  0  0  0
    6.6902    2.0516    2.0227 H   0  0  0  0  0  0  0  0  0  0  0  0
    6.6091   -0.0113    0.6034 H   0  0  0  0  0  0  0  0  0  0  0  0
    4.6175   -0.6384   -0.6553 H   0  0  0  0  0  0  0  0  0  0  0  0
   -1.8125   -2.7178   -0.5371 H   0  0  0  0  0  0  0  0  0  0  0  0
   -2.0035   -1.8243   -2.8416 H   0  0  0  0  0  0  0  0  0  0  0  0
   -4.3385   -1.6773   -0.4895 H   0  0  0  0  0  0  0  0  0  0  0  0
   -2.4870   -1.9146    1.7059 H   0  0  0  0  0  0  0  0  0  0  0  0
   -2.6721    0.3461    0.9838 H   0  0  0  0  0  0  0  0  0  0  0  0
   -5.3728   -0.1558    0.3681 H   0  0  0  0  0  0  0  0  0  0  0  0
  1  2  1  0
  2  3  1  0
  3  4  1  0
  4  5  1  0
  5  6  1  0
  6  7  1  0
  7  8  2  0
  8  9  1  0
  9 10  1  0
 10 11  1  0
 10 12  2  0
 10 13  2  0
  7 14  1  0
 14 15  1  0
 15 16  2  0
 16 17  1  0
 17 18  2  0
 18 19  1  0
 19 20  2  0
  5 21  1  0
 21 22  1  0
 21 23  1  0
 23 24  1  0
 23 25  1  0
 25 26  1  0
 25  3  1  0
 20 15  1  0
  1 27  1  0
  2 28  1  0
  2 29  1  0
  3 30  1  6
  4 31  1  0
  4 32  1  0
  5 33  1  6
 11 34  1  0
 14 35  1  0
 14 36  1  0
 16 37  1  0
 17 38  1  0
 18 39  1  0
 19 40  1  0
 20 41  1  0
 21 42  1  1
 22 43  1  0
 23 44  1  6
 24 45  1  0
 25 46  1  1
 26 47  1  0
M  END
$$$$
