
     RDKit          3D

 58 63  0  0  0  0  0  0  0  0999 V2000
    6.2019    1.0143    2.2397 C   0  0  0  0  0  0  0  0  0  0  0  0
    5.1443    0.7211    1.3878 O   0  0  0  0  0  0  0  0  0  0  0  0
    4.8360    1.5011    0.2599 C   0  0  0  0  0  0  0  0  0  0  0  0
    5.5491    2.5912   -0.0728 N   0  0  0  0  0  0  0  0  0  0  0  0
    5.2669    3.3479   -1.1488 C   0  0  0  0  0  0  0  0  0  0  0  0
    4.2068    3.0275   -1.9757 C   0  0  0  0  0  0  0  0  0  0  0  0
    3.4521    1.9155   -1.6660 C   0  0  0  0  0  0  0  0  0  0  0  0
    3.7757    1.1689   -0.5553 C   0  0  0  0  0  0  0  0  0  0  0  0
    2.9998    0.0185   -0.2296 N   0  0  0  0  0  0  0  0  0  0  0  0
    3.4413   -1.2025   -0.0381 N   0  0  0  0  0  0  0  0  0  0  0  0
    2.4580   -2.0449    0.2504 C   0  0  0  0  0  0  0  0  0  0  0  0
    2.4656   -3.4971    0.5415 C   0  0  0  0  0  0  0  0  0  0  0  0
    1.2861   -1.2656    0.2355 C   0  0  0  0  0  0  0  0  0  0  0  0
    1.6436    0.0176   -0.0641 C   0  0  0  0  0  0  0  0  0  0  0  0
    0.4691    0.8955   -0.0683 C   0  0  0  0  0  0  0  0  0  0  0  0
    0.5300    2.1238   -0.3194 O   0  0  0  0  0  0  0  0  0  0  0  0
   -0.6123    0.0400    0.2563 N   0  0  0  0  0  0  0  0  0  0  0  0
   -1.9644    0.4793    0.4181 C   0  0  0  0  0  0  0  0  0  0  0  0
   -2.8879   -0.4597    0.8340 C   0  0  0  0  0  0  0  0  0  0  0  0
   -4.2019   -0.0908    0.9937 C   0  0  0  0  0  0  0  0  0  0  0  0
   -5.2258   -1.0898    1.4437 C   0  0  0  0  0  0  0  0  0  0  0  0
   -4.5762    1.2126    0.7359 C   0  0  0  0  0  0  0  0  0  0  0  0
   -5.7539    1.8603    0.7989 N   0  0  0  0  0  0  0  0  0  0  0  0
   -5.5919    3.1273    0.4470 N   0  0  0  0  0  0  0  0  0  0  0  0
   -4.2813    3.3275    0.1439 C   0  0  0  0  0  0  0  0  0  0  0  0
   -3.6819    4.6129   -0.2969 C   0  0  0  0  0  0  0  0  0  0  0  0
   -3.6818    2.1288    0.3317 N   0  0  0  0  0  0  0  0  0  0  0  0
   -2.3827    1.7698    0.1722 C   0  0  0  0  0  0  0  0  0  0  0  0
   -0.1712   -1.3176    0.3945 C   0  0  0  0  0  0  0  0  0  0  0  0
   -0.7990   -2.2632   -0.5625 C   0  0  0  0  0  0  0  0  0  0  0  0
   -1.0443   -1.9277   -1.8730 C   0  0  0  0  0  0  0  0  0  0  0  0
   -1.6078   -2.8181   -2.7584 C   0  0  0  0  0  0  0  0  0  0  0  0
   -1.9347   -4.0804   -2.3181 C   0  0  0  0  0  0  0  0  0  0  0  0
   -2.6601   -5.2708   -3.4015 Cl  0  0  0  0  0  0  0  0  0  0  0  0
   -1.7048   -4.4585   -1.0085 C   0  0  0  0  0  0  0  0  0  0  0  0
   -1.1430   -3.5379   -0.1677 C   0  0  0  0  0  0  0  0  0  0  0  0
    6.2986    2.0829    2.5062 H   0  0  0  0  0  0  0  0  0  0  0  0
    6.0452    0.4457    3.1880 H   0  0  0  0  0  0  0  0  0  0  0  0
    7.1306    0.6004    1.7946 H   0  0  0  0  0  0  0  0  0  0  0  0
    5.8561    4.2332   -1.4079 H   0  0  0  0  0  0  0  0  0  0  0  0
    3.9708    3.6194   -2.8339 H   0  0  0  0  0  0  0  0  0  0  0  0
    2.6058    1.6496   -2.3158 H   0  0  0  0  0  0  0  0  0  0  0  0
    3.5408   -3.7734    0.7225 H   0  0  0  0  0  0  0  0  0  0  0  0
    2.1336   -4.1106   -0.3094 H   0  0  0  0  0  0  0  0  0  0  0  0
    1.9398   -3.7435    1.4844 H   0  0  0  0  0  0  0  0  0  0  0  0
   -2.6368   -1.4799    1.0520 H   0  0  0  0  0  0  0  0  0  0  0  0
   -5.4551   -0.8848    2.5143 H   0  0  0  0  0  0  0  0  0  0  0  0
   -6.1392   -1.0328    0.8223 H   0  0  0  0  0  0  0  0  0  0  0  0
   -4.7738   -2.1039    1.3960 H   0  0  0  0  0  0  0  0  0  0  0  0
   -2.7073    4.7052    0.2115 H   0  0  0  0  0  0  0  0  0  0  0  0
   -3.6041    4.6992   -1.3958 H   0  0  0  0  0  0  0  0  0  0  0  0
   -4.3660    5.4371    0.0341 H   0  0  0  0  0  0  0  0  0  0  0  0
   -1.6640    2.5083   -0.1548 H   0  0  0  0  0  0  0  0  0  0  0  0
   -0.4764   -1.6433    1.4247 H   0  0  0  0  0  0  0  0  0  0  0  0
   -0.7791   -0.9254   -2.2023 H   0  0  0  0  0  0  0  0  0  0  0  0
   -1.8072   -2.5736   -3.7875 H   0  0  0  0  0  0  0  0  0  0  0  0
   -1.9752   -5.4601   -0.6988 H   0  0  0  0  0  0  0  0  0  0  0  0
   -0.9561   -3.8262    0.8724 H   0  0  0  0  0  0  0  0  0  0  0  0
  1  2  1  0
  2  3  1  0
  3  4  2  0
  4  5  1  0
  5  6  2  0
  6  7  1  0
  7  8  2  0
  8  9  1  0
  9 10  1  0
 10 11  2  0
 11 12  1  0
 11 13  1  0
 13 14  2  0
 14 15  1  0
 15 16  2  0
 15 17  1  0
 17 18  1  0
 18 19  1  0
 19 20  2  0
 20 21  1  0
 20 22  1  0
 22 23  2  0
 23 24  1  0
 24 25  2  0
 25 26  1  0
 25 27  1  0
 27 28  1  0
 17 29  1  0
 29 30  1  0
 30 31  2  0
 31 32  1  0
 32 33  2  0
 33 34  1  0
 33 35  1  0
 35 36  2  0
  8  3  1  0
 14  9  1  0
 28 18  2  0
 36 30  1  0
 29 13  1  0
 27 22  1  0
  1 37  1  0
  1 38  1  0
  1 39  1  0
  5 40  1  0
  6 41  1  0
  7 42  1  0
 12 43  1  0
 12 44  1  0
 12 45  1  0
 19 46  1  0
 21 47  1  0
 21 48  1  0
 21 49  1  0
 26 50  1  0
 26 51  1  0
 26 52  1  0
 28 53  1  0
 29 54  1  0
 31 55  1  0
 32 56  1  0
 35 57  1  0
 36 58  1  0
M  END
$$$$
