@<TRIPOS>MOLECULE
*****
 58 63 0 0 0
SMALL
GASTEIGER

@<TRIPOS>ATOM
      1 C           6.2019    1.0143    2.2397 C.3     1  UNL1        0.0805
      2 O           5.1443    0.7211    1.3878 O.3     1  UNL1       -0.4782
      3 C           4.8360    1.5011    0.2599 C.ar    1  UNL1        0.2408
      4 N           5.5491    2.5912   -0.0728 N.ar    1  UNL1       -0.2195
      5 C           5.2669    3.3479   -1.1488 C.ar    1  UNL1        0.0315
      6 C           4.2068    3.0275   -1.9757 C.ar    1  UNL1       -0.0413
      7 C           3.4521    1.9155   -1.6660 C.ar    1  UNL1       -0.0296
      8 C           3.7757    1.1689   -0.5553 C.ar    1  UNL1        0.1275
      9 N           2.9998    0.0185   -0.2296 N.ar    1  UNL1       -0.2219
     10 N           3.4413   -1.2025   -0.0381 N.ar    1  UNL1       -0.1704
     11 C           2.4580   -2.0449    0.2504 C.ar    1  UNL1        0.0664
     12 C           2.4656   -3.4971    0.5415 C.3     1  UNL1       -0.0202
     13 C           1.2861   -1.2656    0.2355 C.ar    1  UNL1        0.0309
     14 C           1.6436    0.0176   -0.0641 C.ar    1  UNL1        0.1353
     15 C           0.4691    0.8955   -0.0683 C.2     1  UNL1        0.2705
     16 O           0.5300    2.1238   -0.3194 O.2     1  UNL1       -0.2679
     17 N          -0.6123    0.0400    0.2563 N.am    1  UNL1       -0.2531
     18 C          -1.9644    0.4793    0.4181 C.ar    1  UNL1        0.0545
     19 C          -2.8879   -0.4597    0.8340 C.ar    1  UNL1       -0.0324
     20 C          -4.2019   -0.0908    0.9937 C.ar    1  UNL1       -0.0041
     21 C          -5.2258   -1.0898    1.4437 C.3     1  UNL1       -0.0361
     22 C          -4.5762    1.2126    0.7359 C.ar    1  UNL1        0.1641
     23 N          -5.7539    1.8603    0.7989 N.ar    1  UNL1       -0.1292
     24 N          -5.5919    3.1273    0.4470 N.ar    1  UNL1       -0.1340
     25 C          -4.2813    3.3275    0.1439 C.ar    1  UNL1        0.1347
     26 C          -3.6819    4.6129   -0.2969 C.3     1  UNL1       -0.0041
     27 N          -3.6818    2.1288    0.3317 N.ar    1  UNL1       -0.2846
     28 C          -2.3827    1.7698    0.1722 C.ar    1  UNL1        0.0344
     29 C          -0.1712   -1.3176    0.3945 C.3     1  UNL1        0.0854
     30 C          -0.7990   -2.2632   -0.5625 C.ar    1  UNL1       -0.0221
     31 C          -1.0443   -1.9277   -1.8730 C.ar    1  UNL1       -0.0551
     32 C          -1.6078   -2.8181   -2.7584 C.ar    1  UNL1       -0.0431
     33 C          -1.9347   -4.0804   -2.3181 C.ar    1  UNL1        0.0410
     34 CL         -2.6601   -5.2708   -3.4015 Cl      1  UNL1       -0.0835
     35 C          -1.7048   -4.4585   -1.0085 C.ar    1  UNL1       -0.0431
     36 C          -1.1430   -3.5379   -0.1677 C.ar    1  UNL1       -0.0551
     37 H           6.2986    2.0829    2.5062 H       1  UNL1        0.0660
     38 H           6.0452    0.4457    3.1880 H       1  UNL1        0.0660
     39 H           7.1306    0.6004    1.7946 H       1  UNL1        0.0660
     40 H           5.8561    4.2332   -1.4079 H       1  UNL1        0.0831
     41 H           3.9708    3.6194   -2.8339 H       1  UNL1        0.0633
     42 H           2.6058    1.6496   -2.3158 H       1  UNL1        0.0641
     43 H           3.5408   -3.7734    0.7225 H       1  UNL1        0.0293
     44 H           2.1336   -4.1106   -0.3094 H       1  UNL1        0.0293
     45 H           1.9398   -3.7435    1.4844 H       1  UNL1        0.0293
     46 H          -2.6368   -1.4799    1.0520 H       1  UNL1        0.0640
     47 H          -5.4551   -0.8848    2.5143 H       1  UNL1        0.0279
     48 H          -6.1392   -1.0328    0.8223 H       1  UNL1        0.0279
     49 H          -4.7738   -2.1039    1.3960 H       1  UNL1        0.0279
     50 H          -2.7073    4.7052    0.2115 H       1  UNL1        0.0308
     51 H          -3.6041    4.6992   -1.3958 H       1  UNL1        0.0308
     52 H          -4.3660    5.4371    0.0341 H       1  UNL1        0.0308
     53 H          -1.6640    2.5083   -0.1548 H       1  UNL1        0.0833
     54 H          -0.4764   -1.6433    1.4247 H       1  UNL1        0.0606
     55 H          -0.7791   -0.9254   -2.2023 H       1  UNL1        0.0621
     56 H          -1.8072   -2.5736   -3.7875 H       1  UNL1        0.0632
     57 H          -1.9752   -5.4601   -0.6988 H       1  UNL1        0.0632
     58 H          -0.9561   -3.8262    0.8724 H       1  UNL1        0.0621
@<TRIPOS>BOND
     1     1     2    1
     2     2     3    1
     3     3     4   ar
     4     4     5   ar
     5     5     6   ar
     6     6     7   ar
     7     7     8   ar
     8     8     9    1
     9     9    10   ar
    10    10    11   ar
    11    11    12    1
    12    11    13   ar
    13    13    14   ar
    14    14    15    1
    15    15    16    2
    16    15    17   am
    17    17    18    1
    18    18    19   ar
    19    19    20   ar
    20    20    21    1
    21    20    22   ar
    22    22    23   ar
    23    23    24   ar
    24    24    25   ar
    25    25    26    1
    26    25    27   ar
    27    27    28   ar
    28    17    29    1
    29    29    30    1
    30    30    31   ar
    31    31    32   ar
    32    32    33   ar
    33    33    34    1
    34    33    35   ar
    35    35    36   ar
    36     8     3   ar
    37    14     9   ar
    38    28    18   ar
    39    36    30   ar
    40    29    13    1
    41    27    22   ar
    42     1    37    1
    43     1    38    1
    44     1    39    1
    45     5    40    1
    46     6    41    1
    47     7    42    1
    48    12    43    1
    49    12    44    1
    50    12    45    1
    51    19    46    1
    52    21    47    1
    53    21    48    1
    54    21    49    1
    55    26    50    1
    56    26    51    1
    57    26    52    1
    58    28    53    1
    59    29    54    1
    60    31    55    1
    61    32    56    1
    62    35    57    1
    63    36    58    1
