@<TRIPOS>MOLECULE
*****
 58 60 0 0 0
SMALL
GASTEIGER

@<TRIPOS>ATOM
      1 C          -0.3445   -4.7779   -2.1686 C.1     0  UNK0       -0.1176
      2 C          -1.1712   -4.0076   -1.7873 C.1     0  UNK0       -0.0865
      3 C          -2.1920   -3.0843   -1.3092 C.3     0  UNK0        0.0739
      4 N          -1.7597   -1.7139   -1.2437 N.pl3   0  UNK0       -0.3145
      5 C          -2.8321   -0.6858   -1.2904 C.3     0  UNK0        0.0382
      6 C          -3.6612   -0.7741   -0.1163 C.ar    0  UNK0       -0.0293
      7 C          -3.1659   -0.7801    1.1697 C.ar    0  UNK0       -0.0550
      8 C          -3.9721   -0.7940    2.2744 C.ar    0  UNK0       -0.0351
      9 C          -5.3367   -0.8011    2.1171 C.ar    0  UNK0        0.0797
     10 N          -6.1408   -0.7704    3.2332 N.ar    0  UNK0       -0.2160
     11 C          -7.4268   -0.7418    3.0583 C.ar    0  UNK0        0.1935
     12 N          -8.2775   -0.5257    4.2865 N.pl3   0  UNK0       -0.3289
     13 N          -8.0650   -0.7504    1.9110 N.ar    0  UNK0       -0.2948
     14 C          -7.2775   -0.7797    0.7452 C.ar    0  UNK0        0.2604
     15 O          -7.8088   -0.7931   -0.3722 O.2     0  UNK0       -0.2671
     16 C          -5.8939   -0.7971    0.8649 C.ar    0  UNK0        0.0651
     17 C          -5.0594   -0.7830   -0.2607 C.ar    0  UNK0       -0.0427
     18 C          -0.4811   -1.2641   -0.9609 C.ar    0  UNK0        0.0307
     19 C           0.5560   -1.9964   -0.4454 C.ar    0  UNK0       -0.0399
     20 C           1.8284   -1.4271   -0.2002 C.ar    0  UNK0       -0.0479
     21 C           2.0895   -0.1291   -0.4636 C.ar    0  UNK0        0.0368
     22 C           3.3823    0.5495   -0.0942 C.2     0  UNK0        0.2447
     23 O           3.9945    0.0131    0.8241 O.2     0  UNK0       -0.2702
     24 N           3.7433    1.6625   -0.7787 N.am    1  GLU1       -0.2983
     25 CA          4.9433    2.4781   -0.5689 C.3     1  GLU1        0.1209
     26 CB          5.9568    2.1134   -1.5568 C.3     1  GLU1       -0.0140
     27 CG          7.2412    2.8055   -1.6588 C.3     1  GLU1        0.0470
     28 CD          8.1783    2.7756   -0.5547 C.2     1  GLU1        0.3048
     29 OE1         8.4648    1.6475   -0.0132 O.2     1  GLU1       -0.2510
     30 OE2         8.8215    3.8869   -0.0043 O.3     1  GLU1       -0.4806
     31 C           5.2337    2.5684    0.8511 C.2     1  GLU1        0.3253
     32 O           4.2533    2.2459    1.6609 O.2     1  GLU1       -0.2489
     33 OXT         6.3617    2.9318    1.5275 O.3     1  GLU1       -0.4793
     34 C           1.0959    0.6564   -0.9801 C.ar    0  UNK0       -0.0479
     35 C          -0.1560    0.0736   -1.2152 C.ar    0  UNK0       -0.0399
     36 H           0.4475   -5.5044   -2.5463 H       0  UNK0        0.1228
     37 H          -2.7910   -3.4604   -0.4930 H       0  UNK0        0.0600
     38 H          -2.9043   -3.0644   -2.2557 H       0  UNK0        0.0600
     39 H          -2.6114    0.1695   -1.8342 H       0  UNK0        0.0513
     40 H          -3.5328   -1.2754   -2.1065 H       0  UNK0        0.0513
     41 H          -2.0707   -0.7654    1.3284 H       0  UNK0        0.0621
     42 H          -3.5880   -0.7993    3.2978 H       0  UNK0        0.0639
     43 H          -7.8687   -0.2728    5.1723 H       0  UNK0        0.1451
     44 H          -9.2952   -0.6355    4.1395 H       0  UNK0        0.1451
     45 H          -9.0631   -0.7443    1.7703 H       0  UNK0        0.1716
     46 H          -5.5390   -0.7439   -1.2217 H       0  UNK0        0.0629
     47 H           0.3719   -3.0447   -0.1633 H       0  UNK0        0.0636
     48 H           2.6075   -2.0733    0.2137 H       0  UNK0        0.0626
     49 H           3.1204    2.0404   -1.6155 H       1  GLU1        0.1498
     50 HA          4.5887    3.5883   -0.7884 H       1  GLU1        0.0614
     51 HB1         5.4210    2.1722   -2.5819 H       1  GLU1        0.0294
     52 HB2         6.1395    0.9766   -1.4393 H       1  GLU1        0.0294
     53 HG1         7.0577    3.8601   -2.0021 H       1  GLU1        0.0378
     54 HG2         7.7462    2.3500   -2.5934 H       1  GLU1        0.0378
     55 HE2         9.8355    3.8350    0.1264 H       1  GLU1        0.2951
     56 HXT         6.4916    2.7609    2.5327 H       1  GLU1        0.2951
     57 H           1.2379    1.6967   -1.2335 H       0  UNK0        0.0626
     58 H          -0.9235    0.7024   -1.6581 H       0  UNK0        0.0636
@<TRIPOS>BOND
     1     1     2    3
     2     2     3    1
     3     3     4    1
     4     4     5    1
     5     5     6    1
     6     6     7   ar
     7     7     8   ar
     8     8     9   ar
     9     9    10   ar
    10    10    11   ar
    11    11    12    1
    12    11    13   ar
    13    13    14   ar
    14    14    15    2
    15    14    16   ar
    16    16    17   ar
    17     4    18    1
    18    18    19   ar
    19    19    20   ar
    20    20    21   ar
    21    21    22    1
    22    22    23    2
    23    22    24   am
    24    24    25    1
    25    25    26    1
    26    26    27    1
    27    27    28    1
    28    28    29    2
    29    28    30    1
    30    25    31    1
    31    31    32    2
    32    31    33    1
    33    21    34   ar
    34    34    35   ar
    35    17     6   ar
    36    35    18   ar
    37    16     9   ar
    38     1    36    1
    39     3    37    1
    40     3    38    1
    41     5    39    1
    42     5    40    1
    43     7    41    1
    44     8    42    1
    45    12    43    1
    46    12    44    1
    47    13    45    1
    48    17    46    1
    49    19    47    1
    50    20    48    1
    51    24    49    1
    52    25    50    1
    53    26    51    1
    54    26    52    1
    55    27    53    1
    56    27    54    1
    57    30    55    1
    58    33    56    1
    59    34    57    1
    60    35    58    1
