
     RDKit          3D

 58 60  0  0  0  0  0  0  0  0999 V2000
   -0.3445   -4.7779   -2.1686 C   0  0  0  0  0  0  0  0  0  0  0  0
   -1.1712   -4.0076   -1.7873 C   0  0  0  0  0  0  0  0  0  0  0  0
   -2.1920   -3.0843   -1.3092 C   0  0  0  0  0  0  0  0  0  0  0  0
   -1.7597   -1.7139   -1.2437 N   0  0  0  0  0  0  0  0  0  0  0  0
   -2.8321   -0.6858   -1.2904 C   0  0  0  0  0  0  0  0  0  0  0  0
   -3.6612   -0.7741   -0.1163 C   0  0  0  0  0  0  0  0  0  0  0  0
   -3.1659   -0.7801    1.1697 C   0  0  0  0  0  0  0  0  0  0  0  0
   -3.9721   -0.7940    2.2744 C   0  0  0  0  0  0  0  0  0  0  0  0
   -5.3367   -0.8011    2.1171 C   0  0  0  0  0  0  0  0  0  0  0  0
   -6.1408   -0.7704    3.2332 N   0  0  0  0  0  0  0  0  0  0  0  0
   -7.4268   -0.7418    3.0583 C   0  0  0  0  0  0  0  0  0  0  0  0
   -8.2775   -0.5257    4.2865 N   0  0  0  0  0  0  0  0  0  0  0  0
   -8.0650   -0.7504    1.9110 N   0  0  0  0  0  0  0  0  0  0  0  0
   -7.2775   -0.7797    0.7452 C   0  0  0  0  0  0  0  0  0  0  0  0
   -7.8088   -0.7931   -0.3722 O   0  0  0  0  0  0  0  0  0  0  0  0
   -5.8939   -0.7971    0.8649 C   0  0  0  0  0  0  0  0  0  0  0  0
   -5.0594   -0.7830   -0.2607 C   0  0  0  0  0  0  0  0  0  0  0  0
   -0.4811   -1.2641   -0.9609 C   0  0  0  0  0  0  0  0  0  0  0  0
    0.5560   -1.9964   -0.4454 C   0  0  0  0  0  0  0  0  0  0  0  0
    1.8284   -1.4271   -0.2002 C   0  0  0  0  0  0  0  0  0  0  0  0
    2.0895   -0.1291   -0.4636 C   0  0  0  0  0  0  0  0  0  0  0  0
    3.3823    0.5495   -0.0942 C   0  0  0  0  0  0  0  0  0  0  0  0
    3.9945    0.0131    0.8241 O   0  0  0  0  0  0  0  0  0  0  0  0
    3.7433    1.6625   -0.7787 N   0  0  0  0  0  0  0  0  0  0  0  0
    4.9433    2.4781   -0.5689 C   0  0  0  0  0  0  0  0  0  0  0  0
    5.9568    2.1134   -1.5568 C   0  0  0  0  0  0  0  0  0  0  0  0
    7.2412    2.8055   -1.6588 C   0  0  0  0  0  0  0  0  0  0  0  0
    8.1783    2.7756   -0.5547 C   0  0  0  0  0  0  0  0  0  0  0  0
    8.4648    1.6475   -0.0132 O   0  0  0  0  0  0  0  0  0  0  0  0
    8.8215    3.8869   -0.0043 O   0  0  0  0  0  0  0  0  0  0  0  0
    5.2337    2.5684    0.8511 C   0  0  0  0  0  0  0  0  0  0  0  0
    4.2533    2.2459    1.6609 O   0  0  0  0  0  0  0  0  0  0  0  0
    6.3617    2.9318    1.5275 O   0  0  0  0  0  0  0  0  0  0  0  0
    1.0959    0.6564   -0.9801 C   0  0  0  0  0  0  0  0  0  0  0  0
   -0.1560    0.0736   -1.2152 C   0  0  0  0  0  0  0  0  0  0  0  0
    0.4475   -5.5044   -2.5463 H   0  0  0  0  0  0  0  0  0  0  0  0
   -2.7910   -3.4604   -0.4930 H   0  0  0  0  0  0  0  0  0  0  0  0
   -2.9043   -3.0644   -2.2557 H   0  0  0  0  0  0  0  0  0  0  0  0
   -2.6114    0.1695   -1.8342 H   0  0  0  0  0  0  0  0  0  0  0  0
   -3.5328   -1.2754   -2.1065 H   0  0  0  0  0  0  0  0  0  0  0  0
   -2.0707   -0.7654    1.3284 H   0  0  0  0  0  0  0  0  0  0  0  0
   -3.5880   -0.7993    3.2978 H   0  0  0  0  0  0  0  0  0  0  0  0
   -7.8687   -0.2728    5.1723 H   0  0  0  0  0  0  0  0  0  0  0  0
   -9.2952   -0.6355    4.1395 H   0  0  0  0  0  0  0  0  0  0  0  0
   -9.0631   -0.7443    1.7703 H   0  0  0  0  0  0  0  0  0  0  0  0
   -5.5390   -0.7439   -1.2217 H   0  0  0  0  0  0  0  0  0  0  0  0
    0.3719   -3.0447   -0.1633 H   0  0  0  0  0  0  0  0  0  0  0  0
    2.6075   -2.0733    0.2137 H   0  0  0  0  0  0  0  0  0  0  0  0
    3.1204    2.0404   -1.6155 H   0  0  0  0  0  0  0  0  0  0  0  0
    4.5887    3.5883   -0.7884 H   0  0  0  0  0  0  0  0  0  0  0  0
    5.4210    2.1722   -2.5819 H   0  0  0  0  0  0  0  0  0  0  0  0
    6.1395    0.9766   -1.4393 H   0  0  0  0  0  0  0  0  0  0  0  0
    7.0577    3.8601   -2.0021 H   0  0  0  0  0  0  0  0  0  0  0  0
    7.7462    2.3500   -2.5934 H   0  0  0  0  0  0  0  0  0  0  0  0
    9.8355    3.8350    0.1264 H   0  0  0  0  0  0  0  0  0  0  0  0
    6.4916    2.7609    2.5327 H   0  0  0  0  0  0  0  0  0  0  0  0
    1.2379    1.6967   -1.2335 H   0  0  0  0  0  0  0  0  0  0  0  0
   -0.9235    0.7024   -1.6581 H   0  0  0  0  0  0  0  0  0  0  0  0
  1  2  3  0
  2  3  1  0
  3  4  1  0
  4  5  1  0
  5  6  1  0
  6  7  2  0
  7  8  1  0
  8  9  2  0
  9 10  1  0
 10 11  2  0
 11 12  1  0
 11 13  1  0
 13 14  1  0
 14 15  2  0
 14 16  1  0
 16 17  2  0
  4 18  1  0
 18 19  2  0
 19 20  1  0
 20 21  2  0
 21 22  1  0
 22 23  2  0
 22 24  1  0
 24 25  1  0
 25 26  1  0
 26 27  1  0
 27 28  1  0
 28 29  2  0
 28 30  1  0
 25 31  1  0
 31 32  2  0
 31 33  1  0
 21 34  1  0
 34 35  2  0
 17  6  1  0
 35 18  1  0
 16  9  1  0
  1 36  1  0
  3 37  1  0
  3 38  1  0
  5 39  1  0
  5 40  1  0
  7 41  1  0
  8 42  1  0
 12 43  1  0
 12 44  1  0
 13 45  1  0
 17 46  1  0
 19 47  1  0
 20 48  1  0
 24 49  1  0
 25 50  1  0
 26 51  1  0
 26 52  1  0
 27 53  1  0
 27 54  1  0
 30 55  1  0
 33 56  1  0
 34 57  1  0
 35 58  1  0
M  END
$$$$
