
     RDKit          3D

 33 34  0  0  0  0  0  0  0  0999 V2000
    1.8798    2.5736   -1.3334 O   0  0  0  0  0  1  0  0  0  0  0  0
    1.3457    1.2956   -1.3078 N   0  0  0  0  0  4  0  0  0  0  0  0
    1.3179    2.3517   -1.9330 O   0  0  0  0  0  0  0  0  0  0  0  0
    1.6057    0.2562   -0.3922 C   0  0  0  0  0  0  0  0  0  0  0  0
    0.6367   -0.6659   -0.1024 C   0  0  0  0  0  0  0  0  0  0  0  0
    1.0750   -1.6261    0.7826 C   0  0  0  0  0  0  0  0  0  0  0  0
    2.3442   -1.6412    1.3061 C   0  0  0  0  0  0  0  0  0  0  0  0
    3.2718   -0.6820    0.9725 C   0  0  0  0  0  0  0  0  0  0  0  0
    2.8940    0.3098    0.0886 C   0  0  0  0  0  0  0  0  0  0  0  0
    4.6239   -0.7441    1.5577 C   0  0  0  0  0  0  0  0  0  0  0  0
    4.6517   -0.5819    2.9297 F   0  0  0  0  0  0  0  0  0  0  0  0
    5.4270    0.2186    1.0257 F   0  0  0  0  0  0  0  0  0  0  0  0
    5.2161   -1.9901    1.3255 F   0  0  0  0  0  0  0  0  0  0  0  0
   -0.7184   -0.6678   -0.6127 C   0  0  0  0  0  0  0  0  0  0  0  0
   -1.4093   -1.6806   -0.2436 O   0  0  0  0  0  0  0  0  0  0  0  0
   -1.4182    0.2845   -1.4682 C   0  0  0  0  0  0  0  0  0  0  0  0
   -1.6739    1.5514   -0.7235 C   0  0  0  0  0  0  0  0  0  0  0  0
   -1.5206    2.7590   -0.9816 O   0  0  0  0  0  0  0  0  0  0  0  0
   -2.2317    1.1917    0.5990 C   0  0  0  0  0  0  0  0  0  0  0  0
   -3.4099    0.2886    0.5593 C   0  0  0  0  0  0  0  0  0  0  0  0
   -3.7335   -0.3983   -0.7041 C   0  0  0  0  0  0  0  0  0  0  0  0
   -2.7744   -0.2164   -1.8181 C   0  0  0  0  0  0  0  0  0  0  0  0
   -3.1495   -0.4844   -2.9414 O   0  0  0  0  0  0  0  0  0  0  0  0
    0.4197   -2.4225    1.1070 H   0  0  0  0  0  0  0  0  0  0  0  0
    2.6451   -2.4109    1.9956 H   0  0  0  0  0  0  0  0  0  0  0  0
    3.6231    1.0437   -0.1584 H   0  0  0  0  0  0  0  0  0  0  0  0
   -0.9086    0.4752   -2.4391 H   0  0  0  0  0  0  0  0  0  0  0  0
   -1.3728    0.7343    1.1631 H   0  0  0  0  0  0  0  0  0  0  0  0
   -2.4712    2.1246    1.1402 H   0  0  0  0  0  0  0  0  0  0  0  0
   -4.3311    0.8441    0.9109 H   0  0  0  0  0  0  0  0  0  0  0  0
   -3.2588   -0.4892    1.3666 H   0  0  0  0  0  0  0  0  0  0  0  0
   -4.7427   -0.0877   -1.0997 H   0  0  0  0  0  0  0  0  0  0  0  0
   -3.8529   -1.5133   -0.5713 H   0  0  0  0  0  0  0  0  0  0  0  0
  1  2  1  0
  2  3  2  0
  2  4  1  0
  4  5  2  0
  5  6  1  0
  6  7  2  0
  7  8  1  0
  8  9  2  0
  8 10  1  0
 10 11  1  0
 10 12  1  0
 10 13  1  0
  5 14  1  0
 14 15  2  0
 14 16  1  0
 16 17  1  0
 17 18  2  0
 17 19  1  0
 19 20  1  0
 20 21  1  0
 21 22  1  0
 22 23  2  0
  9  4  1  0
 22 16  1  0
  6 24  1  0
  7 25  1  0
  9 26  1  0
 16 27  1  0
 19 28  1  0
 19 29  1  0
 20 30  1  0
 20 31  1  0
 21 32  1  0
 21 33  1  0
M  CHG  2   1  -1   2   1
M  END
$$$$
