@<TRIPOS>MOLECULE
*****
 33 34 0 0 0
SMALL
GASTEIGER

@<TRIPOS>ATOM
      1 O           1.8798    2.5736   -1.3334 O.co2   1  UNL1       -0.5760
      2 N           1.3457    1.2956   -1.3078 N.pl3   1  UNL1        0.0803
      3 O           1.3179    2.3517   -1.9330 O.2     1  UNL1        0.0415
      4 C           1.6057    0.2562   -0.3922 C.ar    1  UNL1        0.2841
      5 C           0.6367   -0.6659   -0.1024 C.ar    1  UNL1        0.0955
      6 C           1.0750   -1.6261    0.7826 C.ar    1  UNL1       -0.0442
      7 C           2.3442   -1.6412    1.3061 C.ar    1  UNL1       -0.0490
      8 C           3.2718   -0.6820    0.9725 C.ar    1  UNL1        0.0612
      9 C           2.8940    0.3098    0.0886 C.ar    1  UNL1        0.0279
     10 C           4.6239   -0.7441    1.5577 C.3     1  UNL1        0.4176
     11 F           4.6517   -0.5819    2.9297 F       1  UNL1       -0.1659
     12 F           5.4270    0.2186    1.0257 F       1  UNL1       -0.1659
     13 F           5.2161   -1.9901    1.3255 F       1  UNL1       -0.1659
     14 C          -0.7184   -0.6678   -0.6127 C.2     1  UNL1        0.1870
     15 O          -1.4093   -1.6806   -0.2436 O.2     1  UNL1       -0.2906
     16 C          -1.4182    0.2845   -1.4682 C.3     1  UNL1        0.1383
     17 C          -1.6739    1.5514   -0.7235 C.2     1  UNL1        0.1510
     18 O          -1.5206    2.7590   -0.9816 O.2     1  UNL1       -0.2962
     19 C          -2.2317    1.1917    0.5990 C.3     1  UNL1        0.0074
     20 C          -3.4099    0.2886    0.5593 C.3     1  UNL1       -0.0396
     21 C          -3.7335   -0.3983   -0.7041 C.3     1  UNL1        0.0074
     22 C          -2.7744   -0.2164   -1.8181 C.2     1  UNL1        0.1510
     23 O          -3.1495   -0.4844   -2.9414 O.2     1  UNL1       -0.2962
     24 H           0.4197   -2.4225    1.1070 H       1  UNL1        0.0627
     25 H           2.6451   -2.4109    1.9956 H       1  UNL1        0.0623
     26 H           3.6231    1.0437   -0.1584 H       1  UNL1        0.0691
     27 H          -0.9086    0.4752   -2.4391 H       1  UNL1        0.0537
     28 H          -1.3728    0.7343    1.1631 H       1  UNL1        0.0342
     29 H          -2.4712    2.1246    1.1402 H       1  UNL1        0.0342
     30 H          -4.3311    0.8441    0.9109 H       1  UNL1        0.0273
     31 H          -3.2588   -0.4892    1.3666 H       1  UNL1        0.0273
     32 H          -4.7427   -0.0877   -1.0997 H       1  UNL1        0.0342
     33 H          -3.8529   -1.5133   -0.5713 H       1  UNL1        0.0342
@<TRIPOS>UNITY_ATOM_ATTR
1 1
charge -1
2 1
charge 1
@<TRIPOS>BOND
     1     1     2    1
     2     2     3    2
     3     2     4    1
     4     4     5   ar
     5     5     6   ar
     6     6     7   ar
     7     7     8   ar
     8     8     9   ar
     9     8    10    1
    10    10    11    1
    11    10    12    1
    12    10    13    1
    13     5    14    1
    14    14    15    2
    15    14    16    1
    16    16    17    1
    17    17    18    2
    18    17    19    1
    19    19    20    1
    20    20    21    1
    21    21    22    1
    22    22    23    2
    23     9     4   ar
    24    22    16    1
    25     6    24    1
    26     7    25    1
    27     9    26    1
    28    16    27    1
    29    19    28    1
    30    19    29    1
    31    20    30    1
    32    20    31    1
    33    21    32    1
    34    21    33    1
