@<TRIPOS>MOLECULE
*****
 46 48 0 0 0
SMALL
GASTEIGER

@<TRIPOS>ATOM
      1 C          -1.3507   -1.8436    1.2559 C.3     1  UNL1       -0.0523
      2 C          -2.4702   -1.3449    0.3848 C.3     1  UNL1       -0.0036
      3 N          -2.1923   -0.1215   -0.2004 N.3     1  UNL1       -0.2987
      4 C          -3.4592    0.4343   -0.7822 C.3     1  UNL1       -0.0036
      5 C          -4.3866    0.8292    0.3515 C.3     1  UNL1       -0.0523
      6 C          -1.1656    0.1416   -1.1256 C.3     1  UNL1        0.0236
      7 C          -1.6737   -0.7976   -2.2930 C.3     1  UNL1       -0.0480
      8 C           0.2056   -0.1104   -1.0810 C.3     1  UNL1        0.0327
      9 N           1.3001    0.2290   -0.2480 N.pl3   1  UNL1       -0.2968
     10 C           1.6892    1.5621    0.0504 C.ar    1  UNL1        0.0479
     11 C           0.9873    2.6206   -0.5519 C.ar    1  UNL1       -0.0393
     12 C           1.2702    3.9357   -0.3822 C.ar    1  UNL1       -0.0599
     13 C           2.3271    4.3178    0.4405 C.ar    1  UNL1       -0.0606
     14 C           3.0282    3.2988    1.0387 C.ar    1  UNL1       -0.0462
     15 C           2.6958    2.0069    0.8301 C.ar    1  UNL1        0.0341
     16 S           3.6833    0.8326    1.6703 S.3     1  UNL1       -0.0857
     17 C           3.1100   -0.7647    1.1509 C.ar    1  UNL1        0.0341
     18 C           3.8406   -1.7870    1.6773 C.ar    1  UNL1       -0.0462
     19 C           3.4834   -3.0935    1.3549 C.ar    1  UNL1       -0.0606
     20 C           2.3976   -3.2929    0.5108 C.ar    1  UNL1       -0.0599
     21 C           1.7657   -2.1687    0.0646 C.ar    1  UNL1       -0.0393
     22 C           2.0482   -0.8438    0.3293 C.ar    1  UNL1        0.0479
     23 H          -0.8835   -2.7721    0.8998 H       1  UNL1        0.0242
     24 H          -1.7151   -2.0253    2.3179 H       1  UNL1        0.0242
     25 H          -0.5574   -1.0839    1.3925 H       1  UNL1        0.0242
     26 H          -2.8620   -2.1466   -0.2862 H       1  UNL1        0.0424
     27 H          -3.3504   -1.1733    1.0859 H       1  UNL1        0.0424
     28 H          -3.2095    1.2805   -1.4172 H       1  UNL1        0.0424
     29 H          -3.9738   -0.4152   -1.2880 H       1  UNL1        0.0424
     30 H          -4.9936   -0.0167    0.7051 H       1  UNL1        0.0242
     31 H          -5.0844    1.5999   -0.0386 H       1  UNL1        0.0242
     32 H          -3.8495    1.2264    1.2357 H       1  UNL1        0.0242
     33 H          -1.5028    1.1159   -1.6674 H       1  UNL1        0.0475
     34 H          -0.9063   -0.7027   -3.1025 H       1  UNL1        0.0245
     35 H          -2.6120   -0.4637   -2.6962 H       1  UNL1        0.0245
     36 H          -1.7431   -1.8119   -1.9193 H       1  UNL1        0.0245
     37 H           0.5574    0.5768   -1.9876 H       1  UNL1        0.0483
     38 H           0.4269   -1.0552   -1.6756 H       1  UNL1        0.0483
     39 H           0.1610    2.4784   -1.2184 H       1  UNL1        0.0636
     40 H           0.7304    4.7633   -0.8433 H       1  UNL1        0.0618
     41 H           2.5644    5.3562    0.5852 H       1  UNL1        0.0618
     42 H           3.8521    3.6263    1.6753 H       1  UNL1        0.0629
     43 H           4.6921   -1.6913    2.3392 H       1  UNL1        0.0629
     44 H           4.0382   -3.9294    1.7530 H       1  UNL1        0.0618
     45 H           2.1581   -4.3059    0.2905 H       1  UNL1        0.0618
     46 H           0.9291   -2.4703   -0.5855 H       1  UNL1        0.0636
@<TRIPOS>BOND
     1     1     2    1
     2     2     3    1
     3     3     4    1
     4     4     5    1
     5     3     6    1
     6     6     7    1
     7     6     8    1
     8     8     9    1
     9     9    10    1
    10    10    11   ar
    11    11    12   ar
    12    12    13   ar
    13    13    14   ar
    14    14    15   ar
    15    15    16    1
    16    16    17    1
    17    17    18   ar
    18    18    19   ar
    19    19    20   ar
    20    20    21   ar
    21    21    22   ar
    22    22     9    1
    23    15    10   ar
    24    22    17   ar
    25     1    23    1
    26     1    24    1
    27     1    25    1
    28     2    26    1
    29     2    27    1
    30     4    28    1
    31     4    29    1
    32     5    30    1
    33     5    31    1
    34     5    32    1
    35     6    33    1
    36     7    34    1
    37     7    35    1
    38     7    36    1
    39     8    37    1
    40     8    38    1
    41    11    39    1
    42    12    40    1
    43    13    41    1
    44    14    42    1
    45    18    43    1
    46    19    44    1
    47    20    45    1
    48    21    46    1
