@<TRIPOS>MOLECULE
*****
 62 66 0 0 0
SMALL
GASTEIGER

@<TRIPOS>ATOM
      1 C          -5.1262    2.2171   -0.9712 C.3     1  UNL1       -0.0274
      2 C          -4.8949    0.8027   -0.4181 C.3     1  UNL1        0.1037
      3 O          -3.6154    0.5543   -0.3121 O.3     1  UNL1       -0.4725
      4 C          -2.6059   -0.2578   -0.5354 C.ar    1  UNL1        0.2265
      5 N          -1.3223    0.1115   -0.1913 N.ar    1  UNL1       -0.2122
      6 C          -0.2421   -0.6246   -0.3701 C.ar    1  UNL1        0.0770
      7 C           1.1026   -0.1724    0.0108 C.ar    1  UNL1        0.0025
      8 C           1.1980    1.0986    0.5810 C.ar    1  UNL1       -0.0519
      9 C           2.3906    1.6271    0.9748 C.ar    1  UNL1       -0.0519
     10 C           3.5530    0.8807    0.8052 C.ar    1  UNL1        0.0006
     11 C           4.8746    1.1460    1.0999 C.ar    1  UNL1       -0.0240
     12 C           5.5673    0.0300    0.7039 C.ar    1  UNL1        0.1053
     13 C           7.0038   -0.1257    0.8274 C.2     1  UNL1        0.2626
     14 O           7.4612   -1.0428    1.5368 O.2     1  UNL1       -0.2684
     15 N           7.8646    0.7580    0.1467 N.am    1  UNL1       -0.3024
     16 C           7.3032    1.8113   -0.6671 C.3     1  UNL1        0.0032
     17 C           9.3078    0.6669    0.2186 C.3     1  UNL1        0.0032
     18 N           4.7174   -0.8780    0.1913 N.ar    1  UNL1       -0.3393
     19 C           5.0063   -2.1906   -0.3427 C.3     1  UNL1        0.0126
     20 C           3.4536   -0.3711    0.2428 C.ar    1  UNL1        0.0500
     21 C           2.2262   -0.8978   -0.1547 C.ar    1  UNL1       -0.0284
     22 C          -0.3988   -1.8568   -0.9427 C.ar    1  UNL1       -0.0077
     23 C          -1.6426   -2.3295   -1.3268 C.ar    1  UNL1        0.0999
     24 N          -2.0869   -3.4606   -1.8854 N.ar    1  UNL1       -0.1712
     25 N          -3.3909   -3.4000   -2.0336 N.ar    1  UNL1       -0.2732
     26 C          -4.2659   -4.4230   -2.5997 C.3     1  UNL1        0.0302
     27 C          -3.8656   -2.2077   -1.5715 C.ar    1  UNL1        0.0380
     28 C          -2.7503   -1.5193   -1.1188 C.ar    1  UNL1        0.0812
     29 C          -5.5899    0.6768    0.9444 C.3     1  UNL1        0.0196
     30 C          -5.1042    1.6259    1.9668 C.3     1  UNL1        0.0182
     31 N          -5.8637    2.8183    1.7539 N.am    1  UNL1       -0.3149
     32 C          -7.0227    2.5212    0.9908 C.2     1  UNL1        0.2135
     33 O          -7.9201    3.3110    0.5686 O.2     1  UNL1       -0.2758
     34 C          -7.0278    1.0624    0.7462 C.3     1  UNL1        0.0315
     35 H          -4.7389    3.0013   -0.3237 H       1  UNL1        0.0265
     36 H          -6.1688    2.3568   -1.3151 H       1  UNL1        0.0265
     37 H          -4.5091    2.2551   -1.9150 H       1  UNL1        0.0265
     38 H          -5.4730    0.1575   -1.1301 H       1  UNL1        0.0734
     39 H           0.2782    1.6830    0.7125 H       1  UNL1        0.0624
     40 H           2.4752    2.6232    1.4225 H       1  UNL1        0.0624
     41 H           5.2538    2.0525    1.5491 H       1  UNL1        0.0646
     42 H           6.3123    1.4726   -1.0557 H       1  UNL1        0.0428
     43 H           8.0008    1.9975   -1.5252 H       1  UNL1        0.0428
     44 H           7.2006    2.7309   -0.0408 H       1  UNL1        0.0428
     45 H           9.6317   -0.3855    0.3597 H       1  UNL1        0.0428
     46 H           9.7881    1.0969   -0.6764 H       1  UNL1        0.0428
     47 H           9.6353    1.2620    1.0986 H       1  UNL1        0.0428
     48 H           4.7638   -2.2388   -1.4344 H       1  UNL1        0.0456
     49 H           4.3714   -2.9532    0.1534 H       1  UNL1        0.0456
     50 H           6.0801   -2.4347   -0.2125 H       1  UNL1        0.0456
     51 H           2.1987   -1.8719   -0.5855 H       1  UNL1        0.0645
     52 H           0.4264   -2.5234   -1.1255 H       1  UNL1        0.0661
     53 H          -5.2465   -4.0204   -2.8637 H       1  UNL1        0.0473
     54 H          -3.8036   -4.8282   -3.5120 H       1  UNL1        0.0473
     55 H          -4.3847   -5.2304   -1.8370 H       1  UNL1        0.0473
     56 H          -4.8973   -1.9047   -1.5703 H       1  UNL1        0.0834
     57 H          -5.5190   -0.3918    1.2391 H       1  UNL1        0.0356
     58 H          -4.0092    1.7902    1.9654 H       1  UNL1        0.0466
     59 H          -5.3440    1.1716    2.9738 H       1  UNL1        0.0466
     60 H          -5.5857    3.7725    2.1198 H       1  UNL1        0.1487
     61 H          -7.4093    0.8004   -0.2600 H       1  UNL1        0.0363
     62 H          -7.6213    0.5968    1.5587 H       1  UNL1        0.0363
@<TRIPOS>BOND
     1     1     2    1
     2     2     3    1
     3     3     4    1
     4     4     5   ar
     5     5     6   ar
     6     6     7    1
     7     7     8   ar
     8     8     9   ar
     9     9    10   ar
    10    10    11   ar
    11    11    12   ar
    12    12    13    1
    13    13    14    2
    14    13    15   am
    15    15    16    1
    16    15    17    1
    17    12    18   ar
    18    18    19    1
    19    18    20   ar
    20    20    21   ar
    21     6    22   ar
    22    22    23   ar
    23    23    24   ar
    24    24    25   ar
    25    25    26    1
    26    25    27   ar
    27    27    28   ar
    28     2    29    1
    29    29    30    1
    30    30    31    1
    31    31    32   am
    32    32    33    2
    33    32    34    1
    34    28     4   ar
    35    34    29    1
    36    21     7   ar
    37    28    23   ar
    38    20    10   ar
    39     1    35    1
    40     1    36    1
    41     1    37    1
    42     2    38    1
    43     8    39    1
    44     9    40    1
    45    11    41    1
    46    16    42    1
    47    16    43    1
    48    16    44    1
    49    17    45    1
    50    17    46    1
    51    17    47    1
    52    19    48    1
    53    19    49    1
    54    19    50    1
    55    21    51    1
    56    22    52    1
    57    26    53    1
    58    26    54    1
    59    26    55    1
    60    27    56    1
    61    29    57    1
    62    30    58    1
    63    30    59    1
    64    31    60    1
    65    34    61    1
    66    34    62    1
