
     RDKit          3D

 62 66  0  0  0  0  0  0  0  0999 V2000
   -5.1262    2.2171   -0.9712 C   0  0  0  0  0  0  0  0  0  0  0  0
   -4.8949    0.8027   -0.4181 C   0  0  1  0  0  0  0  0  0  0  0  0
   -3.6154    0.5543   -0.3121 O   0  0  0  0  0  0  0  0  0  0  0  0
   -2.6059   -0.2578   -0.5354 C   0  0  0  0  0  0  0  0  0  0  0  0
   -1.3223    0.1115   -0.1913 N   0  0  0  0  0  0  0  0  0  0  0  0
   -0.2421   -0.6246   -0.3701 C   0  0  0  0  0  0  0  0  0  0  0  0
    1.1026   -0.1724    0.0108 C   0  0  0  0  0  0  0  0  0  0  0  0
    1.1980    1.0986    0.5810 C   0  0  0  0  0  0  0  0  0  0  0  0
    2.3906    1.6271    0.9748 C   0  0  0  0  0  0  0  0  0  0  0  0
    3.5530    0.8807    0.8052 C   0  0  0  0  0  0  0  0  0  0  0  0
    4.8746    1.1460    1.0999 C   0  0  0  0  0  0  0  0  0  0  0  0
    5.5673    0.0300    0.7039 C   0  0  0  0  0  0  0  0  0  0  0  0
    7.0038   -0.1257    0.8274 C   0  0  0  0  0  0  0  0  0  0  0  0
    7.4612   -1.0428    1.5368 O   0  0  0  0  0  0  0  0  0  0  0  0
    7.8646    0.7580    0.1467 N   0  0  0  0  0  0  0  0  0  0  0  0
    7.3032    1.8113   -0.6671 C   0  0  0  0  0  0  0  0  0  0  0  0
    9.3078    0.6669    0.2186 C   0  0  0  0  0  0  0  0  0  0  0  0
    4.7174   -0.8780    0.1913 N   0  0  0  0  0  0  0  0  0  0  0  0
    5.0063   -2.1906   -0.3427 C   0  0  0  0  0  0  0  0  0  0  0  0
    3.4536   -0.3711    0.2428 C   0  0  0  0  0  0  0  0  0  0  0  0
    2.2262   -0.8978   -0.1547 C   0  0  0  0  0  0  0  0  0  0  0  0
   -0.3988   -1.8568   -0.9427 C   0  0  0  0  0  0  0  0  0  0  0  0
   -1.6426   -2.3295   -1.3268 C   0  0  0  0  0  0  0  0  0  0  0  0
   -2.0869   -3.4606   -1.8854 N   0  0  0  0  0  0  0  0  0  0  0  0
   -3.3909   -3.4000   -2.0336 N   0  0  0  0  0  0  0  0  0  0  0  0
   -4.2659   -4.4230   -2.5997 C   0  0  0  0  0  0  0  0  0  0  0  0
   -3.8656   -2.2077   -1.5715 C   0  0  0  0  0  0  0  0  0  0  0  0
   -2.7503   -1.5193   -1.1188 C   0  0  0  0  0  0  0  0  0  0  0  0
   -5.5899    0.6768    0.9444 C   0  0  1  0  0  0  0  0  0  0  0  0
   -5.1042    1.6259    1.9668 C   0  0  0  0  0  0  0  0  0  0  0  0
   -5.8637    2.8183    1.7539 N   0  0  0  0  0  0  0  0  0  0  0  0
   -7.0227    2.5212    0.9908 C   0  0  0  0  0  0  0  0  0  0  0  0
   -7.9201    3.3110    0.5686 O   0  0  0  0  0  0  0  0  0  0  0  0
   -7.0278    1.0624    0.7462 C   0  0  0  0  0  0  0  0  0  0  0  0
   -4.7389    3.0013   -0.3237 H   0  0  0  0  0  0  0  0  0  0  0  0
   -6.1688    2.3568   -1.3151 H   0  0  0  0  0  0  0  0  0  0  0  0
   -4.5091    2.2551   -1.9150 H   0  0  0  0  0  0  0  0  0  0  0  0
   -5.4730    0.1575   -1.1301 H   0  0  0  0  0  0  0  0  0  0  0  0
    0.2782    1.6830    0.7125 H   0  0  0  0  0  0  0  0  0  0  0  0
    2.4752    2.6232    1.4225 H   0  0  0  0  0  0  0  0  0  0  0  0
    5.2538    2.0525    1.5491 H   0  0  0  0  0  0  0  0  0  0  0  0
    6.3123    1.4726   -1.0557 H   0  0  0  0  0  0  0  0  0  0  0  0
    8.0008    1.9975   -1.5252 H   0  0  0  0  0  0  0  0  0  0  0  0
    7.2006    2.7309   -0.0408 H   0  0  0  0  0  0  0  0  0  0  0  0
    9.6317   -0.3855    0.3597 H   0  0  0  0  0  0  0  0  0  0  0  0
    9.7881    1.0969   -0.6764 H   0  0  0  0  0  0  0  0  0  0  0  0
    9.6353    1.2620    1.0986 H   0  0  0  0  0  0  0  0  0  0  0  0
    4.7638   -2.2388   -1.4344 H   0  0  0  0  0  0  0  0  0  0  0  0
    4.3714   -2.9532    0.1534 H   0  0  0  0  0  0  0  0  0  0  0  0
    6.0801   -2.4347   -0.2125 H   0  0  0  0  0  0  0  0  0  0  0  0
    2.1987   -1.8719   -0.5855 H   0  0  0  0  0  0  0  0  0  0  0  0
    0.4264   -2.5234   -1.1255 H   0  0  0  0  0  0  0  0  0  0  0  0
   -5.2465   -4.0204   -2.8637 H   0  0  0  0  0  0  0  0  0  0  0  0
   -3.8036   -4.8282   -3.5120 H   0  0  0  0  0  0  0  0  0  0  0  0
   -4.3847   -5.2304   -1.8370 H   0  0  0  0  0  0  0  0  0  0  0  0
   -4.8973   -1.9047   -1.5703 H   0  0  0  0  0  0  0  0  0  0  0  0
   -5.5190   -0.3918    1.2391 H   0  0  0  0  0  0  0  0  0  0  0  0
   -4.0092    1.7902    1.9654 H   0  0  0  0  0  0  0  0  0  0  0  0
   -5.3440    1.1716    2.9738 H   0  0  0  0  0  0  0  0  0  0  0  0
   -5.5857    3.7725    2.1198 H   0  0  0  0  0  0  0  0  0  0  0  0
   -7.4093    0.8004   -0.2600 H   0  0  0  0  0  0  0  0  0  0  0  0
   -7.6213    0.5968    1.5587 H   0  0  0  0  0  0  0  0  0  0  0  0
  1  2  1  0
  2  3  1  0
  3  4  1  0
  4  5  2  0
  5  6  1  0
  6  7  1  0
  7  8  2  0
  8  9  1  0
  9 10  2  0
 10 11  1  0
 11 12  2  0
 12 13  1  0
 13 14  2  0
 13 15  1  0
 15 16  1  0
 15 17  1  0
 12 18  1  0
 18 19  1  0
 18 20  1  0
 20 21  2  0
  6 22  2  0
 22 23  1  0
 23 24  2  0
 24 25  1  0
 25 26  1  0
 25 27  1  0
 27 28  2  0
  2 29  1  0
 29 30  1  0
 30 31  1  0
 31 32  1  0
 32 33  2  0
 32 34  1  0
 28  4  1  0
 34 29  1  0
 21  7  1  0
 28 23  1  0
 20 10  1  0
  1 35  1  0
  1 36  1  0
  1 37  1  0
  2 38  1  6
  8 39  1  0
  9 40  1  0
 11 41  1  0
 16 42  1  0
 16 43  1  0
 16 44  1  0
 17 45  1  0
 17 46  1  0
 17 47  1  0
 19 48  1  0
 19 49  1  0
 19 50  1  0
 21 51  1  0
 22 52  1  0
 26 53  1  0
 26 54  1  0
 26 55  1  0
 27 56  1  0
 29 57  1  1
 30 58  1  0
 30 59  1  0
 31 60  1  0
 34 61  1  0
 34 62  1  0
M  END
$$$$
