@<TRIPOS>MOLECULE
*****
 51 55 0 0 0
SMALL
GASTEIGER

@<TRIPOS>ATOM
      1 C          -7.8283   -1.0120   -0.5473 C.3     1  UNL1       -0.0223
      2 C          -6.8840    0.0680   -0.1716 C.ar    1  UNL1        0.0390
      3 C          -7.2828    1.3891   -0.3075 C.ar    1  UNL1       -0.0406
      4 C          -6.4309    2.4210    0.0315 C.ar    1  UNL1       -0.0580
      5 C          -5.1821    2.1161    0.5058 C.ar    1  UNL1       -0.0326
      6 C          -4.8015    0.7955    0.6343 C.ar    1  UNL1        0.1083
      7 C          -3.4558    0.4969    1.1439 C.ar    1  UNL1        0.1827
      8 N          -3.0823    0.3857    2.4226 N.ar    1  UNL1       -0.1275
      9 N          -1.7717    0.1047    2.4654 N.ar    1  UNL1       -0.1320
     10 C          -1.3004    0.0352    1.2123 C.ar    1  UNL1        0.1542
     11 N          -2.3418    0.2772    0.4261 N.ar    1  UNL1       -0.3067
     12 C          -2.1167    0.2594   -1.0001 C.3     1  UNL1        0.0423
     13 C          -1.2392   -0.9766   -1.2451 C.3     1  UNL1        0.0338
     14 N           0.0649   -0.7076   -0.6320 N.am    1  UNL1       -0.2860
     15 C           1.1833   -0.9294   -1.4491 C.2     1  UNL1        0.2472
     16 O           1.0600   -1.3450   -2.6548 O.2     1  UNL1       -0.2700
     17 C           2.5577   -0.7194   -1.0340 C.ar    1  UNL1        0.0370
     18 C           3.4676   -1.7772   -0.9886 C.ar    1  UNL1       -0.0490
     19 C           4.7803   -1.5742   -0.6341 C.ar    1  UNL1       -0.0528
     20 C           5.2306   -0.3088   -0.3108 C.ar    1  UNL1       -0.0113
     21 C           6.5995   -0.0551    0.0338 C.ar    1  UNL1        0.0193
     22 C           7.2281    1.1667    0.3967 C.ar    1  UNL1       -0.0469
     23 C           8.5288    1.1112    0.6592 C.ar    1  UNL1       -0.0541
     24 C           9.2307   -0.0380    0.5892 C.ar    1  UNL1       -0.0237
     25 S           7.8915   -1.1920    0.0903 S.2     1  UNL1       -0.0967
     26 C           4.3230    0.7004   -0.3612 C.ar    1  UNL1       -0.0528
     27 C           2.9835    0.5417   -0.7163 C.ar    1  UNL1       -0.0490
     28 C           0.0888   -0.2501    0.7242 C.3     1  UNL1        0.0834
     29 C           0.6782   -1.2668    1.6929 C.3     1  UNL1       -0.0393
     30 N          -5.6503   -0.2017    0.2969 N.ar    1  UNL1       -0.2488
     31 H          -8.8482   -0.6061   -0.5177 H       1  UNL1        0.0292
     32 H          -7.7561   -1.8822    0.1487 H       1  UNL1        0.0292
     33 H          -7.5743   -1.2987   -1.6012 H       1  UNL1        0.0292
     34 H          -8.2828    1.6132   -0.6873 H       1  UNL1        0.0635
     35 H          -6.7316    3.4728   -0.0713 H       1  UNL1        0.0619
     36 H          -4.4689    2.8936    0.7873 H       1  UNL1        0.0640
     37 H          -1.4874    1.1449   -1.2688 H       1  UNL1        0.0508
     38 H          -3.0328    0.2016   -1.5792 H       1  UNL1        0.0508
     39 H          -1.6893   -1.8722   -0.7919 H       1  UNL1        0.0482
     40 H          -1.1779   -1.0973   -2.3352 H       1  UNL1        0.0482
     41 H           3.1211   -2.7745   -1.2412 H       1  UNL1        0.0625
     42 H           5.4728   -2.4247   -0.6080 H       1  UNL1        0.0624
     43 H           6.5850    2.0992    0.4378 H       1  UNL1        0.0629
     44 H           9.0902    2.0523    0.9556 H       1  UNL1        0.0623
     45 H          10.2176   -0.3281    0.7400 H       1  UNL1        0.0693
     46 H           4.6710    1.7159   -0.1038 H       1  UNL1        0.0624
     47 H           2.3269    1.4168   -0.7308 H       1  UNL1        0.0625
     48 H           0.6621    0.7020    0.8132 H       1  UNL1        0.0579
     49 H          -0.1349   -1.7866    2.2732 H       1  UNL1        0.0252
     50 H           1.2488   -0.7038    2.4814 H       1  UNL1        0.0252
     51 H           1.2604   -2.0531    1.2001 H       1  UNL1        0.0252
@<TRIPOS>BOND
     1     1     2    1
     2     2     3   ar
     3     3     4   ar
     4     4     5   ar
     5     5     6   ar
     6     6     7    1
     7     7     8   ar
     8     8     9   ar
     9     9    10   ar
    10    10    11   ar
    11    11    12    1
    12    12    13    1
    13    13    14    1
    14    14    15   am
    15    15    16    2
    16    15    17    1
    17    17    18   ar
    18    18    19   ar
    19    19    20   ar
    20    20    21    1
    21    21    22   ar
    22    22    23   ar
    23    23    24   ar
    24    24    25   ar
    25    20    26   ar
    26    26    27   ar
    27    14    28    1
    28    28    29    1
    29     6    30   ar
    30    30     2   ar
    31    11     7   ar
    32    27    17   ar
    33    28    10    1
    34    25    21   ar
    35     1    31    1
    36     1    32    1
    37     1    33    1
    38     3    34    1
    39     4    35    1
    40     5    36    1
    41    12    37    1
    42    12    38    1
    43    13    39    1
    44    13    40    1
    45    18    41    1
    46    19    42    1
    47    22    43    1
    48    23    44    1
    49    24    45    1
    50    26    46    1
    51    27    47    1
    52    28    48    1
    53    29    49    1
    54    29    50    1
    55    29    51    1
