
     RDKit          3D

 51 55  0  0  0  0  0  0  0  0999 V2000
   -7.8283   -1.0120   -0.5473 C   0  0  0  0  0  0  0  0  0  0  0  0
   -6.8840    0.0680   -0.1716 C   0  0  0  0  0  0  0  0  0  0  0  0
   -7.2828    1.3891   -0.3075 C   0  0  0  0  0  0  0  0  0  0  0  0
   -6.4309    2.4210    0.0315 C   0  0  0  0  0  0  0  0  0  0  0  0
   -5.1821    2.1161    0.5058 C   0  0  0  0  0  0  0  0  0  0  0  0
   -4.8015    0.7955    0.6343 C   0  0  0  0  0  0  0  0  0  0  0  0
   -3.4558    0.4969    1.1439 C   0  0  0  0  0  0  0  0  0  0  0  0
   -3.0823    0.3857    2.4226 N   0  0  0  0  0  0  0  0  0  0  0  0
   -1.7717    0.1047    2.4654 N   0  0  0  0  0  0  0  0  0  0  0  0
   -1.3004    0.0352    1.2123 C   0  0  0  0  0  0  0  0  0  0  0  0
   -2.3418    0.2772    0.4261 N   0  0  0  0  0  0  0  0  0  0  0  0
   -2.1167    0.2594   -1.0001 C   0  0  0  0  0  0  0  0  0  0  0  0
   -1.2392   -0.9766   -1.2451 C   0  0  0  0  0  0  0  0  0  0  0  0
    0.0649   -0.7076   -0.6320 N   0  0  0  0  0  0  0  0  0  0  0  0
    1.1833   -0.9294   -1.4491 C   0  0  0  0  0  0  0  0  0  0  0  0
    1.0600   -1.3450   -2.6548 O   0  0  0  0  0  0  0  0  0  0  0  0
    2.5577   -0.7194   -1.0340 C   0  0  0  0  0  0  0  0  0  0  0  0
    3.4676   -1.7772   -0.9886 C   0  0  0  0  0  0  0  0  0  0  0  0
    4.7803   -1.5742   -0.6341 C   0  0  0  0  0  0  0  0  0  0  0  0
    5.2306   -0.3088   -0.3108 C   0  0  0  0  0  0  0  0  0  0  0  0
    6.5995   -0.0551    0.0338 C   0  0  0  0  0  0  0  0  0  0  0  0
    7.2281    1.1667    0.3967 C   0  0  0  0  0  0  0  0  0  0  0  0
    8.5288    1.1112    0.6592 C   0  0  0  0  0  0  0  0  0  0  0  0
    9.2307   -0.0380    0.5892 C   0  0  0  0  0  0  0  0  0  0  0  0
    7.8915   -1.1920    0.0903 S   0  0  0  0  0  0  0  0  0  0  0  0
    4.3230    0.7004   -0.3612 C   0  0  0  0  0  0  0  0  0  0  0  0
    2.9835    0.5417   -0.7163 C   0  0  0  0  0  0  0  0  0  0  0  0
    0.0888   -0.2501    0.7242 C   0  0  2  0  0  0  0  0  0  0  0  0
    0.6782   -1.2668    1.6929 C   0  0  0  0  0  0  0  0  0  0  0  0
   -5.6503   -0.2017    0.2969 N   0  0  0  0  0  0  0  0  0  0  0  0
   -8.8482   -0.6061   -0.5177 H   0  0  0  0  0  0  0  0  0  0  0  0
   -7.7561   -1.8822    0.1487 H   0  0  0  0  0  0  0  0  0  0  0  0
   -7.5743   -1.2987   -1.6012 H   0  0  0  0  0  0  0  0  0  0  0  0
   -8.2828    1.6132   -0.6873 H   0  0  0  0  0  0  0  0  0  0  0  0
   -6.7316    3.4728   -0.0713 H   0  0  0  0  0  0  0  0  0  0  0  0
   -4.4689    2.8936    0.7873 H   0  0  0  0  0  0  0  0  0  0  0  0
   -1.4874    1.1449   -1.2688 H   0  0  0  0  0  0  0  0  0  0  0  0
   -3.0328    0.2016   -1.5792 H   0  0  0  0  0  0  0  0  0  0  0  0
   -1.6893   -1.8722   -0.7919 H   0  0  0  0  0  0  0  0  0  0  0  0
   -1.1779   -1.0973   -2.3352 H   0  0  0  0  0  0  0  0  0  0  0  0
    3.1211   -2.7745   -1.2412 H   0  0  0  0  0  0  0  0  0  0  0  0
    5.4728   -2.4247   -0.6080 H   0  0  0  0  0  0  0  0  0  0  0  0
    6.5850    2.0992    0.4378 H   0  0  0  0  0  0  0  0  0  0  0  0
    9.0902    2.0523    0.9556 H   0  0  0  0  0  0  0  0  0  0  0  0
   10.2176   -0.3281    0.7400 H   0  0  0  0  0  0  0  0  0  0  0  0
    4.6710    1.7159   -0.1038 H   0  0  0  0  0  0  0  0  0  0  0  0
    2.3269    1.4168   -0.7308 H   0  0  0  0  0  0  0  0  0  0  0  0
    0.6621    0.7020    0.8132 H   0  0  0  0  0  0  0  0  0  0  0  0
   -0.1349   -1.7866    2.2732 H   0  0  0  0  0  0  0  0  0  0  0  0
    1.2488   -0.7038    2.4814 H   0  0  0  0  0  0  0  0  0  0  0  0
    1.2604   -2.0531    1.2001 H   0  0  0  0  0  0  0  0  0  0  0  0
  1  2  1  0
  2  3  2  0
  3  4  1  0
  4  5  2  0
  5  6  1  0
  6  7  1  0
  7  8  2  0
  8  9  1  0
  9 10  2  0
 10 11  1  0
 11 12  1  0
 12 13  1  0
 13 14  1  0
 14 15  1  0
 15 16  2  0
 15 17  1  0
 17 18  2  0
 18 19  1  0
 19 20  2  0
 20 21  1  0
 21 22  2  0
 22 23  1  0
 23 24  2  0
 24 25  1  0
 20 26  1  0
 26 27  2  0
 14 28  1  0
 28 29  1  0
  6 30  2  0
 30  2  1  0
 11  7  1  0
 27 17  1  0
 28 10  1  0
 25 21  1  0
  1 31  1  0
  1 32  1  0
  1 33  1  0
  3 34  1  0
  4 35  1  0
  5 36  1  0
 12 37  1  0
 12 38  1  0
 13 39  1  0
 13 40  1  0
 18 41  1  0
 19 42  1  0
 22 43  1  0
 23 44  1  0
 24 45  1  0
 26 46  1  0
 27 47  1  0
 28 48  1  6
 29 49  1  0
 29 50  1  0
 29 51  1  0
M  END
$$$$
