@<TRIPOS>MOLECULE
*****
 56 59 0 0 0
SMALL
GASTEIGER

@<TRIPOS>ATOM
      1 C          -4.5589   -1.5988   -2.0228 C.3     1  UNL1        0.0790
      2 O          -4.0358   -1.0632   -0.8429 O.3     1  UNL1       -0.4915
      3 C          -4.8841   -0.6609    0.1774 C.ar    1  UNL1        0.1615
      4 C          -6.2569   -0.7195    0.1994 C.ar    1  UNL1       -0.0163
      5 C          -7.0367   -0.2970    1.2512 C.ar    1  UNL1       -0.0581
      6 C          -6.4483    0.2207    2.3666 C.ar    1  UNL1       -0.0581
      7 C          -5.0786    0.3167    2.4290 C.ar    1  UNL1       -0.0163
      8 C          -4.3327   -0.1167    1.3542 C.ar    1  UNL1        0.1619
      9 O          -2.9433   -0.0393    1.3592 O.3     1  UNL1       -0.4870
     10 C          -2.2369    0.4910    2.4353 C.3     1  UNL1        0.1022
     11 C          -0.7582    0.5366    2.2893 C.3     1  UNL1        0.0302
     12 N          -0.3180    1.3207    1.1700 N.3     1  UNL1       -0.3102
     13 C          -0.5441    0.6594   -0.0648 C.3     1  UNL1        0.0253
     14 C          -0.1663    1.4770   -1.2945 C.3     1  UNL1        0.1015
     15 O          -0.9999    2.6120   -1.3155 O.3     1  UNL1       -0.3872
     16 C           1.2464    2.0314   -1.1392 C.3     1  UNL1        0.1166
     17 O           2.2358    1.1007   -1.0450 O.3     1  UNL1       -0.4887
     18 C           2.6452    0.1396   -1.8675 C.ar    1  UNL1        0.1303
     19 C           2.2897   -0.3306   -3.1074 C.ar    1  UNL1       -0.0192
     20 C           2.8793   -1.3765   -3.7789 C.ar    1  UNL1       -0.0563
     21 C           3.9266   -2.0069   -3.1383 C.ar    1  UNL1       -0.0375
     22 C           4.3669   -1.6079   -1.8780 C.ar    1  UNL1        0.0510
     23 C           3.7179   -0.5323   -1.2511 C.ar    1  UNL1        0.0490
     24 C           4.4506   -0.4630   -0.0481 C.ar    1  UNL1        0.0109
     25 C           4.2603    0.4304    0.9921 C.ar    1  UNL1       -0.0519
     26 C           5.0606    0.3913    2.1309 C.ar    1  UNL1       -0.0611
     27 C           6.0719   -0.5681    2.2202 C.ar    1  UNL1       -0.0598
     28 C           6.2087   -1.4382    1.1350 C.ar    1  UNL1       -0.0378
     29 C           5.4360   -1.4219    0.0046 C.ar    1  UNL1        0.0476
     30 N           5.3666   -2.1205   -1.1387 N.ar    1  UNL1       -0.3540
     31 H          -4.8532   -2.6521   -1.8116 H       1  UNL1        0.0660
     32 H          -5.4594   -1.0011   -2.3221 H       1  UNL1        0.0660
     33 H          -3.7886   -1.5766   -2.8345 H       1  UNL1        0.0660
     34 H          -6.7158   -1.1355   -0.7011 H       1  UNL1        0.0655
     35 H          -8.1117   -0.3748    1.1963 H       1  UNL1        0.0619
     36 H          -6.9809    0.5785    3.2419 H       1  UNL1        0.0619
     37 H          -4.4976    0.7174    3.2699 H       1  UNL1        0.0655
     38 H          -2.6459    1.5530    2.5575 H       1  UNL1        0.0709
     39 H          -2.5549    0.0235    3.4153 H       1  UNL1        0.0709
     40 H          -0.3703   -0.5273    2.1986 H       1  UNL1        0.0457
     41 H          -0.2476    0.8921    3.2305 H       1  UNL1        0.0457
     42 H           0.7353    1.4892    1.2580 H       1  UNL1        0.1221
     43 H          -1.6005    0.3864   -0.2353 H       1  UNL1        0.0450
     44 H           0.0120   -0.3334   -0.0941 H       1  UNL1        0.0450
     45 H          -0.3109    0.8569   -2.1688 H       1  UNL1        0.0640
     46 H          -1.2243    2.9252   -0.3846 H       1  UNL1        0.2100
     47 H           1.3850    2.7374   -2.0186 H       1  UNL1        0.0723
     48 H           1.2389    2.7431   -0.2338 H       1  UNL1        0.0723
     49 H           1.4807    0.2083   -3.5354 H       1  UNL1        0.0654
     50 H           2.5049   -1.6421   -4.7430 H       1  UNL1        0.0619
     51 H           4.3633   -2.8248   -3.6956 H       1  UNL1        0.0638
     52 H           3.4923    1.1897    0.9703 H       1  UNL1        0.0624
     53 H           4.8935    1.1118    2.9451 H       1  UNL1        0.0618
     54 H           6.7160   -0.6269    3.0882 H       1  UNL1        0.0618
     55 H           6.9979   -2.1802    1.2193 H       1  UNL1        0.0638
     56 H           5.9781   -2.9124   -1.3942 H       1  UNL1        0.1659
@<TRIPOS>BOND
     1     1     2    1
     2     2     3    1
     3     3     4   ar
     4     4     5   ar
     5     5     6   ar
     6     6     7   ar
     7     7     8   ar
     8     8     9    1
     9     9    10    1
    10    10    11    1
    11    11    12    1
    12    12    13    1
    13    13    14    1
    14    14    15    1
    15    14    16    1
    16    16    17    1
    17    17    18    1
    18    18    19   ar
    19    19    20   ar
    20    20    21   ar
    21    21    22   ar
    22    22    23   ar
    23    23    24   ar
    24    24    25   ar
    25    25    26   ar
    26    26    27   ar
    27    27    28   ar
    28    28    29   ar
    29    29    30   ar
    30     8     3   ar
    31    23    18   ar
    32    29    24   ar
    33    30    22   ar
    34     1    31    1
    35     1    32    1
    36     1    33    1
    37     4    34    1
    38     5    35    1
    39     6    36    1
    40     7    37    1
    41    10    38    1
    42    10    39    1
    43    11    40    1
    44    11    41    1
    45    12    42    1
    46    13    43    1
    47    13    44    1
    48    14    45    1
    49    15    46    1
    50    16    47    1
    51    16    48    1
    52    19    49    1
    53    20    50    1
    54    21    51    1
    55    25    52    1
    56    26    53    1
    57    27    54    1
    58    28    55    1
    59    30    56    1
