
     RDKit          3D

 68 74  0  0  0  0  0  0  0  0999 V2000
    4.5415    0.7313    3.2982 C   0  0  0  0  0  0  0  0  0  0  0  0
    5.4525    1.6108    2.6726 O   0  0  0  0  0  0  0  0  0  0  0  0
    6.1475    1.1293    1.5455 C   0  0  0  0  0  0  0  0  0  0  0  0
    7.0519    1.9288    0.8831 C   0  0  0  0  0  0  0  0  0  0  0  0
    7.7097    1.4195   -0.2118 C   0  0  0  0  0  0  0  0  0  0  0  0
    7.5149    0.1282   -0.6980 C   0  0  0  0  0  0  0  0  0  0  0  0
    6.6135   -0.6747   -0.0455 C   0  0  0  0  0  0  0  0  0  0  0  0
    5.9492   -0.1506    1.0680 C   0  0  0  0  0  0  0  0  0  0  0  0
    6.5442   -1.9449   -0.7371 C   0  0  1  0  0  0  0  0  0  0  0  0
    6.4110   -3.2656   -0.0836 C   0  0  0  0  0  0  0  0  0  0  0  0
    5.3192   -2.7299   -1.0154 C   0  0  1  0  0  0  0  0  0  0  0  0
    3.9880   -2.4489   -0.4808 C   0  0  0  0  0  0  0  0  0  0  0  0
    3.0290   -1.8574   -1.2992 C   0  0  0  0  0  0  0  0  0  0  0  0
    1.7381   -1.5880   -0.8897 C   0  0  0  0  0  0  0  0  0  0  0  0
    1.3158   -1.8906    0.3645 C   0  0  0  0  0  0  0  0  0  0  0  0
    0.1266   -1.7325    1.0271 C   0  0  0  0  0  0  0  0  0  0  0  0
   -1.1733   -1.2257    0.6582 C   0  0  0  0  0  0  0  0  0  0  0  0
   -1.6312   -0.8375   -0.4766 C   0  0  0  0  0  0  0  0  0  0  0  0
   -3.0122   -0.3487   -0.6176 C   0  0  0  0  0  0  0  0  0  0  0  0
   -3.9154   -0.2488    0.3978 C   0  0  0  0  0  0  0  0  0  0  0  0
   -5.2184    0.2317    0.1779 C   0  0  0  0  0  0  0  0  0  0  0  0
   -5.6434    0.6233   -1.0697 C   0  0  0  0  0  0  0  0  0  0  0  0
   -7.0134    1.1390   -1.3281 C   0  0  0  0  0  0  0  0  0  0  0  0
   -7.0564    2.5606   -1.2152 N   0  0  0  0  0  0  0  0  0  0  0  0
   -8.4084    2.9939   -1.4956 C   0  0  0  0  0  0  0  0  0  0  0  0
   -9.3205    2.8388   -0.2884 C   0  0  0  0  0  0  0  0  0  0  0  0
   -8.8232    3.5211    0.8180 O   0  0  0  0  0  0  0  0  0  0  0  0
   -7.6291    2.8576    1.1661 C   0  0  0  0  0  0  0  0  0  0  0  0
   -6.6009    3.0681    0.0469 C   0  0  0  0  0  0  0  0  0  0  0  0
   -4.7310    0.5226   -2.0973 C   0  0  0  0  0  0  0  0  0  0  0  0
   -3.4544    0.0534   -1.8895 C   0  0  0  0  0  0  0  0  0  0  0  0
    0.3819   -2.2427    2.2803 N   0  0  0  0  0  0  0  0  0  0  0  0
    1.6152   -2.6711    2.3641 N   0  0  0  0  0  0  0  0  0  0  0  0
    2.2653   -2.4849    1.2024 C   0  0  0  0  0  0  0  0  0  0  0  0
    3.5518   -2.7510    0.7872 C   0  0  0  0  0  0  0  0  0  0  0  0
    7.5959   -1.8754   -1.7754 C   0  0  0  0  0  0  0  0  0  0  0  0
    7.9354   -2.8241   -2.5245 O   0  0  0  0  0  0  0  0  0  0  0  0
    8.1327   -0.5851   -1.7705 N   0  0  0  0  0  0  0  0  0  0  0  0
    5.1409   -0.1701    3.6061 H   0  0  0  0  0  0  0  0  0  0  0  0
    4.0177    1.1859    4.1383 H   0  0  0  0  0  0  0  0  0  0  0  0
    3.7716    0.3592    2.5606 H   0  0  0  0  0  0  0  0  0  0  0  0
    7.2131    2.9335    1.2492 H   0  0  0  0  0  0  0  0  0  0  0  0
    8.4389    2.0446   -0.7568 H   0  0  0  0  0  0  0  0  0  0  0  0
    5.2354   -0.7300    1.6390 H   0  0  0  0  0  0  0  0  0  0  0  0
    6.2190   -3.3790    0.9824 H   0  0  0  0  0  0  0  0  0  0  0  0
    7.0312   -4.1147   -0.4919 H   0  0  0  0  0  0  0  0  0  0  0  0
    5.3417   -3.1308   -2.0846 H   0  0  0  0  0  0  0  0  0  0  0  0
    3.3140   -1.5943   -2.3150 H   0  0  0  0  0  0  0  0  0  0  0  0
    1.0311   -1.1190   -1.5525 H   0  0  0  0  0  0  0  0  0  0  0  0
   -1.8867   -1.1594    1.5021 H   0  0  0  0  0  0  0  0  0  0  0  0
   -0.9959   -0.8812   -1.3549 H   0  0  0  0  0  0  0  0  0  0  0  0
   -3.6502   -0.5394    1.4118 H   0  0  0  0  0  0  0  0  0  0  0  0
   -5.9068    0.2941    1.0157 H   0  0  0  0  0  0  0  0  0  0  0  0
   -7.3795    0.7512   -2.2864 H   0  0  0  0  0  0  0  0  0  0  0  0
   -7.6676    0.6470   -0.5469 H   0  0  0  0  0  0  0  0  0  0  0  0
   -8.8230    2.3052   -2.2830 H   0  0  0  0  0  0  0  0  0  0  0  0
   -8.3739    4.0357   -1.8225 H   0  0  0  0  0  0  0  0  0  0  0  0
   -9.3931    1.7435   -0.0623 H   0  0  0  0  0  0  0  0  0  0  0  0
  -10.2946    3.2835   -0.5583 H   0  0  0  0  0  0  0  0  0  0  0  0
   -7.1800    3.3529    2.0736 H   0  0  0  0  0  0  0  0  0  0  0  0
   -7.7693    1.7764    1.2857 H   0  0  0  0  0  0  0  0  0  0  0  0
   -6.4301    4.1729   -0.0619 H   0  0  0  0  0  0  0  0  0  0  0  0
   -5.6666    2.6237    0.3873 H   0  0  0  0  0  0  0  0  0  0  0  0
   -5.0349    0.8218   -3.0870 H   0  0  0  0  0  0  0  0  0  0  0  0
   -2.7284   -0.0295   -2.6952 H   0  0  0  0  0  0  0  0  0  0  0  0
    2.0017   -3.0939    3.2350 H   0  0  0  0  0  0  0  0  0  0  0  0
    4.2611   -3.2134    1.4624 H   0  0  0  0  0  0  0  0  0  0  0  0
    8.8633   -0.1566   -2.4153 H   0  0  0  0  0  0  0  0  0  0  0  0
  1  2  1  0
  2  3  1  0
  3  4  2  0
  4  5  1  0
  5  6  2  0
  6  7  1  0
  7  8  2  0
  7  9  1  0
  9 10  1  1
 10 11  1  0
 11 12  1  0
 12 13  2  0
 13 14  1  0
 14 15  2  0
 15 16  1  0
 16 17  1  0
 17 18  2  0
 18 19  1  0
 19 20  2  0
 20 21  1  0
 21 22  2  0
 22 23  1  0
 23 24  1  0
 24 25  1  0
 25 26  1  0
 26 27  1  0
 27 28  1  0
 28 29  1  0
 22 30  1  0
 30 31  2  0
 16 32  2  0
 32 33  1  0
 33 34  1  0
 34 35  2  0
  9 36  1  0
 36 37  2  0
 36 38  1  0
  8  3  1  0
 11  9  1  0
 35 12  1  0
 38  6  1  0
 34 15  1  0
 31 19  1  0
 29 24  1  0
  1 39  1  0
  1 40  1  0
  1 41  1  0
  4 42  1  0
  5 43  1  0
  8 44  1  0
 10 45  1  0
 10 46  1  0
 11 47  1  6
 13 48  1  0
 14 49  1  0
 17 50  1  0
 18 51  1  0
 20 52  1  0
 21 53  1  0
 23 54  1  0
 23 55  1  0
 25 56  1  0
 25 57  1  0
 26 58  1  0
 26 59  1  0
 28 60  1  0
 28 61  1  0
 29 62  1  0
 29 63  1  0
 30 64  1  0
 31 65  1  0
 33 66  1  0
 35 67  1  0
 38 68  1  0
M  END
$$$$
