@<TRIPOS>MOLECULE
*****
 68 74 0 0 0
SMALL
GASTEIGER

@<TRIPOS>ATOM
      1 C           4.5415    0.7313    3.2982 C.3     1  UNL1        0.0788
      2 O           5.4525    1.6108    2.6726 O.3     1  UNL1       -0.4951
      3 C           6.1475    1.1293    1.5455 C.ar    1  UNL1        0.1205
      4 C           7.0519    1.9288    0.8831 C.ar    1  UNL1       -0.0182
      5 C           7.7097    1.4195   -0.2118 C.ar    1  UNL1       -0.0367
      6 C           7.5149    0.1282   -0.6980 C.ar    1  UNL1        0.0378
      7 C           6.6135   -0.6747   -0.0455 C.ar    1  UNL1       -0.0072
      8 C           5.9492   -0.1506    1.0680 C.ar    1  UNL1       -0.0140
      9 C           6.5442   -1.9449   -0.7371 C.3     1  UNL1        0.0813
     10 C           6.4110   -3.2656   -0.0836 C.3     1  UNL1       -0.0262
     11 C           5.3192   -2.7299   -1.0154 C.3     1  UNL1        0.0035
     12 C           3.9880   -2.4489   -0.4808 C.ar    1  UNL1       -0.0409
     13 C           3.0290   -1.8574   -1.2992 C.ar    1  UNL1       -0.0575
     14 C           1.7381   -1.5880   -0.8897 C.ar    1  UNL1       -0.0502
     15 C           1.3158   -1.8906    0.3645 C.ar    1  UNL1        0.0268
     16 C           0.1266   -1.7325    1.0271 C.ar    1  UNL1        0.0931
     17 C          -1.1733   -1.2257    0.6582 C.2     1  UNL1       -0.0334
     18 C          -1.6312   -0.8375   -0.4766 C.2     1  UNL1       -0.0525
     19 C          -3.0122   -0.3487   -0.6176 C.ar    1  UNL1       -0.0249
     20 C          -3.9154   -0.2488    0.3978 C.ar    1  UNL1       -0.0543
     21 C          -5.2184    0.2317    0.1779 C.ar    1  UNL1       -0.0568
     22 C          -5.6434    0.6233   -1.0697 C.ar    1  UNL1       -0.0333
     23 C          -7.0134    1.1390   -1.3281 C.3     1  UNL1        0.0242
     24 N          -7.0564    2.5606   -1.2152 N.3     1  UNL1       -0.2938
     25 C          -8.4084    2.9939   -1.4956 C.3     1  UNL1        0.0228
     26 C          -9.3205    2.8388   -0.2884 C.3     1  UNL1        0.0604
     27 O          -8.8232    3.5211    0.8180 O.3     1  UNL1       -0.3772
     28 C          -7.6291    2.8576    1.1661 C.3     1  UNL1        0.0604
     29 C          -6.6009    3.0681    0.0469 C.3     1  UNL1        0.0228
     30 C          -4.7310    0.5226   -2.0973 C.ar    1  UNL1       -0.0568
     31 C          -3.4544    0.0534   -1.8895 C.ar    1  UNL1       -0.0543
     32 N           0.3819   -2.2427    2.2803 N.ar    1  UNL1       -0.1733
     33 N           1.6152   -2.6711    2.3641 N.ar    1  UNL1       -0.2764
     34 C           2.2653   -2.4849    1.2024 C.ar    1  UNL1        0.0666
     35 C           3.5518   -2.7510    0.7872 C.ar    1  UNL1       -0.0328
     36 C           7.5959   -1.8754   -1.7754 C.2     1  UNL1        0.2284
     37 O           7.9354   -2.8241   -2.5245 O.2     1  UNL1       -0.2745
     38 N           8.1327   -0.5851   -1.7705 N.am    1  UNL1       -0.2845
     39 H           5.1409   -0.1701    3.6061 H       1  UNL1        0.0660
     40 H           4.0177    1.1859    4.1383 H       1  UNL1        0.0660
     41 H           3.7716    0.3592    2.5606 H       1  UNL1        0.0660
     42 H           7.2131    2.9335    1.2492 H       1  UNL1        0.0655
     43 H           8.4389    2.0446   -0.7568 H       1  UNL1        0.0637
     44 H           5.2354   -0.7300    1.6390 H       1  UNL1        0.0658
     45 H           6.2190   -3.3790    0.9824 H       1  UNL1        0.0285
     46 H           7.0312   -4.1147   -0.4919 H       1  UNL1        0.0285
     47 H           5.3417   -3.1308   -2.0846 H       1  UNL1        0.0362
     48 H           3.3140   -1.5943   -2.3150 H       1  UNL1        0.0621
     49 H           1.0311   -1.1190   -1.5525 H       1  UNL1        0.0625
     50 H          -1.8867   -1.1594    1.5021 H       1  UNL1        0.0640
     51 H          -0.9959   -0.8812   -1.3549 H       1  UNL1        0.0624
     52 H          -3.6502   -0.5394    1.4118 H       1  UNL1        0.0624
     53 H          -5.9068    0.2941    1.0157 H       1  UNL1        0.0621
     54 H          -7.3795    0.7512   -2.2864 H       1  UNL1        0.0476
     55 H          -7.6676    0.6470   -0.5469 H       1  UNL1        0.0476
     56 H          -8.8230    2.3052   -2.2830 H       1  UNL1        0.0449
     57 H          -8.3739    4.0357   -1.8225 H       1  UNL1        0.0449
     58 H          -9.3931    1.7435   -0.0623 H       1  UNL1        0.0572
     59 H         -10.2946    3.2835   -0.5583 H       1  UNL1        0.0572
     60 H          -7.1800    3.3529    2.0736 H       1  UNL1        0.0572
     61 H          -7.7693    1.7764    1.2857 H       1  UNL1        0.0572
     62 H          -6.4301    4.1729   -0.0619 H       1  UNL1        0.0449
     63 H          -5.6666    2.6237    0.3873 H       1  UNL1        0.0449
     64 H          -5.0349    0.8218   -3.0870 H       1  UNL1        0.0621
     65 H          -2.7284   -0.0295   -2.6952 H       1  UNL1        0.0624
     66 H           2.0017   -3.0939    3.2350 H       1  UNL1        0.1889
     67 H           4.2611   -3.2134    1.4624 H       1  UNL1        0.0642
     68 H           8.8633   -0.1566   -2.4153 H       1  UNL1        0.1548
@<TRIPOS>BOND
     1     1     2    1
     2     2     3    1
     3     3     4   ar
     4     4     5   ar
     5     5     6   ar
     6     6     7   ar
     7     7     8   ar
     8     7     9    1
     9     9    10    1
    10    10    11    1
    11    11    12    1
    12    12    13   ar
    13    13    14   ar
    14    14    15   ar
    15    15    16   ar
    16    16    17    1
    17    17    18    2
    18    18    19    1
    19    19    20   ar
    20    20    21   ar
    21    21    22   ar
    22    22    23    1
    23    23    24    1
    24    24    25    1
    25    25    26    1
    26    26    27    1
    27    27    28    1
    28    28    29    1
    29    22    30   ar
    30    30    31   ar
    31    16    32   ar
    32    32    33   ar
    33    33    34   ar
    34    34    35   ar
    35     9    36    1
    36    36    37    2
    37    36    38   am
    38     8     3   ar
    39    11     9    1
    40    35    12   ar
    41    38     6    1
    42    34    15   ar
    43    31    19   ar
    44    29    24    1
    45     1    39    1
    46     1    40    1
    47     1    41    1
    48     4    42    1
    49     5    43    1
    50     8    44    1
    51    10    45    1
    52    10    46    1
    53    11    47    1
    54    13    48    1
    55    14    49    1
    56    17    50    1
    57    18    51    1
    58    20    52    1
    59    21    53    1
    60    23    54    1
    61    23    55    1
    62    25    56    1
    63    25    57    1
    64    26    58    1
    65    26    59    1
    66    28    60    1
    67    28    61    1
    68    29    62    1
    69    29    63    1
    70    30    64    1
    71    31    65    1
    72    33    66    1
    73    35    67    1
    74    38    68    1
