
     RDKit          3D

 50 54  0  0  0  0  0  0  0  0999 V2000
    5.7138    3.1396    1.4999 Cl  0  0  0  0  0  0  0  0  0  0  0  0
    5.7841    1.6399    0.5626 C   0  0  0  0  0  0  0  0  0  0  0  0
    5.0092    0.5014    0.7410 C   0  0  0  0  0  0  0  0  0  0  0  0
    4.0126    0.5821    1.7520 N   0  0  0  0  0  0  0  0  0  0  0  0
    2.8428    0.7220    0.9342 C   0  0  0  0  0  0  0  0  0  0  0  0
    2.0812   -0.3947    0.7643 N   0  0  0  0  0  0  0  0  0  0  0  0
    0.9862   -0.3275   -0.0091 C   0  0  0  0  0  0  0  0  0  0  0  0
    0.0771   -1.4344   -0.2658 N   0  0  0  0  0  0  0  0  0  0  0  0
   -1.0479   -0.9902    0.5252 C   0  0  0  0  0  0  0  0  0  0  0  0
   -2.0787   -0.7348   -0.3303 C   0  0  0  0  0  0  0  0  0  0  0  0
   -3.2576   -0.2585    0.1964 C   0  0  0  0  0  0  0  0  0  0  0  0
   -3.3778   -0.0516    1.5757 C   0  0  0  0  0  0  0  0  0  0  0  0
   -2.3100   -0.3202    2.4399 C   0  0  0  0  0  0  0  0  0  0  0  0
   -1.1199   -0.8030    1.8814 C   0  0  0  0  0  0  0  0  0  0  0  0
   -4.5123    0.1404   -0.3741 N   0  0  0  0  0  0  0  0  0  0  0  0
   -5.0228    1.4348   -0.8320 C   0  0  0  0  0  0  0  0  0  0  0  0
   -6.2636    1.7980   -0.0313 C   0  0  0  0  0  0  0  0  0  0  0  0
   -6.9051    0.6423    0.4282 O   0  0  0  0  0  0  0  0  0  0  0  0
   -6.8418   -0.3368   -0.5466 C   0  0  0  0  0  0  0  0  0  0  0  0
   -5.4479   -0.9398   -0.5086 C   0  0  0  0  0  0  0  0  0  0  0  0
    0.6173    0.8390   -0.6310 N   0  0  0  0  0  0  0  0  0  0  0  0
    1.3359    1.9634   -0.4910 C   0  0  0  0  0  0  0  0  0  0  0  0
    2.4572    1.8843    0.3035 C   0  0  0  0  0  0  0  0  0  0  0  0
    5.2580   -0.5704   -0.0824 C   0  0  0  0  0  0  0  0  0  0  0  0
    6.2503   -0.5117   -1.0584 C   0  0  0  0  0  0  0  0  0  0  0  0
    6.1904   -1.7778   -1.6733 O   0  0  0  0  0  0  0  0  0  0  0  0
    4.8958   -2.3145   -1.4443 C   0  0  0  0  0  0  0  0  0  0  0  0
    4.6408   -1.8147   -0.1208 O   0  0  0  0  0  0  0  0  0  0  0  0
    7.0194    0.6197   -1.2345 C   0  0  0  0  0  0  0  0  0  0  0  0
    6.7822    1.7088   -0.4147 C   0  0  0  0  0  0  0  0  0  0  0  0
    4.2288    0.5363    2.7817 H   0  0  0  0  0  0  0  0  0  0  0  0
    0.2448   -2.2796   -0.8515 H   0  0  0  0  0  0  0  0  0  0  0  0
   -2.1814   -0.8337   -1.3915 H   0  0  0  0  0  0  0  0  0  0  0  0
   -4.2226    0.3172    2.1647 H   0  0  0  0  0  0  0  0  0  0  0  0
   -2.2686   -0.2046    3.5107 H   0  0  0  0  0  0  0  0  0  0  0  0
   -0.2321   -1.0519    2.4090 H   0  0  0  0  0  0  0  0  0  0  0  0
   -4.2854    2.2570   -0.6666 H   0  0  0  0  0  0  0  0  0  0  0  0
   -5.2099    1.4060   -1.9217 H   0  0  0  0  0  0  0  0  0  0  0  0
   -5.9894    2.4373    0.8292 H   0  0  0  0  0  0  0  0  0  0  0  0
   -6.9611    2.3813   -0.6527 H   0  0  0  0  0  0  0  0  0  0  0  0
   -7.5863   -1.1611   -0.3468 H   0  0  0  0  0  0  0  0  0  0  0  0
   -6.9556    0.0928   -1.5586 H   0  0  0  0  0  0  0  0  0  0  0  0
   -5.3896   -1.6404    0.3703 H   0  0  0  0  0  0  0  0  0  0  0  0
   -5.2346   -1.5844   -1.3875 H   0  0  0  0  0  0  0  0  0  0  0  0
    1.0282    2.8972   -0.9886 H   0  0  0  0  0  0  0  0  0  0  0  0
    3.0046    2.7856    0.3994 H   0  0  0  0  0  0  0  0  0  0  0  0
    4.8508   -3.4033   -1.4771 H   0  0  0  0  0  0  0  0  0  0  0  0
    4.2084   -1.8053   -2.1521 H   0  0  0  0  0  0  0  0  0  0  0  0
    7.7693    0.5915   -2.0079 H   0  0  0  0  0  0  0  0  0  0  0  0
    7.4129    2.5518   -0.6183 H   0  0  0  0  0  0  0  0  0  0  0  0
  1  2  1  0
  2  3  2  0
  3  4  1  0
  4  5  1  0
  5  6  2  0
  6  7  1  0
  7  8  1  0
  8  9  1  0
  9 10  2  0
 10 11  1  0
 11 12  2  0
 12 13  1  0
 13 14  2  0
 11 15  1  0
 15 16  1  0
 16 17  1  0
 17 18  1  0
 18 19  1  0
 19 20  1  0
  7 21  2  0
 21 22  1  0
 22 23  2  0
  3 24  1  0
 24 25  2  0
 25 26  1  0
 26 27  1  0
 27 28  1  0
 25 29  1  0
 29 30  2  0
 30  2  1  0
 23  5  1  0
 28 24  1  0
 14  9  1  0
 20 15  1  0
  4 31  1  0
  8 32  1  0
 10 33  1  0
 12 34  1  0
 13 35  1  0
 14 36  1  0
 16 37  1  0
 16 38  1  0
 17 39  1  0
 17 40  1  0
 19 41  1  0
 19 42  1  0
 20 43  1  0
 20 44  1  0
 22 45  1  0
 23 46  1  0
 27 47  1  0
 27 48  1  0
 29 49  1  0
 30 50  1  0
M  END
$$$$
