@<TRIPOS>MOLECULE
*****
 50 54 0 0 0
SMALL
GASTEIGER

@<TRIPOS>ATOM
      1 CL          5.7138    3.1396    1.4999 Cl      1  UNL1       -0.0815
      2 C           5.7841    1.6399    0.5626 C.ar    1  UNL1        0.0659
      3 C           5.0092    0.5014    0.7410 C.ar    1  UNL1        0.0970
      4 N           4.0126    0.5821    1.7520 N.pl3   1  UNL1       -0.2952
      5 C           2.8428    0.7220    0.9342 C.ar    1  UNL1        0.1281
      6 N           2.0812   -0.3947    0.7643 N.ar    1  UNL1       -0.1992
      7 C           0.9862   -0.3275   -0.0091 C.ar    1  UNL1        0.2212
      8 N           0.0771   -1.4344   -0.2658 N.pl3   1  UNL1       -0.2835
      9 C          -1.0479   -0.9902    0.5252 C.ar    1  UNL1        0.0353
     10 C          -2.0787   -0.7348   -0.3303 C.ar    1  UNL1       -0.0194
     11 C          -3.2576   -0.2585    0.1964 C.ar    1  UNL1        0.0316
     12 C          -3.3778   -0.0516    1.5757 C.ar    1  UNL1       -0.0405
     13 C          -2.3100   -0.3202    2.4399 C.ar    1  UNL1       -0.0583
     14 C          -1.1199   -0.8030    1.8814 C.ar    1  UNL1       -0.0404
     15 N          -4.5123    0.1404   -0.3741 N.pl3   1  UNL1       -0.3255
     16 C          -5.0228    1.4348   -0.8320 C.3     1  UNL1        0.0357
     17 C          -6.2636    1.7980   -0.0313 C.3     1  UNL1        0.0634
     18 O          -6.9051    0.6423    0.4282 O.3     1  UNL1       -0.3767
     19 C          -6.8418   -0.3368   -0.5466 C.3     1  UNL1        0.0634
     20 C          -5.4479   -0.9398   -0.5086 C.3     1  UNL1        0.0357
     21 N           0.6173    0.8390   -0.6310 N.ar    1  UNL1       -0.2225
     22 C           1.3359    1.9634   -0.4910 C.ar    1  UNL1        0.0344
     23 C           2.4572    1.8843    0.3035 C.ar    1  UNL1       -0.0033
     24 C           5.2580   -0.5704   -0.0824 C.ar    1  UNL1        0.1887
     25 C           6.2503   -0.5117   -1.0584 C.ar    1  UNL1        0.1682
     26 O           6.1904   -1.7778   -1.6733 O.3     1  UNL1       -0.4525
     27 C           4.8958   -2.3145   -1.4443 C.3     1  UNL1        0.2333
     28 O           4.6408   -1.8147   -0.1208 O.3     1  UNL1       -0.4507
     29 C           7.0194    0.6197   -1.2345 C.ar    1  UNL1       -0.0146
     30 C           6.7822    1.7088   -0.4147 C.ar    1  UNL1       -0.0379
     31 H           4.2288    0.5363    2.7817 H       1  UNL1        0.1537
     32 H           0.2448   -2.2796   -0.8515 H       1  UNL1        0.1550
     33 H          -2.1814   -0.8337   -1.3915 H       1  UNL1        0.0655
     34 H          -4.2226    0.3172    2.1647 H       1  UNL1        0.0636
     35 H          -2.2686   -0.2046    3.5107 H       1  UNL1        0.0619
     36 H          -0.2321   -1.0519    2.4090 H       1  UNL1        0.0636
     37 H          -4.2854    2.2570   -0.6666 H       1  UNL1        0.0486
     38 H          -5.2099    1.4060   -1.9217 H       1  UNL1        0.0486
     39 H          -5.9894    2.4373    0.8292 H       1  UNL1        0.0575
     40 H          -6.9611    2.3813   -0.6527 H       1  UNL1        0.0575
     41 H          -7.5863   -1.1611   -0.3468 H       1  UNL1        0.0575
     42 H          -6.9556    0.0928   -1.5586 H       1  UNL1        0.0575
     43 H          -5.3896   -1.6404    0.3703 H       1  UNL1        0.0486
     44 H          -5.2346   -1.5844   -1.3875 H       1  UNL1        0.0486
     45 H           1.0282    2.8972   -0.9886 H       1  UNL1        0.0832
     46 H           3.0046    2.7856    0.3994 H       1  UNL1        0.0667
     47 H           4.8508   -3.4033   -1.4771 H       1  UNL1        0.1166
     48 H           4.2084   -1.8053   -2.1521 H       1  UNL1        0.1166
     49 H           7.7693    0.5915   -2.0079 H       1  UNL1        0.0656
     50 H           7.4129    2.5518   -0.6183 H       1  UNL1        0.0634
@<TRIPOS>BOND
     1     1     2    1
     2     2     3   ar
     3     3     4    1
     4     4     5    1
     5     5     6   ar
     6     6     7   ar
     7     7     8    1
     8     8     9    1
     9     9    10   ar
    10    10    11   ar
    11    11    12   ar
    12    12    13   ar
    13    13    14   ar
    14    11    15    1
    15    15    16    1
    16    16    17    1
    17    17    18    1
    18    18    19    1
    19    19    20    1
    20     7    21   ar
    21    21    22   ar
    22    22    23   ar
    23     3    24   ar
    24    24    25   ar
    25    25    26    1
    26    26    27    1
    27    27    28    1
    28    25    29   ar
    29    29    30   ar
    30    30     2   ar
    31    23     5   ar
    32    28    24    1
    33    14     9   ar
    34    20    15    1
    35     4    31    1
    36     8    32    1
    37    10    33    1
    38    12    34    1
    39    13    35    1
    40    14    36    1
    41    16    37    1
    42    16    38    1
    43    17    39    1
    44    17    40    1
    45    19    41    1
    46    19    42    1
    47    20    43    1
    48    20    44    1
    49    22    45    1
    50    23    46    1
    51    27    47    1
    52    27    48    1
    53    29    49    1
    54    30    50    1
