@<TRIPOS>MOLECULE
*****
 60 64 0 0 0
SMALL
GASTEIGER

@<TRIPOS>ATOM
      1 C          -0.2469    0.2785   -2.0299 C.3     1  UNL1       -0.0351
      2 C          -0.1373   -0.7827   -0.8051 C.3     1  UNL1        0.0935
      3 C           0.2246    0.2203    0.2697 C.ar    1  UNL1        0.0158
      4 C           1.5143    0.4680    0.6033 C.ar    1  UNL1       -0.0463
      5 C           1.8740    1.5206    1.4887 C.ar    1  UNL1       -0.0217
      6 C           3.1708    1.9503    1.8614 C.2     1  UNL1       -0.0172
      7 C           4.2625    1.3360    2.1863 C.2     1  UNL1        0.1492
      8 F           4.1900   -0.0169    2.1891 F       1  UNL1       -0.2032
      9 C           5.4892    2.0978    2.4532 C.ar    1  UNL1        0.0990
     10 C           6.6564    1.5043    2.9211 C.ar    1  UNL1       -0.0322
     11 C           7.7876    2.3227    3.1268 C.ar    1  UNL1       -0.0408
     12 C           7.7506    3.6565    2.8842 C.ar    1  UNL1        0.0699
     13 C           8.8275    4.5920    3.1879 C.1     1  UNL1        0.1007
     14 N           9.7240    5.3519    3.4531 N.1     1  UNL1       -0.1908
     15 C           6.5657    4.2309    2.4111 C.ar    1  UNL1        0.0457
     16 N           5.5266    3.3871    2.2311 N.ar    1  UNL1       -0.2514
     17 C           0.7797    2.2340    1.9736 C.ar    1  UNL1       -0.0518
     18 C          -0.5347    1.9890    1.6454 C.ar    1  UNL1       -0.0255
     19 C          -0.8071    0.9727    0.7780 C.ar    1  UNL1        0.1289
     20 F          -2.1269    0.7790    0.4666 F       1  UNL1       -0.2051
     21 N           0.9297   -1.5752   -1.2448 N.2     1  UNL1       -0.2521
     22 C           0.8991   -2.7412   -1.7174 C.2     1  UNL1        0.1485
     23 N           2.1018   -3.4084   -2.1229 N.pl3   1  UNL1       -0.3380
     24 S          -0.6325   -3.5983   -1.9158 S.3     1  UNL1       -0.0746
     25 C          -1.9538   -2.6587   -1.1260 C.3     1  UNL1        0.1054
     26 C          -3.2225   -2.4965   -1.8727 C.2     1  UNL1        0.2324
     27 O          -2.8819   -2.3936   -3.2291 O.2     1  UNL1       -0.2741
     28 N          -4.5096   -2.4035   -1.6836 N.am    1  UNL1       -0.3001
     29 C          -5.4786   -2.0868   -2.8064 C.3     1  UNL1        0.0173
     30 C          -5.5643   -0.5713   -2.6151 C.3     1  UNL1       -0.0058
     31 C          -5.8537   -0.1606   -1.2219 C.3     1  UNL1        0.1038
     32 F          -5.4105    1.1663   -1.0877 F       1  UNL1       -0.2454
     33 C          -5.2843   -0.9303   -0.0883 C.3     1  UNL1       -0.0058
     34 C          -5.2643   -2.4573   -0.4204 C.3     1  UNL1        0.0173
     35 C          -1.8330   -2.3472    0.2922 C.3     1  UNL1       -0.0220
     36 C          -1.4807   -1.2927   -0.6411 C.3     1  UNL1        0.0134
     37 H          -0.4709   -0.3706   -2.8678 H       1  UNL1        0.0256
     38 H           0.7493    0.7070   -2.0493 H       1  UNL1        0.0256
     39 H          -1.0724    0.9354   -1.7852 H       1  UNL1        0.0256
     40 H           2.3599   -0.1068    0.2475 H       1  UNL1        0.0628
     41 H           3.2705    3.1022    1.8804 H       1  UNL1        0.0653
     42 H           6.6898    0.4613    3.1032 H       1  UNL1        0.0640
     43 H           8.7215    1.8937    3.4865 H       1  UNL1        0.0631
     44 H           6.4517    5.2619    2.1891 H       1  UNL1        0.0843
     45 H           0.9856    3.0445    2.6794 H       1  UNL1        0.0624
     46 H          -1.3483    2.5750    2.0607 H       1  UNL1        0.0646
     47 H           2.9539   -2.8377   -2.2011 H       1  UNL1        0.1442
     48 H           2.1324   -4.4177   -2.3471 H       1  UNL1        0.1442
     49 H          -5.0414   -2.3448   -3.7515 H       1  UNL1        0.0465
     50 H          -6.3880   -2.6230   -2.5756 H       1  UNL1        0.0465
     51 H          -6.3484   -0.1588   -3.2667 H       1  UNL1        0.0308
     52 H          -4.5388   -0.2120   -2.9341 H       1  UNL1        0.0308
     53 H          -6.9691   -0.0717   -1.0750 H       1  UNL1        0.0652
     54 H          -5.8921   -0.8005    0.8042 H       1  UNL1        0.0308
     55 H          -4.2213   -0.7084    0.0658 H       1  UNL1        0.0308
     56 H          -6.2845   -2.7982   -0.6008 H       1  UNL1        0.0465
     57 H          -4.7895   -2.9944    0.3708 H       1  UNL1        0.0465
     58 H          -1.0301   -2.9313    0.8253 H       1  UNL1        0.0287
     59 H          -2.7080   -2.2423    0.9316 H       1  UNL1        0.0287
     60 H          -2.2635   -0.4992   -0.9245 H       1  UNL1        0.0346
@<TRIPOS>BOND
     1     2     1    1
     2     2     3    1
     3     3     4   ar
     4     4     5   ar
     5     5     6    1
     6     6     7    2
     7     7     8    1
     8     7     9    1
     9     9    10   ar
    10    10    11   ar
    11    11    12   ar
    12    12    13    1
    13    13    14    3
    14    12    15   ar
    15    15    16   ar
    16     5    17   ar
    17    17    18   ar
    18    18    19   ar
    19    19    20    1
    20     2    21    1
    21    21    22    2
    22    22    23    1
    23    22    24    1
    24    24    25    1
    25    25    26    1
    26    26    27    2
    27    26    28   am
    28    28    29    1
    29    29    30    1
    30    30    31    1
    31    31    32    1
    32    31    33    1
    33    33    34    1
    34    25    35    1
    35    35    36    1
    36    36     2    1
    37    19     3   ar
    38    36    25    1
    39    16     9   ar
    40    34    28    1
    41     1    37    1
    42     1    38    1
    43     1    39    1
    44     4    40    1
    45     6    41    1
    46    10    42    1
    47    11    43    1
    48    15    44    1
    49    17    45    1
    50    18    46    1
    51    23    47    1
    52    23    48    1
    53    29    49    1
    54    29    50    1
    55    30    51    1
    56    30    52    1
    57    31    53    1
    58    33    54    1
    59    33    55    1
    60    34    56    1
    61    34    57    1
    62    35    58    1
    63    35    59    1
    64    36    60    1
