@<TRIPOS>MOLECULE
*****
 33 33 0 0 0
SMALL
GASTEIGER

@<TRIPOS>ATOM
      1 O          -0.9225    1.7928   -0.7892 O.2     1  UNL1       -0.2754
      2 C          -1.0203    0.5536   -0.6987 C.2     1  UNL1        0.2184
      3 N          -1.8561   -0.0140    0.2956 N.am    1  UNL1       -0.2942
      4 C          -2.6204    0.7653    1.2336 C.3     1  UNL1        0.1577
      5 S          -3.5226   -0.3391    2.2962 S.O2    1  UNL1        0.0962
      6 O          -2.5869   -1.2253    3.0680 O.2     1  UNL1       -0.1458
      7 O          -4.3658    0.4150    3.2814 O.2     1  UNL1       -0.1458
      8 O          -4.5565   -1.2914    1.3787 O.3     1  UNL1       -0.2527
      9 C          -0.2640   -0.3031   -1.6290 C.3     1  UNL1        0.0483
     10 C           0.5584    0.5172   -2.6097 C.3     1  UNL1        0.0021
     11 S          -0.5937    1.5624   -3.5571 S.3     1  UNL1       -0.1775
     12 C           0.5910   -1.3357   -0.9274 C.3     1  UNL1       -0.0158
     13 C           1.5991   -0.7442   -0.0313 C.ar    1  UNL1       -0.0466
     14 C           1.3911   -0.4655    1.3030 C.ar    1  UNL1       -0.0586
     15 C           2.3909    0.0945    2.0888 C.ar    1  UNL1       -0.0615
     16 C           3.6309    0.3934    1.5640 C.ar    1  UNL1       -0.0617
     17 C           3.8450    0.1167    0.2291 C.ar    1  UNL1       -0.0615
     18 C           2.8429   -0.4411   -0.5452 C.ar    1  UNL1       -0.0586
     19 H          -1.8907   -1.0745    0.3137 H       1  UNL1        0.1503
     20 H          -1.8868    1.3305    1.8726 H       1  UNL1        0.0732
     21 H          -3.2838    1.5034    0.7858 H       1  UNL1        0.0732
     22 H          -4.2975   -1.2058    0.4404 H       1  UNL1        0.2445
     23 H          -0.9992   -0.8665   -2.2414 H       1  UNL1        0.0405
     24 H           1.2962    1.1296   -2.0747 H       1  UNL1        0.0381
     25 H           1.0027   -0.2008   -3.3252 H       1  UNL1        0.0381
     26 H          -0.4029    1.4183   -4.9369 H       1  UNL1        0.1017
     27 H           1.0311   -1.9759   -1.7122 H       1  UNL1        0.0321
     28 H          -0.1227   -1.9746   -0.3406 H       1  UNL1        0.0321
     29 H           0.4447   -0.6849    1.7382 H       1  UNL1        0.0620
     30 H           2.2424    0.3196    3.1407 H       1  UNL1        0.0618
     31 H           4.4261    0.8317    2.1624 H       1  UNL1        0.0618
     32 H           4.8153    0.3491   -0.1871 H       1  UNL1        0.0618
     33 H           3.0847   -0.6304   -1.5862 H       1  UNL1        0.0620
@<TRIPOS>BOND
     1     1     2    2
     2     2     3   am
     3     3     4    1
     4     4     5    1
     5     5     6    2
     6     5     7    2
     7     5     8    1
     8     2     9    1
     9     9    10    1
    10    10    11    1
    11     9    12    1
    12    12    13    1
    13    13    14   ar
    14    14    15   ar
    15    15    16   ar
    16    16    17   ar
    17    17    18   ar
    18    18    13   ar
    19     3    19    1
    20     4    20    1
    21     4    21    1
    22     8    22    1
    23     9    23    1
    24    10    24    1
    25    10    25    1
    26    11    26    1
    27    12    27    1
    28    12    28    1
    29    14    29    1
    30    15    30    1
    31    16    31    1
    32    17    32    1
    33    18    33    1
