@<TRIPOS>MOLECULE
*****
 47 50 0 0 0
SMALL
GASTEIGER

@<TRIPOS>ATOM
      1 C           5.0143   -0.5465   -3.0629 C.3     1  UNL1        0.0789
      2 O           4.1132    0.0677   -2.1880 O.3     1  UNL1       -0.4928
      3 C           4.4850    0.9399   -1.1754 C.ar    1  UNL1        0.1517
      4 C           5.8166    1.2168   -1.0243 C.ar    1  UNL1        0.0012
      5 C           6.1956    2.0804   -0.0224 C.ar    1  UNL1        0.0733
      6 C           7.5603    2.3970    0.1756 C.1     1  UNL1        0.1008
      7 N           8.6800    2.6457    0.3338 N.1     1  UNL1       -0.1908
      8 C           5.1942    2.6153    0.7711 C.ar    1  UNL1        0.0460
      9 N           3.8909    2.3450    0.6236 N.ar    1  UNL1       -0.2455
     10 C           3.5263    1.4967   -0.3614 C.ar    1  UNL1        0.1672
     11 C           2.1207    1.1681   -0.5793 C.2     1  UNL1        0.2702
     12 O           1.8252    0.4247   -1.5437 O.2     1  UNL1       -0.2680
     13 N           1.0725    1.6355    0.2307 N.am    1  UNL1       -0.2801
     14 C          -0.2932    1.3425    0.0539 C.ar    1  UNL1        0.0342
     15 C          -1.0805    2.1629   -0.6962 C.ar    1  UNL1       -0.0377
     16 C          -2.4259    1.9185   -0.9069 C.ar    1  UNL1       -0.0243
     17 C          -2.9534    0.7848   -0.3143 C.ar    1  UNL1        0.1292
     18 F          -4.2763    0.5326   -0.5136 F       1  UNL1       -0.2051
     19 C          -2.1711   -0.0739    0.4592 C.ar    1  UNL1        0.0228
     20 C          -2.8486   -1.2771    1.0496 C.3     1  UNL1        0.1603
     21 C          -1.8650   -1.9810    1.9602 C.3     1  UNL1        0.2686
     22 F          -2.4262   -3.0972    2.5531 F       1  UNL1       -0.2062
     23 F          -1.5506   -1.1105    2.9815 F       1  UNL1       -0.2062
     24 N          -3.8882   -0.7575    1.8868 N.2     1  UNL1       -0.2194
     25 C          -5.1163   -1.0065    1.8135 C.2     1  UNL1        0.2764
     26 N          -6.0029   -0.3668    2.7698 N.pl3   1  UNL1       -0.3134
     27 O          -5.5972   -1.8555    0.8596 O.2     1  UNL1       -0.4622
     28 C          -4.8006   -2.3860   -0.1386 C.3     1  UNL1        0.1091
     29 C          -3.8605   -3.5086    0.1056 C.3     1  UNL1       -0.0064
     30 C          -3.3685   -2.1392   -0.0368 C.3     1  UNL1        0.0344
     31 C          -0.8495    0.1990    0.6450 C.ar    1  UNL1       -0.0321
     32 H           4.4230   -0.9710   -3.9247 H       1  UNL1        0.0660
     33 H           5.7295    0.1799   -3.4833 H       1  UNL1        0.0660
     34 H           5.5667   -1.4060   -2.6080 H       1  UNL1        0.0660
     35 H           6.5608    0.7566   -1.6918 H       1  UNL1        0.0668
     36 H           5.5057    3.2932    1.5558 H       1  UNL1        0.0843
     37 H           1.3262    2.2561    1.0374 H       1  UNL1        0.1552
     38 H          -0.6408    3.0556   -1.1553 H       1  UNL1        0.0637
     39 H          -3.0437    2.5748   -1.5042 H       1  UNL1        0.0647
     40 H          -0.9809   -2.2935    1.3572 H       1  UNL1        0.1047
     41 H          -6.7735   -0.8861    3.2086 H       1  UNL1        0.1466
     42 H          -5.8482    0.6233    3.0046 H       1  UNL1        0.1466
     43 H          -5.3282   -2.3733   -1.1447 H       1  UNL1        0.0737
     44 H          -3.7370   -4.2173   -0.7665 H       1  UNL1        0.0306
     45 H          -3.8212   -4.0443    1.0506 H       1  UNL1        0.0306
     46 H          -2.8105   -1.9554   -1.0220 H       1  UNL1        0.0366
     47 H          -0.2481   -0.4594    1.2399 H       1  UNL1        0.0640
@<TRIPOS>BOND
     1     1     2    1
     2     2     3    1
     3     3     4   ar
     4     4     5   ar
     5     5     6    1
     6     6     7    3
     7     5     8   ar
     8     8     9   ar
     9     9    10   ar
    10    10    11    1
    11    11    12    2
    12    11    13   am
    13    13    14    1
    14    14    15   ar
    15    15    16   ar
    16    16    17   ar
    17    17    18    1
    18    17    19   ar
    19    19    20    1
    20    20    21    1
    21    21    22    1
    22    21    23    1
    23    20    24    1
    24    24    25    2
    25    25    26    1
    26    25    27    1
    27    27    28    1
    28    28    29    1
    29    29    30    1
    30    19    31   ar
    31    10     3   ar
    32    31    14   ar
    33    30    20    1
    34    30    28    1
    35     1    32    1
    36     1    33    1
    37     1    34    1
    38     4    35    1
    39     8    36    1
    40    13    37    1
    41    15    38    1
    42    16    39    1
    43    21    40    1
    44    26    41    1
    45    26    42    1
    46    28    43    1
    47    29    44    1
    48    29    45    1
    49    30    46    1
    50    31    47    1
