@<TRIPOS>MOLECULE
*****
 43 45 0 0 0
SMALL
GASTEIGER

@<TRIPOS>ATOM
      1 C           3.9778    1.9382   -1.7991 C.3     1  UNL1       -0.0397
      2 C           3.6814    1.0658   -0.6338 C.ar    1  UNL1       -0.0502
      3 C           2.7029    0.0723   -0.6065 C.ar    1  UNL1       -0.0553
      4 C           2.4665   -0.7241    0.5233 C.ar    1  UNL1       -0.0413
      5 C           1.3868   -1.6712    0.2223 C.3     1  UNL1        0.0173
      6 C           0.0197   -1.1091    0.2955 C.ar    1  UNL1        0.0799
      7 N          -0.6473   -0.7209   -0.8172 N.ar    1  UNL1       -0.1728
      8 N          -1.8333   -0.2296   -0.5300 N.ar    1  UNL1       -0.2406
      9 C          -2.0401   -0.2564    0.7973 C.ar    1  UNL1        0.1640
     10 C          -0.8785   -0.8064    1.2931 C.ar    1  UNL1        0.0815
     11 C          -0.7254   -0.9982    2.6481 C.ar    1  UNL1        0.1305
     12 N           0.4532   -1.5750    3.1840 N.pl3   1  UNL1       -0.3425
     13 N          -1.6907   -0.6558    3.4901 N.ar    1  UNL1       -0.2204
     14 C          -2.8111   -0.1232    2.9991 C.ar    1  UNL1        0.1204
     15 N          -2.9960    0.0780    1.6836 N.ar    1  UNL1       -0.2161
     16 C          -2.8148    0.2798   -1.4732 C.3     1  UNL1        0.0575
     17 C          -3.4637    1.5525   -1.0272 C.3     1  UNL1       -0.0402
     18 C          -3.8384   -0.8253   -1.6890 C.3     1  UNL1       -0.0402
     19 C          -2.1845    0.5442   -2.8263 C.3     1  UNL1       -0.0402
     20 C           3.2592   -0.4643    1.5997 C.ar    1  UNL1       -0.0582
     21 C           4.2352    0.5018    1.6228 C.ar    1  UNL1       -0.0612
     22 C           4.4483    1.2678    0.5082 C.ar    1  UNL1       -0.0588
     23 H           3.6998    1.4917   -2.7614 H       1  UNL1        0.0278
     24 H           3.5378    2.9412   -1.6207 H       1  UNL1        0.0278
     25 H           5.1017    2.0330   -1.8421 H       1  UNL1        0.0278
     26 H           2.1896    0.0412   -1.5818 H       1  UNL1        0.0623
     27 H           1.5188   -2.1649   -0.7770 H       1  UNL1        0.0377
     28 H           1.4439   -2.5340    0.9434 H       1  UNL1        0.0377
     29 H           0.9646   -2.4816    3.2843 H       1  UNL1        0.1437
     30 H           0.9827   -2.4566    3.2993 H       1  UNL1        0.1437
     31 H          -3.6887    0.2071    3.5583 H       1  UNL1        0.1048
     32 H          -4.5274    1.5479   -1.3470 H       1  UNL1        0.0253
     33 H          -3.0044    2.4366   -1.5523 H       1  UNL1        0.0253
     34 H          -3.4571    1.7372    0.0453 H       1  UNL1        0.0253
     35 H          -4.8300   -0.4222   -2.0062 H       1  UNL1        0.0253
     36 H          -3.4436   -1.5291   -2.4300 H       1  UNL1        0.0253
     37 H          -4.0160   -1.3705   -0.7347 H       1  UNL1        0.0253
     38 H          -1.6346   -0.3181   -3.2136 H       1  UNL1        0.0253
     39 H          -1.5522    1.4730   -2.7956 H       1  UNL1        0.0253
     40 H          -3.0195    0.7709   -3.5221 H       1  UNL1        0.0253
     41 H           3.0335   -1.1150    2.4277 H       1  UNL1        0.0620
     42 H           4.7605    0.5625    2.5618 H       1  UNL1        0.0618
     43 H           5.2331    2.0089    0.5993 H       1  UNL1        0.0620
@<TRIPOS>BOND
     1     1     2    1
     2     2     3   ar
     3     3     4   ar
     4     4     5    1
     5     5     6    1
     6     6     7   ar
     7     7     8   ar
     8     8     9   ar
     9     9    10   ar
    10    10    11   ar
    11    11    12    1
    12    11    13   ar
    13    13    14   ar
    14    14    15   ar
    15     8    16    1
    16    16    17    1
    17    16    18    1
    18    16    19    1
    19     4    20   ar
    20    20    21   ar
    21    21    22   ar
    22    22     2   ar
    23    10     6   ar
    24    15     9   ar
    25     1    23    1
    26     1    24    1
    27     1    25    1
    28     3    26    1
    29     5    27    1
    30     5    28    1
    31    12    29    1
    32    12    30    1
    33    14    31    1
    34    17    32    1
    35    17    33    1
    36    17    34    1
    37    18    35    1
    38    18    36    1
    39    18    37    1
    40    19    38    1
    41    19    39    1
    42    19    40    1
    43    20    41    1
    44    21    42    1
    45    22    43    1
