@<TRIPOS>MOLECULE
*****
 81 85 0 0 0
SMALL
GASTEIGER

@<TRIPOS>ATOM
      1 C          -5.4627    2.1449    1.7482 C.3     1  UNL1       -0.0598
      2 C          -4.5463    0.9287    1.5122 C.3     1  UNL1       -0.0343
      3 C          -4.4379    0.2882    2.9014 C.3     1  UNL1       -0.0598
      4 C          -5.3361   -0.0300    0.6780 C.3     1  UNL1       -0.0468
      5 C          -5.1064    0.0907   -0.7877 C.3     1  UNL1       -0.0362
      6 C          -3.6770   -0.0822   -1.1121 C.3     1  UNL1        0.0741
      7 C          -3.5404    0.1928   -2.5952 C.2     1  UNL1        0.3115
      8 O          -3.1105   -0.6504   -3.4123 O.2     1  UNL1       -0.2504
      9 O          -3.9031    1.4347   -3.1014 O.3     1  UNL1       -0.4802
     10 C          -3.2251   -1.4859   -0.9289 C.3     1  UNL1       -0.0359
     11 C          -1.7675   -1.7491   -1.1273 C.3     1  UNL1       -0.0424
     12 C          -0.9038   -0.7174   -0.3721 C.3     1  UNL1       -0.0051
     13 C          -1.1422   -1.1755    1.0560 C.3     1  UNL1       -0.0553
     14 C          -1.4696    0.6093   -0.6635 C.2     1  UNL1       -0.0629
     15 C          -0.7240    1.5433   -1.1907 C.2     1  UNL1       -0.0836
     16 C           0.7085    1.4029   -1.5478 C.3     1  UNL1       -0.0306
     17 C           1.2274    0.4324   -0.5087 C.3     1  UNL1       -0.0257
     18 C           2.7084    0.4964   -0.3948 C.3     1  UNL1       -0.0250
     19 C           3.4332    0.6385   -1.7012 C.3     1  UNL1       -0.0590
     20 C           3.0078    1.8022    0.3740 C.3     1  UNL1       -0.0447
     21 C           4.4292    1.9036    0.8044 C.3     1  UNL1       -0.0258
     22 C           5.0232    0.7016    1.4311 C.3     1  UNL1        0.0606
     23 O           6.4232    0.8023    1.3675 O.3     1  UNL1       -0.3912
     24 C           4.6291   -0.6064    0.8359 C.3     1  UNL1       -0.0056
     25 C           5.5542   -1.0654   -0.2600 C.3     1  UNL1       -0.0572
     26 C           4.7774   -1.6489    1.9620 C.3     1  UNL1       -0.0572
     27 C           3.1942   -0.5888    0.4864 C.3     1  UNL1       -0.0278
     28 C           2.6978   -1.9452    0.0305 C.3     1  UNL1       -0.0486
     29 C           1.2000   -1.8912    0.1797 C.3     1  UNL1       -0.0463
     30 C           0.5516   -0.8682   -0.7403 C.3     1  UNL1       -0.0194
     31 C           0.7265   -1.4112   -2.1443 C.3     1  UNL1       -0.0585
     32 C          -2.8795    0.9794   -0.4093 C.3     1  UNL1       -0.0031
     33 C          -3.2188    1.3139    0.9830 C.3     1  UNL1       -0.0403
     34 H          -5.1568    2.9278    1.0242 H       1  UNL1        0.0235
     35 H          -6.5197    1.8593    1.6411 H       1  UNL1        0.0235
     36 H          -5.3127    2.5463    2.7785 H       1  UNL1        0.0235
     37 H          -5.3531   -0.3216    3.0817 H       1  UNL1        0.0235
     38 H          -3.5509   -0.3352    2.9877 H       1  UNL1        0.0235
     39 H          -4.4781    1.0930    3.6920 H       1  UNL1        0.0235
     40 H          -6.4449    0.1308    0.8389 H       1  UNL1        0.0271
     41 H          -5.1682   -1.0827    0.9971 H       1  UNL1        0.0271
     42 H          -5.4048    1.1388   -1.0837 H       1  UNL1        0.0276
     43 H          -5.7991   -0.5736   -1.3158 H       1  UNL1        0.0276
     44 H          -3.5090    1.7210   -3.9853 H       1  UNL1        0.2951
     45 H          -3.7287   -2.0617   -1.7747 H       1  UNL1        0.0276
     46 H          -3.6691   -2.0019   -0.0322 H       1  UNL1        0.0276
     47 H          -1.6289   -2.7726   -0.6868 H       1  UNL1        0.0274
     48 H          -1.4884   -1.8336   -2.1778 H       1  UNL1        0.0274
     49 H          -2.2511   -1.3130    1.2252 H       1  UNL1        0.0238
     50 H          -0.7861   -2.2296    1.0867 H       1  UNL1        0.0238
     51 H          -0.6536   -0.6073    1.8190 H       1  UNL1        0.0238
     52 H          -1.1417    2.5297   -1.4069 H       1  UNL1        0.0572
     53 H           0.7334    1.0257   -2.5720 H       1  UNL1        0.0310
     54 H           1.2513    2.3625   -1.5435 H       1  UNL1        0.0310
     55 H           0.8413    0.7857    0.4987 H       1  UNL1        0.0315
     56 H           3.8693   -0.3008   -2.0893 H       1  UNL1        0.0235
     57 H           4.2909    1.3546   -1.5919 H       1  UNL1        0.0235
     58 H           2.7453    1.1421   -2.4111 H       1  UNL1        0.0235
     59 H           2.3264    1.9210    1.2286 H       1  UNL1        0.0271
     60 H           2.8238    2.6874   -0.2896 H       1  UNL1        0.0271
     61 H           5.1230    2.2808    0.0165 H       1  UNL1        0.0290
     62 H           4.4507    2.7217    1.5864 H       1  UNL1        0.0290
     63 H           4.7872    0.7034    2.5323 H       1  UNL1        0.0599
     64 H           6.6640    1.2236    0.5058 H       1  UNL1        0.2098
     65 H           5.1292   -1.8990   -0.8242 H       1  UNL1        0.0236
     66 H           6.4795   -1.4872    0.2392 H       1  UNL1        0.0236
     67 H           5.9421   -0.2342   -0.8853 H       1  UNL1        0.0236
     68 H           5.6513   -1.3830    2.5848 H       1  UNL1        0.0236
     69 H           4.9659   -2.6302    1.4871 H       1  UNL1        0.0236
     70 H           3.8326   -1.6950    2.5511 H       1  UNL1        0.0236
     71 H           2.6482   -0.4338    1.4720 H       1  UNL1        0.0312
     72 H           3.0467   -2.6683    0.7987 H       1  UNL1        0.0268
     73 H           3.0692   -2.2800   -0.9202 H       1  UNL1        0.0268
     74 H           1.0751   -1.4795    1.2275 H       1  UNL1        0.0271
     75 H           0.8351   -2.9015    0.0528 H       1  UNL1        0.0271
     76 H           1.7871   -1.3916   -2.4662 H       1  UNL1        0.0235
     77 H           0.1530   -0.8894   -2.9089 H       1  UNL1        0.0235
     78 H           0.4436   -2.4833   -2.2178 H       1  UNL1        0.0235
     79 H          -3.1779    1.9054   -1.0030 H       1  UNL1        0.0357
     80 H          -3.1445    2.4415    1.1371 H       1  UNL1        0.0276
     81 H          -2.4389    0.9977    1.7429 H       1  UNL1        0.0276
@<TRIPOS>BOND
     1     1     2    1
     2     2     3    1
     3     2     4    1
     4     4     5    1
     5     5     6    1
     6     6     7    1
     7     7     8    2
     8     7     9    1
     9     6    10    1
    10    10    11    1
    11    11    12    1
    12    12    13    1
    13    12    14    1
    14    14    15    2
    15    15    16    1
    16    16    17    1
    17    17    18    1
    18    18    19    1
    19    18    20    1
    20    20    21    1
    21    21    22    1
    22    22    23    1
    23    22    24    1
    24    24    25    1
    25    24    26    1
    26    24    27    1
    27    27    28    1
    28    28    29    1
    29    29    30    1
    30    30    31    1
    31    14    32    1
    32    32    33    1
    33    33     2    1
    34    32     6    1
    35    30    12    1
    36    30    17    1
    37    27    18    1
    38     1    34    1
    39     1    35    1
    40     1    36    1
    41     3    37    1
    42     3    38    1
    43     3    39    1
    44     4    40    1
    45     4    41    1
    46     5    42    1
    47     5    43    1
    48     9    44    1
    49    10    45    1
    50    10    46    1
    51    11    47    1
    52    11    48    1
    53    13    49    1
    54    13    50    1
    55    13    51    1
    56    15    52    1
    57    16    53    1
    58    16    54    1
    59    17    55    1
    60    19    56    1
    61    19    57    1
    62    19    58    1
    63    20    59    1
    64    20    60    1
    65    21    61    1
    66    21    62    1
    67    22    63    1
    68    23    64    1
    69    25    65    1
    70    25    66    1
    71    25    67    1
    72    26    68    1
    73    26    69    1
    74    26    70    1
    75    27    71    1
    76    28    72    1
    77    28    73    1
    78    29    74    1
    79    29    75    1
    80    31    76    1
    81    31    77    1
    82    31    78    1
    83    32    79    1
    84    33    80    1
    85    33    81    1
