
     RDKit          3D

 81 85  0  0  0  0  0  0  0  0999 V2000
   -5.4627    2.1449    1.7482 C   0  0  0  0  0  0  0  0  0  0  0  0
   -4.5463    0.9287    1.5122 C   0  0  0  0  0  0  0  0  0  0  0  0
   -4.4379    0.2882    2.9014 C   0  0  0  0  0  0  0  0  0  0  0  0
   -5.3361   -0.0300    0.6780 C   0  0  0  0  0  0  0  0  0  0  0  0
   -5.1064    0.0907   -0.7877 C   0  0  0  0  0  0  0  0  0  0  0  0
   -3.6770   -0.0822   -1.1121 C   0  0  2  0  0  0  0  0  0  0  0  0
   -3.5404    0.1928   -2.5952 C   0  0  0  0  0  0  0  0  0  0  0  0
   -3.1105   -0.6504   -3.4123 O   0  0  0  0  0  0  0  0  0  0  0  0
   -3.9031    1.4347   -3.1014 O   0  0  0  0  0  0  0  0  0  0  0  0
   -3.2251   -1.4859   -0.9289 C   0  0  0  0  0  0  0  0  0  0  0  0
   -1.7675   -1.7491   -1.1273 C   0  0  0  0  0  0  0  0  0  0  0  0
   -0.9038   -0.7174   -0.3721 C   0  0  2  0  0  0  0  0  0  0  0  0
   -1.1422   -1.1755    1.0560 C   0  0  0  0  0  0  0  0  0  0  0  0
   -1.4696    0.6093   -0.6635 C   0  0  0  0  0  0  0  0  0  0  0  0
   -0.7240    1.5433   -1.1907 C   0  0  0  0  0  0  0  0  0  0  0  0
    0.7085    1.4029   -1.5478 C   0  0  0  0  0  0  0  0  0  0  0  0
    1.2274    0.4324   -0.5087 C   0  0  2  0  0  0  0  0  0  0  0  0
    2.7084    0.4964   -0.3948 C   0  0  1  0  0  0  0  0  0  0  0  0
    3.4332    0.6385   -1.7012 C   0  0  0  0  0  0  0  0  0  0  0  0
    3.0078    1.8022    0.3740 C   0  0  0  0  0  0  0  0  0  0  0  0
    4.4292    1.9036    0.8044 C   0  0  0  0  0  0  0  0  0  0  0  0
    5.0232    0.7016    1.4311 C   0  0  2  0  0  0  0  0  0  0  0  0
    6.4232    0.8023    1.3675 O   0  0  0  0  0  0  0  0  0  0  0  0
    4.6291   -0.6064    0.8359 C   0  0  0  0  0  0  0  0  0  0  0  0
    5.5542   -1.0654   -0.2600 C   0  0  0  0  0  0  0  0  0  0  0  0
    4.7774   -1.6489    1.9620 C   0  0  0  0  0  0  0  0  0  0  0  0
    3.1942   -0.5888    0.4864 C   0  0  2  0  0  0  0  0  0  0  0  0
    2.6978   -1.9452    0.0305 C   0  0  0  0  0  0  0  0  0  0  0  0
    1.2000   -1.8912    0.1797 C   0  0  0  0  0  0  0  0  0  0  0  0
    0.5516   -0.8682   -0.7403 C   0  0  1  0  0  0  0  0  0  0  0  0
    0.7265   -1.4112   -2.1443 C   0  0  0  0  0  0  0  0  0  0  0  0
   -2.8795    0.9794   -0.4093 C   0  0  2  0  0  0  0  0  0  0  0  0
   -3.2188    1.3139    0.9830 C   0  0  0  0  0  0  0  0  0  0  0  0
   -5.1568    2.9278    1.0242 H   0  0  0  0  0  0  0  0  0  0  0  0
   -6.5197    1.8593    1.6411 H   0  0  0  0  0  0  0  0  0  0  0  0
   -5.3127    2.5463    2.7785 H   0  0  0  0  0  0  0  0  0  0  0  0
   -5.3531   -0.3216    3.0817 H   0  0  0  0  0  0  0  0  0  0  0  0
   -3.5509   -0.3352    2.9877 H   0  0  0  0  0  0  0  0  0  0  0  0
   -4.4781    1.0930    3.6920 H   0  0  0  0  0  0  0  0  0  0  0  0
   -6.4449    0.1308    0.8389 H   0  0  0  0  0  0  0  0  0  0  0  0
   -5.1682   -1.0827    0.9971 H   0  0  0  0  0  0  0  0  0  0  0  0
   -5.4048    1.1388   -1.0837 H   0  0  0  0  0  0  0  0  0  0  0  0
   -5.7991   -0.5736   -1.3158 H   0  0  0  0  0  0  0  0  0  0  0  0
   -3.5090    1.7210   -3.9853 H   0  0  0  0  0  0  0  0  0  0  0  0
   -3.7287   -2.0617   -1.7747 H   0  0  0  0  0  0  0  0  0  0  0  0
   -3.6691   -2.0019   -0.0322 H   0  0  0  0  0  0  0  0  0  0  0  0
   -1.6289   -2.7726   -0.6868 H   0  0  0  0  0  0  0  0  0  0  0  0
   -1.4884   -1.8336   -2.1778 H   0  0  0  0  0  0  0  0  0  0  0  0
   -2.2511   -1.3130    1.2252 H   0  0  0  0  0  0  0  0  0  0  0  0
   -0.7861   -2.2296    1.0867 H   0  0  0  0  0  0  0  0  0  0  0  0
   -0.6536   -0.6073    1.8190 H   0  0  0  0  0  0  0  0  0  0  0  0
   -1.1417    2.5297   -1.4069 H   0  0  0  0  0  0  0  0  0  0  0  0
    0.7334    1.0257   -2.5720 H   0  0  0  0  0  0  0  0  0  0  0  0
    1.2513    2.3625   -1.5435 H   0  0  0  0  0  0  0  0  0  0  0  0
    0.8413    0.7857    0.4987 H   0  0  0  0  0  0  0  0  0  0  0  0
    3.8693   -0.3008   -2.0893 H   0  0  0  0  0  0  0  0  0  0  0  0
    4.2909    1.3546   -1.5919 H   0  0  0  0  0  0  0  0  0  0  0  0
    2.7453    1.1421   -2.4111 H   0  0  0  0  0  0  0  0  0  0  0  0
    2.3264    1.9210    1.2286 H   0  0  0  0  0  0  0  0  0  0  0  0
    2.8238    2.6874   -0.2896 H   0  0  0  0  0  0  0  0  0  0  0  0
    5.1230    2.2808    0.0165 H   0  0  0  0  0  0  0  0  0  0  0  0
    4.4507    2.7217    1.5864 H   0  0  0  0  0  0  0  0  0  0  0  0
    4.7872    0.7034    2.5323 H   0  0  0  0  0  0  0  0  0  0  0  0
    6.6640    1.2236    0.5058 H   0  0  0  0  0  0  0  0  0  0  0  0
    5.1292   -1.8990   -0.8242 H   0  0  0  0  0  0  0  0  0  0  0  0
    6.4795   -1.4872    0.2392 H   0  0  0  0  0  0  0  0  0  0  0  0
    5.9421   -0.2342   -0.8853 H   0  0  0  0  0  0  0  0  0  0  0  0
    5.6513   -1.3830    2.5848 H   0  0  0  0  0  0  0  0  0  0  0  0
    4.9659   -2.6302    1.4871 H   0  0  0  0  0  0  0  0  0  0  0  0
    3.8326   -1.6950    2.5511 H   0  0  0  0  0  0  0  0  0  0  0  0
    2.6482   -0.4338    1.4720 H   0  0  0  0  0  0  0  0  0  0  0  0
    3.0467   -2.6683    0.7987 H   0  0  0  0  0  0  0  0  0  0  0  0
    3.0692   -2.2800   -0.9202 H   0  0  0  0  0  0  0  0  0  0  0  0
    1.0751   -1.4795    1.2275 H   0  0  0  0  0  0  0  0  0  0  0  0
    0.8351   -2.9015    0.0528 H   0  0  0  0  0  0  0  0  0  0  0  0
    1.7871   -1.3916   -2.4662 H   0  0  0  0  0  0  0  0  0  0  0  0
    0.1530   -0.8894   -2.9089 H   0  0  0  0  0  0  0  0  0  0  0  0
    0.4436   -2.4833   -2.2178 H   0  0  0  0  0  0  0  0  0  0  0  0
   -3.1779    1.9054   -1.0030 H   0  0  0  0  0  0  0  0  0  0  0  0
   -3.1445    2.4415    1.1371 H   0  0  0  0  0  0  0  0  0  0  0  0
   -2.4389    0.9977    1.7429 H   0  0  0  0  0  0  0  0  0  0  0  0
  1  2  1  0
  2  3  1  0
  2  4  1  0
  4  5  1  0
  5  6  1  0
  6  7  1  6
  7  8  2  0
  7  9  1  0
  6 10  1  0
 10 11  1  0
 11 12  1  0
 12 13  1  1
 12 14  1  0
 14 15  2  0
 15 16  1  0
 16 17  1  0
 17 18  1  0
 18 19  1  6
 18 20  1  0
 20 21  1  0
 21 22  1  0
 22 23  1  0
 22 24  1  0
 24 25  1  0
 24 26  1  0
 24 27  1  0
 27 28  1  0
 28 29  1  0
 29 30  1  0
 30 31  1  6
 14 32  1  0
 32 33  1  0
 33  2  1  0
 32  6  1  0
 30 12  1  0
 30 17  1  0
 27 18  1  0
  1 34  1  0
  1 35  1  0
  1 36  1  0
  3 37  1  0
  3 38  1  0
  3 39  1  0
  4 40  1  0
  4 41  1  0
  5 42  1  0
  5 43  1  0
  9 44  1  0
 10 45  1  0
 10 46  1  0
 11 47  1  0
 11 48  1  0
 13 49  1  0
 13 50  1  0
 13 51  1  0
 15 52  1  0
 16 53  1  0
 16 54  1  0
 17 55  1  1
 19 56  1  0
 19 57  1  0
 19 58  1  0
 20 59  1  0
 20 60  1  0
 21 61  1  0
 21 62  1  0
 22 63  1  1
 23 64  1  0
 25 65  1  0
 25 66  1  0
 25 67  1  0
 26 68  1  0
 26 69  1  0
 26 70  1  0
 27 71  1  1
 28 72  1  0
 28 73  1  0
 29 74  1  0
 29 75  1  0
 31 76  1  0
 31 77  1  0
 31 78  1  0
 32 79  1  6
 33 80  1  0
 33 81  1  0
M  END
$$$$
