
     RDKit          3D

 53 57  0  0  0  0  0  0  0  0999 V2000
   -2.2506   -3.2725   -1.0975 C   0  0  0  0  0  0  0  0  0  0  0  0
   -2.1216   -2.7181    0.2839 C   0  0  2  0  0  0  0  0  0  0  0  0
   -3.2065   -3.1890    1.2227 C   0  0  0  0  0  0  0  0  0  0  0  0
   -4.4072   -2.5562    1.0758 O   0  0  0  0  0  0  0  0  0  0  0  0
   -4.3866   -1.4375    0.2870 C   0  0  0  0  0  0  0  0  0  0  0  0
   -3.2120   -0.5366    0.6029 C   0  0  0  0  0  0  0  0  0  0  0  0
   -2.0083   -1.2772    0.3269 N   0  0  0  0  0  0  0  0  0  0  0  0
   -0.7819   -0.6065    0.1139 C   0  0  0  0  0  0  0  0  0  0  0  0
    0.3752   -1.2636   -0.2578 C   0  0  0  0  0  0  0  0  0  0  0  0
    1.5594   -0.5854   -0.4556 C   0  0  0  0  0  0  0  0  0  0  0  0
    2.8173   -1.2876   -0.8576 C   0  0  0  0  0  0  0  0  0  0  0  0
    3.5486   -2.3460    0.3590 S   0  0  0  0  0  6  0  0  0  0  0  0
    5.0177   -3.0740   -0.3153 C   0  0  0  0  0  0  0  0  0  0  0  0
    2.5915   -3.3744    0.8239 O   0  0  0  0  0  0  0  0  0  0  0  0
    3.9395   -1.4807    1.5324 O   0  0  0  0  0  0  0  0  0  0  0  0
    3.0971   -1.4470   -2.2898 C   0  0  0  0  0  0  0  0  0  0  0  0
    3.8433   -0.3883   -1.5968 C   0  0  0  0  0  0  0  0  0  0  0  0
    1.5153    0.7439   -0.2651 N   0  0  0  0  0  0  0  0  0  0  0  0
    0.3892    1.4096    0.1003 C   0  0  0  0  0  0  0  0  0  0  0  0
    0.4178    2.8663    0.2880 C   0  0  0  0  0  0  0  0  0  0  0  0
    1.6225    3.5533    0.0605 C   0  0  0  0  0  0  0  0  0  0  0  0
    1.6631    4.8900    0.2307 C   0  0  0  0  0  0  0  0  0  0  0  0
    0.5549    5.5769    0.6186 C   0  0  0  0  0  0  0  0  0  0  0  0
   -0.6396    4.9028    0.8453 C   0  0  0  0  0  0  0  0  0  0  0  0
   -1.8473    5.3421    1.2275 N   0  0  0  0  0  0  0  0  0  0  0  0
   -2.7226    4.3339    1.3250 C   0  0  0  0  0  0  0  0  0  0  0  0
   -1.9947    3.1938    0.9761 C   0  0  0  0  0  0  0  0  0  0  0  0
   -0.7014    3.5335    0.6763 C   0  0  0  0  0  0  0  0  0  0  0  0
   -0.7331    0.7432    0.2845 N   0  0  0  0  0  0  0  0  0  0  0  0
   -2.2240   -2.4355   -1.8560 H   0  0  0  0  0  0  0  0  0  0  0  0
   -3.1909   -3.8481   -1.2527 H   0  0  0  0  0  0  0  0  0  0  0  0
   -1.4186   -3.9486   -1.3925 H   0  0  0  0  0  0  0  0  0  0  0  0
   -1.1655   -3.1221    0.7230 H   0  0  0  0  0  0  0  0  0  0  0  0
   -2.8341   -2.9893    2.2634 H   0  0  0  0  0  0  0  0  0  0  0  0
   -3.3259   -4.2835    1.1395 H   0  0  0  0  0  0  0  0  0  0  0  0
   -4.3462   -1.6690   -0.7970 H   0  0  0  0  0  0  0  0  0  0  0  0
   -5.3265   -0.8730    0.4545 H   0  0  0  0  0  0  0  0  0  0  0  0
   -3.2405   -0.1431    1.6288 H   0  0  0  0  0  0  0  0  0  0  0  0
   -3.2512    0.2778   -0.1718 H   0  0  0  0  0  0  0  0  0  0  0  0
    0.3272   -2.3276   -0.3913 H   0  0  0  0  0  0  0  0  0  0  0  0
    5.9292   -2.7872    0.2728 H   0  0  0  0  0  0  0  0  0  0  0  0
    5.2060   -2.7404   -1.3459 H   0  0  0  0  0  0  0  0  0  0  0  0
    4.9859   -4.1794   -0.3087 H   0  0  0  0  0  0  0  0  0  0  0  0
    2.3118   -1.0974   -3.0088 H   0  0  0  0  0  0  0  0  0  0  0  0
    3.6998   -2.2873   -2.6914 H   0  0  0  0  0  0  0  0  0  0  0  0
    3.5292    0.6859   -1.7390 H   0  0  0  0  0  0  0  0  0  0  0  0
    4.8944   -0.4680   -1.2973 H   0  0  0  0  0  0  0  0  0  0  0  0
    2.4613    2.9437   -0.2453 H   0  0  0  0  0  0  0  0  0  0  0  0
    2.6099    5.4108    0.0493 H   0  0  0  0  0  0  0  0  0  0  0  0
    0.6217    6.6459    0.7455 H   0  0  0  0  0  0  0  0  0  0  0  0
   -2.0303    6.3719    1.4158 H   0  0  0  0  0  0  0  0  0  0  0  0
   -3.7595    4.4081    1.6122 H   0  0  0  0  0  0  0  0  0  0  0  0
   -2.4022    2.2070    0.9525 H   0  0  0  0  0  0  0  0  0  0  0  0
  1  2  1  0
  2  3  1  0
  3  4  1  0
  4  5  1  0
  5  6  1  0
  6  7  1  0
  7  8  1  0
  8  9  2  0
  9 10  1  0
 10 11  1  0
 11 12  1  0
 12 13  1  0
 12 14  2  0
 12 15  2  0
 11 16  1  0
 16 17  1  0
 10 18  2  0
 18 19  1  0
 19 20  1  0
 20 21  2  0
 21 22  1  0
 22 23  2  0
 23 24  1  0
 24 25  1  0
 25 26  1  0
 26 27  2  0
 27 28  1  0
 19 29  2  0
  7  2  1  0
 29  8  1  0
 17 11  1  0
 28 20  1  0
 28 24  2  0
  1 30  1  0
  1 31  1  0
  1 32  1  0
  2 33  1  1
  3 34  1  0
  3 35  1  0
  5 36  1  0
  5 37  1  0
  6 38  1  0
  6 39  1  0
  9 40  1  0
 13 41  1  0
 13 42  1  0
 13 43  1  0
 16 44  1  0
 16 45  1  0
 17 46  1  0
 17 47  1  0
 21 48  1  0
 22 49  1  0
 23 50  1  0
 25 51  1  0
 26 52  1  0
 27 53  1  0
M  END
$$$$
