@<TRIPOS>MOLECULE
*****
 53 57 0 0 0
SMALL
GASTEIGER

@<TRIPOS>ATOM
      1 C          -2.2506   -3.2725   -1.0975 C.3     1  UNL1       -0.0443
      2 C          -2.1216   -2.7181    0.2839 C.3     1  UNL1        0.0454
      3 C          -3.2065   -3.1890    1.2227 C.3     1  UNL1        0.0660
      4 O          -4.4072   -2.5562    1.0758 O.3     1  UNL1       -0.3764
      5 C          -4.3866   -1.4375    0.2870 C.3     1  UNL1        0.0634
      6 C          -3.2120   -0.5366    0.6029 C.3     1  UNL1        0.0373
      7 N          -2.0083   -1.2772    0.3269 N.pl3   1  UNL1       -0.3079
      8 C          -0.7819   -0.6065    0.1139 C.ar    1  UNL1        0.1258
      9 C           0.3752   -1.2636   -0.2578 C.ar    1  UNL1        0.0019
     10 C           1.5594   -0.5854   -0.4556 C.ar    1  UNL1        0.0740
     11 C           2.8173   -1.2876   -0.8576 C.3     1  UNL1        0.1293
     12 S           3.5486   -2.3460    0.3590 S.O2    1  UNL1       -0.0227
     13 C           5.0177   -3.0740   -0.3153 C.3     1  UNL1        0.0555
     14 O           2.5915   -3.3744    0.8239 O.2     1  UNL1       -0.1737
     15 O           3.9395   -1.4807    1.5324 O.2     1  UNL1       -0.1737
     16 C           3.0971   -1.4470   -2.2898 C.3     1  UNL1       -0.0199
     17 C           3.8433   -0.3883   -1.5968 C.3     1  UNL1       -0.0199
     18 N           1.5153    0.7439   -0.2651 N.ar    1  UNL1       -0.2299
     19 C           0.3892    1.4096    0.1003 C.ar    1  UNL1        0.1627
     20 C           0.4178    2.8663    0.2880 C.ar    1  UNL1        0.0283
     21 C           1.6225    3.5533    0.0605 C.ar    1  UNL1       -0.0504
     22 C           1.6631    4.8900    0.2307 C.ar    1  UNL1       -0.0591
     23 C           0.5549    5.5769    0.6186 C.ar    1  UNL1       -0.0378
     24 C          -0.6396    4.9028    0.8453 C.ar    1  UNL1        0.0471
     25 N          -1.8473    5.3421    1.2275 N.ar    1  UNL1       -0.3606
     26 C          -2.7226    4.3339    1.3250 C.ar    1  UNL1        0.0028
     27 C          -1.9947    3.1938    0.9761 C.ar    1  UNL1       -0.0360
     28 C          -0.7014    3.5335    0.6763 C.ar    1  UNL1        0.0103
     29 N          -0.7331    0.7432    0.2845 N.ar    1  UNL1       -0.2126
     30 H          -2.2240   -2.4355   -1.8560 H       1  UNL1        0.0248
     31 H          -3.1909   -3.8481   -1.2527 H       1  UNL1        0.0248
     32 H          -1.4186   -3.9486   -1.3925 H       1  UNL1        0.0248
     33 H          -1.1655   -3.1221    0.7230 H       1  UNL1        0.0520
     34 H          -2.8341   -2.9893    2.2634 H       1  UNL1        0.0578
     35 H          -3.3259   -4.2835    1.1395 H       1  UNL1        0.0578
     36 H          -4.3462   -1.6690   -0.7970 H       1  UNL1        0.0575
     37 H          -5.3265   -0.8730    0.4545 H       1  UNL1        0.0575
     38 H          -3.2405   -0.1431    1.6288 H       1  UNL1        0.0487
     39 H          -3.2512    0.2778   -0.1718 H       1  UNL1        0.0487
     40 H           0.3272   -2.3276   -0.3913 H       1  UNL1        0.0671
     41 H           5.9292   -2.7872    0.2728 H       1  UNL1        0.0464
     42 H           5.2060   -2.7404   -1.3459 H       1  UNL1        0.0464
     43 H           4.9859   -4.1794   -0.3087 H       1  UNL1        0.0464
     44 H           2.3118   -1.0974   -3.0088 H       1  UNL1        0.0291
     45 H           3.6998   -2.2873   -2.6914 H       1  UNL1        0.0291
     46 H           3.5292    0.6859   -1.7390 H       1  UNL1        0.0291
     47 H           4.8944   -0.4680   -1.2973 H       1  UNL1        0.0291
     48 H           2.4613    2.9437   -0.2453 H       1  UNL1        0.0625
     49 H           2.6099    5.4108    0.0493 H       1  UNL1        0.0618
     50 H           0.6217    6.6459    0.7455 H       1  UNL1        0.0638
     51 H          -2.0303    6.3719    1.4158 H       1  UNL1        0.1653
     52 H          -3.7595    4.4081    1.6122 H       1  UNL1        0.0807
     53 H          -2.4022    2.2070    0.9525 H       1  UNL1        0.0639
@<TRIPOS>BOND
     1     1     2    1
     2     2     3    1
     3     3     4    1
     4     4     5    1
     5     5     6    1
     6     6     7    1
     7     7     8    1
     8     8     9   ar
     9     9    10   ar
    10    10    11    1
    11    11    12    1
    12    12    13    1
    13    12    14    2
    14    12    15    2
    15    11    16    1
    16    16    17    1
    17    10    18   ar
    18    18    19   ar
    19    19    20    1
    20    20    21   ar
    21    21    22   ar
    22    22    23   ar
    23    23    24   ar
    24    24    25   ar
    25    25    26   ar
    26    26    27   ar
    27    27    28   ar
    28    19    29   ar
    29     7     2    1
    30    29     8   ar
    31    17    11    1
    32    28    20   ar
    33    28    24   ar
    34     1    30    1
    35     1    31    1
    36     1    32    1
    37     2    33    1
    38     3    34    1
    39     3    35    1
    40     5    36    1
    41     5    37    1
    42     6    38    1
    43     6    39    1
    44     9    40    1
    45    13    41    1
    46    13    42    1
    47    13    43    1
    48    16    44    1
    49    16    45    1
    50    17    46    1
    51    17    47    1
    52    21    48    1
    53    22    49    1
    54    23    50    1
    55    25    51    1
    56    26    52    1
    57    27    53    1
