@<TRIPOS>MOLECULE
*****
 49 51 0 0 0
SMALL
GASTEIGER

@<TRIPOS>ATOM
      1 O           3.1813    0.7526    1.1328 O.2     1  UNL1       -0.2921
      2 C           3.7557    0.7040    0.0424 C.2     1  UNL1        0.1632
      3 C           3.0491    0.9101   -1.2272 C.3     1  UNL1        0.0116
      4 C           1.5719    1.0980   -1.1095 C.3     1  UNL1       -0.0332
      5 C           0.9193   -0.1050   -0.5345 C.3     1  UNL1       -0.0007
      6 N          -0.4827   -0.0366   -0.4056 N.3     1  UNL1       -0.3021
      7 C          -1.0656    0.8396    0.5121 C.3     1  UNL1        0.0018
      8 C          -2.5868    0.8726    0.4393 C.3     1  UNL1       -0.0070
      9 C          -3.1723   -0.5174    0.5556 C.3     1  UNL1        0.0933
     10 O          -3.2176   -0.7551    1.9628 O.3     1  UNL1       -0.3839
     11 C          -4.5494   -0.4921    0.1240 C.ar    1  UNL1       -0.0160
     12 C          -5.1606    0.6919   -0.1963 C.ar    1  UNL1       -0.0545
     13 C          -6.4926    0.7521   -0.6298 C.ar    1  UNL1       -0.0430
     14 C          -7.2306   -0.3849   -0.7475 C.ar    1  UNL1        0.0410
     15 CL         -8.9059   -0.3034   -1.2926 Cl      1  UNL1       -0.0835
     16 C          -6.6465   -1.5885   -0.4337 C.ar    1  UNL1       -0.0430
     17 C          -5.3422   -1.6378   -0.0097 C.ar    1  UNL1       -0.0545
     18 C          -2.2867   -1.5511   -0.0112 C.3     1  UNL1       -0.0070
     19 C          -1.2723   -1.0367   -1.0131 C.3     1  UNL1        0.0018
     20 C           5.1913    0.4320    0.0088 C.ar    1  UNL1        0.0176
     21 C           5.8947    0.3578   -1.1833 C.ar    1  UNL1       -0.0486
     22 C           7.2474    0.1045   -1.2063 C.ar    1  UNL1       -0.0258
     23 C           7.9672   -0.0867   -0.0489 C.ar    1  UNL1        0.1234
     24 F           9.3101   -0.3371   -0.0726 F       1  UNL1       -0.2055
     25 C           7.2764   -0.0143    1.1449 C.ar    1  UNL1       -0.0258
     26 C           5.9119    0.2409    1.1663 C.ar    1  UNL1       -0.0486
     27 H           3.3154    0.1008   -1.9516 H       1  UNL1        0.0345
     28 H           3.5170    1.8440   -1.6789 H       1  UNL1        0.0345
     29 H           1.1842    1.2492   -2.1470 H       1  UNL1        0.0282
     30 H           1.4161    1.9998   -0.4814 H       1  UNL1        0.0282
     31 H           1.3453   -0.3427    0.4615 H       1  UNL1        0.0427
     32 H           1.2247   -0.9874   -1.1768 H       1  UNL1        0.0427
     33 H          -0.7566    1.9167    0.3698 H       1  UNL1        0.0427
     34 H          -0.8101    0.5552    1.5489 H       1  UNL1        0.0427
     35 H          -2.9143    1.5675    1.2305 H       1  UNL1        0.0309
     36 H          -2.8049    1.2202   -0.5977 H       1  UNL1        0.0309
     37 H          -3.4235    0.0812    2.4495 H       1  UNL1        0.2106
     38 H          -4.6784    1.6530   -0.1364 H       1  UNL1        0.0622
     39 H          -6.9521    1.7084   -0.8799 H       1  UNL1        0.0632
     40 H          -7.2233   -2.4911   -0.5246 H       1  UNL1        0.0632
     41 H          -4.8468   -2.5519    0.2457 H       1  UNL1        0.0622
     42 H          -2.7856   -2.4052   -0.4986 H       1  UNL1        0.0309
     43 H          -1.6536   -2.0359    0.7945 H       1  UNL1        0.0309
     44 H          -0.5887   -1.9224   -1.1891 H       1  UNL1        0.0427
     45 H          -1.7272   -0.7634   -1.9856 H       1  UNL1        0.0427
     46 H           5.3019    0.5134   -2.0958 H       1  UNL1        0.0625
     47 H           7.7712    0.0504   -2.1459 H       1  UNL1        0.0646
     48 H           7.8440   -0.1649    2.0607 H       1  UNL1        0.0646
     49 H           5.3807    0.2958    2.1116 H       1  UNL1        0.0625
@<TRIPOS>BOND
     1     1     2    2
     2     2     3    1
     3     3     4    1
     4     4     5    1
     5     5     6    1
     6     6     7    1
     7     7     8    1
     8     8     9    1
     9     9    10    1
    10     9    11    1
    11    11    12   ar
    12    12    13   ar
    13    13    14   ar
    14    14    15    1
    15    14    16   ar
    16    16    17   ar
    17     9    18    1
    18    18    19    1
    19     2    20    1
    20    20    21   ar
    21    21    22   ar
    22    22    23   ar
    23    23    24    1
    24    23    25   ar
    25    25    26   ar
    26    19     6    1
    27    26    20   ar
    28    17    11   ar
    29     3    27    1
    30     3    28    1
    31     4    29    1
    32     4    30    1
    33     5    31    1
    34     5    32    1
    35     7    33    1
    36     7    34    1
    37     8    35    1
    38     8    36    1
    39    10    37    1
    40    12    38    1
    41    13    39    1
    42    16    40    1
    43    17    41    1
    44    18    42    1
    45    18    43    1
    46    19    44    1
    47    19    45    1
    48    21    46    1
    49    22    47    1
    50    25    48    1
    51    26    49    1
