@<TRIPOS>MOLECULE
*****
 43 46 0 0 0
SMALL
GASTEIGER

@<TRIPOS>ATOM
      1 N          -7.4925    2.1463    0.1309 N.1     1  UNL1       -0.1909
      2 C          -6.4926    1.6068   -0.1075 C.1     1  UNL1        0.0992
      3 C          -5.2455    0.9591   -0.3905 C.ar    1  UNL1        0.0518
      4 C          -4.4391    0.5551    0.6315 C.ar    1  UNL1       -0.0440
      5 C          -3.2262   -0.0751    0.3300 C.ar    1  UNL1       -0.0553
      6 C          -2.8341   -0.2943   -0.9656 C.ar    1  UNL1       -0.0225
      7 C          -1.5645   -0.9791   -1.3638 C.3     1  UNL1        0.0798
      8 N          -0.8605   -0.0304   -2.1905 N.am    1  UNL1       -0.2877
      9 C           0.4619    0.3678   -1.8554 C.2     1  UNL1        0.3114
     10 O           1.0780    1.2304   -2.5559 O.2     1  UNL1       -0.2519
     11 N           1.1543   -0.1655   -0.7413 N.am    1  UNL1       -0.2276
     12 C           2.4818    0.2368   -0.4163 C.ar    1  UNL1        0.0430
     13 C           3.5791   -0.4227   -0.9311 C.ar    1  UNL1       -0.0399
     14 C           4.8814   -0.0643   -0.6409 C.ar    1  UNL1       -0.0595
     15 C           5.0631    1.0210    0.2171 C.ar    1  UNL1       -0.0500
     16 C           4.0182    1.7078    0.7537 C.ar    1  UNL1        0.0566
     17 C           4.2680    2.8621    1.6666 C.3     1  UNL1        0.4175
     18 F           3.2357    3.0483    2.5468 F       1  UNL1       -0.1659
     19 F           4.5091    3.9664    0.8767 F       1  UNL1       -0.1659
     20 F           5.4214    2.5321    2.3825 F       1  UNL1       -0.1659
     21 C           2.7264    1.3054    0.4289 C.ar    1  UNL1       -0.0283
     22 C           0.4411   -1.1425    0.0513 C.2     1  UNL1        0.0289
     23 C          -0.8015   -1.5184   -0.2376 C.2     1  UNL1        0.0372
     24 C          -1.2102   -2.5574    0.7036 C.2     1  UNL1        0.1631
     25 O          -2.3417   -3.0313    0.9512 O.2     1  UNL1       -0.2923
     26 C           0.0213   -3.0159    1.3870 C.3     1  UNL1        0.0154
     27 C           0.9388   -1.8369    1.2631 C.3     1  UNL1       -0.0064
     28 C          -3.6937    0.1379   -1.9616 C.ar    1  UNL1       -0.0553
     29 C          -4.8916    0.7603   -1.6904 C.ar    1  UNL1       -0.0440
     30 H          -4.6815    0.6933    1.6942 H       1  UNL1        0.0630
     31 H          -2.5747   -0.3847    1.1292 H       1  UNL1        0.0621
     32 H          -1.9038   -1.7924   -2.0739 H       1  UNL1        0.0601
     33 H          -1.3534    0.3354   -3.0174 H       1  UNL1        0.1512
     34 H           3.3722   -1.2548   -1.5893 H       1  UNL1        0.0636
     35 H           5.7426   -0.5914   -1.0524 H       1  UNL1        0.0618
     36 H           6.0905    1.3119    0.4525 H       1  UNL1        0.0623
     37 H           1.8853    1.8210    0.8313 H       1  UNL1        0.0642
     38 H          -0.1651   -3.3149    2.4377 H       1  UNL1        0.0349
     39 H           0.5077   -3.8529    0.8102 H       1  UNL1        0.0349
     40 H           1.9945   -2.1609    1.1556 H       1  UNL1        0.0330
     41 H           0.8121   -1.1640    2.1531 H       1  UNL1        0.0330
     42 H          -3.3969   -0.0280   -2.9864 H       1  UNL1        0.0621
     43 H          -5.5153    1.0727   -2.5167 H       1  UNL1        0.0630
@<TRIPOS>BOND
     1     1     2    3
     2     2     3    1
     3     3     4   ar
     4     4     5   ar
     5     5     6   ar
     6     6     7    1
     7     7     8    1
     8     8     9   am
     9     9    10    2
    10     9    11   am
    11    11    12    1
    12    12    13   ar
    13    13    14   ar
    14    14    15   ar
    15    15    16   ar
    16    16    17    1
    17    17    18    1
    18    17    19    1
    19    17    20    1
    20    16    21   ar
    21    11    22    1
    22    22    23    2
    23    23    24    1
    24    24    25    2
    25    24    26    1
    26    26    27    1
    27     6    28   ar
    28    28    29   ar
    29    29     3   ar
    30    23     7    1
    31    21    12   ar
    32    27    22    1
    33     4    30    1
    34     5    31    1
    35     7    32    1
    36     8    33    1
    37    13    34    1
    38    14    35    1
    39    15    36    1
    40    21    37    1
    41    26    38    1
    42    26    39    1
    43    27    40    1
    44    27    41    1
    45    28    42    1
    46    29    43    1
