@<TRIPOS>MOLECULE
*****
 48 50 0 0 0
SMALL
GASTEIGER

@<TRIPOS>ATOM
      1 N           1.0696   -2.1641    1.7488 N.1     1  UNL1       -0.1966
      2 C          -0.0256   -2.3547    1.5584 C.1     1  UNL1        0.0625
      3 C          -1.4345   -2.6158    1.2930 C.3     1  UNL1        0.0356
      4 C          -2.3287   -1.4640    1.1122 C.3     1  UNL1       -0.0291
      5 C          -2.0500   -0.5148   -0.0490 C.3     1  UNL1        0.0125
      6 C          -3.1372    0.5310    0.0437 C.ar    1  UNL1       -0.0397
      7 C          -3.0959    1.6344   -0.7709 C.ar    1  UNL1       -0.0580
      8 C          -4.0873    2.6215   -0.7259 C.ar    1  UNL1       -0.0615
      9 C          -5.1277    2.4785    0.1579 C.ar    1  UNL1       -0.0617
     10 C          -5.1685    1.3759    0.9729 C.ar    1  UNL1       -0.0615
     11 C          -4.1588    0.3919    0.9128 C.ar    1  UNL1       -0.0580
     12 C          -2.1575   -1.2381   -1.3430 C.3     1  UNL1       -0.0405
     13 C          -1.1270   -0.8427   -2.3325 C.3     1  UNL1       -0.0362
     14 C           0.2559   -1.1329   -1.6890 C.3     1  UNL1        0.0162
     15 N           0.3637   -0.2201   -0.6014 N.am    1  UNL1       -0.2845
     16 C           1.6201    0.3196   -0.2315 C.2     1  UNL1        0.3065
     17 O           1.6774    1.1862    0.6967 O.2     1  UNL1       -0.2523
     18 N           2.8152   -0.0611   -0.8420 N.am    1  UNL1       -0.2693
     19 C           4.1213    0.4115   -0.5603 C.ar    1  UNL1        0.0349
     20 C           4.4553    1.4304    0.2755 C.ar    1  UNL1       -0.0391
     21 C           5.7857    1.8013    0.5105 C.ar    1  UNL1       -0.0416
     22 C           6.8190    1.1244   -0.1159 C.ar    1  UNL1        0.0411
     23 CL          8.4747    1.5897    0.1794 Cl      1  UNL1       -0.0835
     24 C           6.4981    0.0978   -0.9588 C.ar    1  UNL1       -0.0416
     25 C           5.2024   -0.2432   -1.1707 C.ar    1  UNL1       -0.0391
     26 C          -0.7807    0.1779    0.1955 C.3     1  UNL1        0.0258
     27 H          -1.5525   -3.4092    0.5055 H       1  UNL1        0.0418
     28 H          -1.8110   -3.1512    2.2273 H       1  UNL1        0.0418
     29 H          -2.4031   -0.9201    2.0702 H       1  UNL1        0.0284
     30 H          -3.3663   -1.9257    0.9522 H       1  UNL1        0.0284
     31 H          -2.3121    1.8050   -1.4708 H       1  UNL1        0.0620
     32 H          -4.0469    3.4963   -1.3817 H       1  UNL1        0.0618
     33 H          -5.9352    3.2238    0.2300 H       1  UNL1        0.0618
     34 H          -5.9676    1.2115    1.7021 H       1  UNL1        0.0618
     35 H          -4.2843   -0.4545    1.6196 H       1  UNL1        0.0620
     36 H          -3.1959   -1.2047   -1.7677 H       1  UNL1        0.0275
     37 H          -2.0156   -2.3333   -1.1331 H       1  UNL1        0.0275
     38 H          -1.0874    0.2261   -2.5475 H       1  UNL1        0.0281
     39 H          -1.1583   -1.4587   -3.2671 H       1  UNL1        0.0281
     40 H           0.1951   -2.1648   -1.3152 H       1  UNL1        0.0465
     41 H           1.0323   -1.0118   -2.4551 H       1  UNL1        0.0465
     42 H           2.7199   -0.8093   -1.6094 H       1  UNL1        0.1564
     43 H           3.6741    1.9898    0.7777 H       1  UNL1        0.0636
     44 H           6.0009    2.6120    1.1750 H       1  UNL1        0.0633
     45 H           7.3412   -0.4115   -1.4354 H       1  UNL1        0.0633
     46 H           5.0022   -1.0567   -1.8391 H       1  UNL1        0.0636
     47 H          -0.8668    1.2902    0.0078 H       1  UNL1        0.0474
     48 H          -0.4419    0.1360    1.2648 H       1  UNL1        0.0474
@<TRIPOS>BOND
     1     1     2    3
     2     2     3    1
     3     3     4    1
     4     4     5    1
     5     5     6    1
     6     6     7   ar
     7     7     8   ar
     8     8     9   ar
     9     9    10   ar
    10    10    11   ar
    11     5    12    1
    12    12    13    1
    13    13    14    1
    14    14    15    1
    15    15    16   am
    16    16    17    2
    17    16    18   am
    18    18    19    1
    19    19    20   ar
    20    20    21   ar
    21    21    22   ar
    22    22    23    1
    23    22    24   ar
    24    24    25   ar
    25    15    26    1
    26    26     5    1
    27    11     6   ar
    28    25    19   ar
    29     3    27    1
    30     3    28    1
    31     4    29    1
    32     4    30    1
    33     7    31    1
    34     8    32    1
    35     9    33    1
    36    10    34    1
    37    11    35    1
    38    12    36    1
    39    12    37    1
    40    13    38    1
    41    13    39    1
    42    14    40    1
    43    14    41    1
    44    18    42    1
    45    20    43    1
    46    21    44    1
    47    24    45    1
    48    25    46    1
    49    26    47    1
    50    26    48    1
