
     RDKit          3D

 48 50  0  0  0  0  0  0  0  0999 V2000
    1.0696   -2.1641    1.7488 N   0  0  0  0  0  0  0  0  0  0  0  0
   -0.0256   -2.3547    1.5584 C   0  0  0  0  0  0  0  0  0  0  0  0
   -1.4345   -2.6158    1.2930 C   0  0  0  0  0  0  0  0  0  0  0  0
   -2.3287   -1.4640    1.1122 C   0  0  0  0  0  0  0  0  0  0  0  0
   -2.0500   -0.5148   -0.0490 C   0  0  0  0  0  0  0  0  0  0  0  0
   -3.1372    0.5310    0.0437 C   0  0  0  0  0  0  0  0  0  0  0  0
   -3.0959    1.6344   -0.7709 C   0  0  0  0  0  0  0  0  0  0  0  0
   -4.0873    2.6215   -0.7259 C   0  0  0  0  0  0  0  0  0  0  0  0
   -5.1277    2.4785    0.1579 C   0  0  0  0  0  0  0  0  0  0  0  0
   -5.1685    1.3759    0.9729 C   0  0  0  0  0  0  0  0  0  0  0  0
   -4.1588    0.3919    0.9128 C   0  0  0  0  0  0  0  0  0  0  0  0
   -2.1575   -1.2381   -1.3430 C   0  0  0  0  0  0  0  0  0  0  0  0
   -1.1270   -0.8427   -2.3325 C   0  0  0  0  0  0  0  0  0  0  0  0
    0.2559   -1.1329   -1.6890 C   0  0  0  0  0  0  0  0  0  0  0  0
    0.3637   -0.2201   -0.6014 N   0  0  0  0  0  0  0  0  0  0  0  0
    1.6201    0.3196   -0.2315 C   0  0  0  0  0  0  0  0  0  0  0  0
    1.6774    1.1862    0.6967 O   0  0  0  0  0  0  0  0  0  0  0  0
    2.8152   -0.0611   -0.8420 N   0  0  0  0  0  0  0  0  0  0  0  0
    4.1213    0.4115   -0.5603 C   0  0  0  0  0  0  0  0  0  0  0  0
    4.4553    1.4304    0.2755 C   0  0  0  0  0  0  0  0  0  0  0  0
    5.7857    1.8013    0.5105 C   0  0  0  0  0  0  0  0  0  0  0  0
    6.8190    1.1244   -0.1159 C   0  0  0  0  0  0  0  0  0  0  0  0
    8.4747    1.5897    0.1794 Cl  0  0  0  0  0  0  0  0  0  0  0  0
    6.4981    0.0978   -0.9588 C   0  0  0  0  0  0  0  0  0  0  0  0
    5.2024   -0.2432   -1.1707 C   0  0  0  0  0  0  0  0  0  0  0  0
   -0.7807    0.1779    0.1955 C   0  0  0  0  0  0  0  0  0  0  0  0
   -1.5525   -3.4092    0.5055 H   0  0  0  0  0  0  0  0  0  0  0  0
   -1.8110   -3.1512    2.2273 H   0  0  0  0  0  0  0  0  0  0  0  0
   -2.4031   -0.9201    2.0702 H   0  0  0  0  0  0  0  0  0  0  0  0
   -3.3663   -1.9257    0.9522 H   0  0  0  0  0  0  0  0  0  0  0  0
   -2.3121    1.8050   -1.4708 H   0  0  0  0  0  0  0  0  0  0  0  0
   -4.0469    3.4963   -1.3817 H   0  0  0  0  0  0  0  0  0  0  0  0
   -5.9352    3.2238    0.2300 H   0  0  0  0  0  0  0  0  0  0  0  0
   -5.9676    1.2115    1.7021 H   0  0  0  0  0  0  0  0  0  0  0  0
   -4.2843   -0.4545    1.6196 H   0  0  0  0  0  0  0  0  0  0  0  0
   -3.1959   -1.2047   -1.7677 H   0  0  0  0  0  0  0  0  0  0  0  0
   -2.0156   -2.3333   -1.1331 H   0  0  0  0  0  0  0  0  0  0  0  0
   -1.0874    0.2261   -2.5475 H   0  0  0  0  0  0  0  0  0  0  0  0
   -1.1583   -1.4587   -3.2671 H   0  0  0  0  0  0  0  0  0  0  0  0
    0.1951   -2.1648   -1.3152 H   0  0  0  0  0  0  0  0  0  0  0  0
    1.0323   -1.0118   -2.4551 H   0  0  0  0  0  0  0  0  0  0  0  0
    2.7199   -0.8093   -1.6094 H   0  0  0  0  0  0  0  0  0  0  0  0
    3.6741    1.9898    0.7777 H   0  0  0  0  0  0  0  0  0  0  0  0
    6.0009    2.6120    1.1750 H   0  0  0  0  0  0  0  0  0  0  0  0
    7.3412   -0.4115   -1.4354 H   0  0  0  0  0  0  0  0  0  0  0  0
    5.0022   -1.0567   -1.8391 H   0  0  0  0  0  0  0  0  0  0  0  0
   -0.8668    1.2902    0.0078 H   0  0  0  0  0  0  0  0  0  0  0  0
   -0.4419    0.1360    1.2648 H   0  0  0  0  0  0  0  0  0  0  0  0
  1  2  3  0
  2  3  1  0
  3  4  1  0
  4  5  1  0
  5  6  1  0
  6  7  2  0
  7  8  1  0
  8  9  2  0
  9 10  1  0
 10 11  2  0
  5 12  1  0
 12 13  1  0
 13 14  1  0
 14 15  1  0
 15 16  1  0
 16 17  2  0
 16 18  1  0
 18 19  1  0
 19 20  2  0
 20 21  1  0
 21 22  2  0
 22 23  1  0
 22 24  1  0
 24 25  2  0
 15 26  1  0
 26  5  1  0
 11  6  1  0
 25 19  1  0
  3 27  1  0
  3 28  1  0
  4 29  1  0
  4 30  1  0
  7 31  1  0
  8 32  1  0
  9 33  1  0
 10 34  1  0
 11 35  1  0
 12 36  1  0
 12 37  1  0
 13 38  1  0
 13 39  1  0
 14 40  1  0
 14 41  1  0
 18 42  1  0
 20 43  1  0
 21 44  1  0
 24 45  1  0
 25 46  1  0
 26 47  1  0
 26 48  1  0
M  END
$$$$
