@<TRIPOS>MOLECULE
*****
 38 39 0 0 0
SMALL
GASTEIGER

@<TRIPOS>ATOM
      1 C          -3.7611   -2.3816   -1.0903 C.3     1  UNL1        0.0788
      2 O          -2.8073   -1.3534   -0.9693 O.3     1  UNL1       -0.4948
      3 C          -3.0057   -0.2646   -0.1464 C.ar    1  UNL1        0.1235
      4 C          -4.1496   -0.1040    0.6160 C.ar    1  UNL1       -0.0170
      5 C          -4.3349    0.9912    1.4355 C.ar    1  UNL1       -0.0230
      6 C          -3.3331    1.9365    1.4749 C.ar    1  UNL1        0.1239
      7 F          -3.4884    3.0230    2.2715 F       1  UNL1       -0.2055
      8 C          -2.1952    1.7745    0.7151 C.ar    1  UNL1       -0.0197
      9 C          -1.9895    0.6899   -0.1093 C.ar    1  UNL1       -0.0006
     10 C          -0.7717    0.4952   -0.9358 C.3     1  UNL1        0.0023
     11 C           0.1633   -0.5474   -0.3366 C.3     1  UNL1        0.0632
     12 C           0.5511   -0.0345    1.0348 C.3     1  UNL1       -0.0239
     13 C           1.8490    0.6987    0.6568 C.3     1  UNL1       -0.0242
     14 C           2.4034   -0.3779   -0.2872 C.3     1  UNL1        0.0603
     15 C           3.6019    0.1075   -1.0208 C.3     1  UNL1       -0.0142
     16 C           4.6776    0.4787   -0.0392 C.3     1  UNL1       -0.0046
     17 N           5.1085   -0.5987    0.7969 N.3     1  UNL1       -0.3299
     18 O           1.3029   -0.6082   -1.0933 O.3     1  UNL1       -0.3730
     19 H          -3.6001   -2.9698   -2.0241 H       1  UNL1        0.0660
     20 H          -4.7859   -1.9846   -1.0942 H       1  UNL1        0.0660
     21 H          -3.6159   -3.0824   -0.2241 H       1  UNL1        0.0660
     22 H          -4.9406   -0.8483    0.5869 H       1  UNL1        0.0655
     23 H          -5.2274    1.1276    2.0375 H       1  UNL1        0.0647
     24 H          -1.4143    2.5224    0.7521 H       1  UNL1        0.0650
     25 H          -1.0164    0.1882   -1.9720 H       1  UNL1        0.0339
     26 H          -0.2146    1.4510   -1.0249 H       1  UNL1        0.0339
     27 H          -0.3424   -1.5345   -0.2577 H       1  UNL1        0.0599
     28 H          -0.1772    0.6130    1.5054 H       1  UNL1        0.0291
     29 H           0.8807   -0.8883    1.6603 H       1  UNL1        0.0291
     30 H           2.4879    0.8704    1.5181 H       1  UNL1        0.0291
     31 H           1.6323    1.5971    0.0409 H       1  UNL1        0.0291
     32 H           2.5884   -1.2637    0.3216 H       1  UNL1        0.0596
     33 H           3.3662    0.9891   -1.6221 H       1  UNL1        0.0302
     34 H           3.9620   -0.7201   -1.6638 H       1  UNL1        0.0302
     35 H           5.5755    0.8929   -0.5497 H       1  UNL1        0.0423
     36 H           4.3019    1.2947    0.6206 H       1  UNL1        0.0423
     37 H           4.5766   -1.4712    0.7207 H       1  UNL1        0.1182
     38 H           6.1420   -0.7081    0.8520 H       1  UNL1        0.1182
@<TRIPOS>BOND
     1     1     2    1
     2     2     3    1
     3     3     4   ar
     4     4     5   ar
     5     5     6   ar
     6     6     7    1
     7     6     8   ar
     8     8     9   ar
     9     9    10    1
    10    10    11    1
    11    11    12    1
    12    12    13    1
    13    13    14    1
    14    14    15    1
    15    15    16    1
    16    16    17    1
    17    14    18    1
    18     9     3   ar
    19    18    11    1
    20     1    19    1
    21     1    20    1
    22     1    21    1
    23     4    22    1
    24     5    23    1
    25     8    24    1
    26    10    25    1
    27    10    26    1
    28    11    27    1
    29    12    28    1
    30    12    29    1
    31    13    30    1
    32    13    31    1
    33    14    32    1
    34    15    33    1
    35    15    34    1
    36    16    35    1
    37    16    36    1
    38    17    37    1
    39    17    38    1
