
     RDKit          3D

 39 40  0  0  0  0  0  0  0  0999 V2000
    0.2461   -0.6972   -2.0763 O   0  0  0  0  0  0  0  0  0  0  0  0
   -0.5821   -0.3568   -1.0353 C   0  0  1  0  0  0  0  0  0  0  0  0
   -1.7213   -1.3566   -0.8223 C   0  0  1  0  0  0  0  0  0  0  0  0
   -1.1236   -2.6049   -0.7034 O   0  0  0  0  0  0  0  0  0  0  0  0
   -2.1371   -0.9137    0.5838 C   0  0  1  0  0  0  0  0  0  0  0  0
   -1.0361   -0.3265    1.1687 O   0  0  0  0  0  0  0  0  0  0  0  0
    0.0533   -0.5426    0.3386 C   0  0  2  0  0  0  0  0  0  0  0  0
    1.1859    0.3860    0.5652 C   0  0  0  0  0  0  0  0  0  0  0  0
    2.1848    0.0107   -0.3633 O   0  0  0  0  0  0  0  0  0  0  0  0
    3.5426    1.0101   -0.1988 P   0  0  0  0  0  0  0  0  0  0  0  0
    4.1146    0.9122    1.3921 O   0  0  0  0  0  0  0  0  0  0  0  0
    3.0902    2.4158   -0.5384 O   0  0  0  0  0  0  0  0  0  0  0  0
    4.7006    0.5030   -1.2937 O   0  0  0  0  0  0  0  0  0  0  0  0
    5.8759   -0.4991   -0.6123 P   0  0  0  0  0  0  0  0  0  0  0  0
    7.3670    0.2770   -0.7310 O   0  0  0  0  0  0  0  0  0  0  0  0
    5.8949   -1.9973   -1.4182 O   0  0  0  0  0  0  0  0  0  0  0  0
    5.6125   -0.7920    0.8454 O   0  0  0  0  0  0  0  0  0  0  0  0
   -3.1547    0.1057    0.4111 N   0  0  0  0  0  0  0  0  0  0  0  0
   -3.0652    1.4395    0.5813 C   0  0  0  0  0  0  0  0  0  0  0  0
   -4.1496    2.2357    0.3657 C   0  0  0  0  0  0  0  0  0  0  0  0
   -5.3400    1.6548   -0.0294 C   0  0  0  0  0  0  0  0  0  0  0  0
   -6.3093    2.4381   -0.2143 O   0  0  0  0  0  0  0  0  0  0  0  0
   -5.4245    0.3224   -0.1981 N   0  0  0  0  0  0  0  0  0  0  0  0
   -4.3366   -0.4520    0.0209 C   0  0  0  0  0  0  0  0  0  0  0  0
   -4.5530   -1.6774   -0.1729 O   0  0  0  0  0  0  0  0  0  0  0  0
    0.3606    0.1288   -2.6395 H   0  0  0  0  0  0  0  0  0  0  0  0
   -0.9867    0.6753   -1.0728 H   0  0  0  0  0  0  0  0  0  0  0  0
   -2.5176   -1.2830   -1.5553 H   0  0  0  0  0  0  0  0  0  0  0  0
   -1.7798   -3.2310   -0.3166 H   0  0  0  0  0  0  0  0  0  0  0  0
   -2.5095   -1.7795    1.1587 H   0  0  0  0  0  0  0  0  0  0  0  0
    0.3904   -1.5773    0.4073 H   0  0  0  0  0  0  0  0  0  0  0  0
    1.6087    0.2139    1.5536 H   0  0  0  0  0  0  0  0  0  0  0  0
    0.9615    1.4382    0.3328 H   0  0  0  0  0  0  0  0  0  0  0  0
    3.7103    0.1336    1.8401 H   0  0  0  0  0  0  0  0  0  0  0  0
    7.2176    1.2506   -0.6125 H   0  0  0  0  0  0  0  0  0  0  0  0
    5.0453   -2.4477   -1.1964 H   0  0  0  0  0  0  0  0  0  0  0  0
   -2.0780    1.7575    0.8911 H   0  0  0  0  0  0  0  0  0  0  0  0
   -3.9998    3.2904    0.5223 H   0  0  0  0  0  0  0  0  0  0  0  0
   -6.3583   -0.0647   -0.5005 H   0  0  0  0  0  0  0  0  0  0  0  0
  1  2  1  0
  2  3  1  0
  3  4  1  0
  3  5  1  0
  5  6  1  0
  6  7  1  0
  7  8  1  0
  8  9  1  0
  9 10  1  0
 10 11  1  0
 10 12  2  0
 10 13  1  0
 13 14  1  0
 14 15  1  0
 14 16  1  0
 14 17  2  0
  5 18  1  0
 18 19  1  0
 19 20  2  0
 20 21  1  0
 21 22  2  0
 21 23  1  0
 23 24  1  0
 24 25  2  0
  7  2  1  0
 24 18  1  0
  1 26  1  0
  2 27  1  6
  3 28  1  6
  4 29  1  0
  5 30  1  1
  7 31  1  6
  8 32  1  0
  8 33  1  0
 11 34  1  0
 15 35  1  0
 16 36  1  0
 19 37  1  0
 20 38  1  0
 23 39  1  0
M  END
$$$$
