@<TRIPOS>MOLECULE
*****
 60 64 0 0 0
SMALL
GASTEIGER

@<TRIPOS>ATOM
      1 C          -4.4783    0.0285   -0.4252 C.3     1  UNL1       -0.0493
      2 C          -4.2705   -1.1548    0.4765 C.3     1  UNL1        0.0118
      3 N          -3.0690   -1.8621    0.1593 N.am    1  UNL1       -0.3015
      4 C          -3.1295   -2.9132   -0.8796 C.3     1  UNL1        0.0118
      5 C          -2.8340   -2.2193   -2.1830 C.3     1  UNL1       -0.0493
      6 C          -1.8396   -1.6240    0.7687 C.2     1  UNL1        0.2239
      7 O          -0.8040   -2.2914    0.4057 O.2     1  UNL1       -0.2749
      8 C          -1.6342   -0.6370    1.8358 C.3     1  UNL1        0.0702
      9 C          -1.7971    0.7244    1.2993 C.2     1  UNL1       -0.0652
     10 C          -0.7786    1.3136    0.7438 C.2     1  UNL1       -0.0220
     11 C          -0.9538    2.6585    0.2144 C.ar    1  UNL1       -0.0109
     12 C          -2.1859    3.1251   -0.2123 C.ar    1  UNL1       -0.0536
     13 C          -2.2020    4.3955   -0.7236 C.ar    1  UNL1       -0.0592
     14 C          -1.0447    5.1951   -0.8175 C.ar    1  UNL1       -0.0378
     15 C           0.1817    4.6964   -0.3777 C.ar    1  UNL1        0.0473
     16 N           1.4571    5.1401   -0.2985 N.ar    1  UNL1       -0.3604
     17 C           2.2198    4.1489    0.2541 C.ar    1  UNL1        0.0060
     18 C           1.4209    3.0446    0.5367 C.ar    1  UNL1       -0.0197
     19 C           0.1724    3.4342    0.1257 C.ar    1  UNL1        0.0103
     20 C           1.6045    1.7046    1.1446 C.3     1  UNL1       -0.0028
     21 C           0.5920    0.7102    0.5992 C.3     1  UNL1        0.0570
     22 N           0.7149   -0.4801    1.3746 N.am    1  UNL1       -0.2770
     23 C           1.7410   -1.4259    1.1223 C.2     1  UNL1        0.3070
     24 O           1.8576   -2.4554    1.8563 O.2     1  UNL1       -0.2523
     25 N           2.6290   -1.2149    0.0502 N.am    1  UNL1       -0.2693
     26 C           3.6942   -2.0582   -0.3216 C.ar    1  UNL1        0.0348
     27 C           4.4890   -1.6998   -1.4224 C.ar    1  UNL1       -0.0404
     28 C           5.5437   -2.4634   -1.8500 C.ar    1  UNL1       -0.0600
     29 C           5.8478   -3.6146   -1.1973 C.ar    1  UNL1       -0.0616
     30 C           5.0983   -3.9920   -0.1264 C.ar    1  UNL1       -0.0600
     31 C           4.0165   -3.2179    0.3199 C.ar    1  UNL1       -0.0404
     32 C          -0.2246   -0.7416    2.4390 C.3     1  UNL1        0.0314
     33 H          -5.2515   -0.1996   -1.1891 H       1  UNL1        0.0245
     34 H          -4.8109    0.9210    0.1375 H       1  UNL1        0.0245
     35 H          -3.5533    0.2677   -0.9595 H       1  UNL1        0.0245
     36 H          -4.2145   -0.7563    1.5205 H       1  UNL1        0.0462
     37 H          -5.1394   -1.8567    0.4433 H       1  UNL1        0.0462
     38 H          -4.1279   -3.3774   -0.8716 H       1  UNL1        0.0462
     39 H          -2.3611   -3.6639   -0.6724 H       1  UNL1        0.0462
     40 H          -2.3949   -2.9002   -2.9254 H       1  UNL1        0.0245
     41 H          -3.7078   -1.6554   -2.5300 H       1  UNL1        0.0245
     42 H          -2.0319   -1.4607   -1.9568 H       1  UNL1        0.0245
     43 H          -2.3185   -0.8335    2.6968 H       1  UNL1        0.0453
     44 H          -2.7313    1.2289    1.3801 H       1  UNL1        0.0583
     45 H          -3.0632    2.5377   -0.1446 H       1  UNL1        0.0624
     46 H          -3.1094    4.8344   -1.0761 H       1  UNL1        0.0618
     47 H          -1.0765    6.1834   -1.2197 H       1  UNL1        0.0638
     48 H           1.7576    6.0745   -0.6135 H       1  UNL1        0.1653
     49 H           3.2690    4.2316    0.4328 H       1  UNL1        0.0810
     50 H           1.3284    1.7851    2.2491 H       1  UNL1        0.0335
     51 H           2.6303    1.3594    1.0281 H       1  UNL1        0.0335
     52 H           0.7591    0.5789   -0.4785 H       1  UNL1        0.0554
     53 H           2.4973   -0.3442   -0.5561 H       1  UNL1        0.1564
     54 H           4.2330   -0.7678   -1.9408 H       1  UNL1        0.0636
     55 H           6.0945   -2.0981   -2.7103 H       1  UNL1        0.0618
     56 H           6.7008   -4.2037   -1.5669 H       1  UNL1        0.0618
     57 H           5.3328   -4.8938    0.3887 H       1  UNL1        0.0618
     58 H           3.4712   -3.5836    1.1751 H       1  UNL1        0.0636
     59 H          -0.0922   -1.7414    2.8464 H       1  UNL1        0.0476
     60 H          -0.1241    0.0800    3.1767 H       1  UNL1        0.0476
@<TRIPOS>BOND
     1     1     2    1
     2     2     3    1
     3     3     4    1
     4     4     5    1
     5     3     6   am
     6     6     7    2
     7     6     8    1
     8     8     9    1
     9     9    10    2
    10    10    11    1
    11    11    12   ar
    12    12    13   ar
    13    13    14   ar
    14    14    15   ar
    15    15    16   ar
    16    16    17   ar
    17    17    18   ar
    18    18    19   ar
    19    18    20    1
    20    20    21    1
    21    21    22    1
    22    22    23   am
    23    23    24    2
    24    23    25   am
    25    25    26    1
    26    26    27   ar
    27    27    28   ar
    28    28    29   ar
    29    29    30   ar
    30    30    31   ar
    31    22    32    1
    32    32     8    1
    33    21    10    1
    34    31    26   ar
    35    19    11   ar
    36    19    15   ar
    37     1    33    1
    38     1    34    1
    39     1    35    1
    40     2    36    1
    41     2    37    1
    42     4    38    1
    43     4    39    1
    44     5    40    1
    45     5    41    1
    46     5    42    1
    47     8    43    1
    48     9    44    1
    49    12    45    1
    50    13    46    1
    51    14    47    1
    52    16    48    1
    53    17    49    1
    54    20    50    1
    55    20    51    1
    56    21    52    1
    57    25    53    1
    58    27    54    1
    59    28    55    1
    60    29    56    1
    61    30    57    1
    62    31    58    1
    63    32    59    1
    64    32    60    1
