
     RDKit          3D

 60 64  0  0  0  0  0  0  0  0999 V2000
   -4.4783    0.0285   -0.4252 C   0  0  0  0  0  0  0  0  0  0  0  0
   -4.2705   -1.1548    0.4765 C   0  0  0  0  0  0  0  0  0  0  0  0
   -3.0690   -1.8621    0.1593 N   0  0  0  0  0  0  0  0  0  0  0  0
   -3.1295   -2.9132   -0.8796 C   0  0  0  0  0  0  0  0  0  0  0  0
   -2.8340   -2.2193   -2.1830 C   0  0  0  0  0  0  0  0  0  0  0  0
   -1.8396   -1.6240    0.7687 C   0  0  0  0  0  0  0  0  0  0  0  0
   -0.8040   -2.2914    0.4057 O   0  0  0  0  0  0  0  0  0  0  0  0
   -1.6342   -0.6370    1.8358 C   0  0  2  0  0  0  0  0  0  0  0  0
   -1.7971    0.7244    1.2993 C   0  0  0  0  0  0  0  0  0  0  0  0
   -0.7786    1.3136    0.7438 C   0  0  0  0  0  0  0  0  0  0  0  0
   -0.9538    2.6585    0.2144 C   0  0  0  0  0  0  0  0  0  0  0  0
   -2.1859    3.1251   -0.2123 C   0  0  0  0  0  0  0  0  0  0  0  0
   -2.2020    4.3955   -0.7236 C   0  0  0  0  0  0  0  0  0  0  0  0
   -1.0447    5.1951   -0.8175 C   0  0  0  0  0  0  0  0  0  0  0  0
    0.1817    4.6964   -0.3777 C   0  0  0  0  0  0  0  0  0  0  0  0
    1.4571    5.1401   -0.2985 N   0  0  0  0  0  0  0  0  0  0  0  0
    2.2198    4.1489    0.2541 C   0  0  0  0  0  0  0  0  0  0  0  0
    1.4209    3.0446    0.5367 C   0  0  0  0  0  0  0  0  0  0  0  0
    0.1724    3.4342    0.1257 C   0  0  0  0  0  0  0  0  0  0  0  0
    1.6045    1.7046    1.1446 C   0  0  0  0  0  0  0  0  0  0  0  0
    0.5920    0.7102    0.5992 C   0  0  1  0  0  0  0  0  0  0  0  0
    0.7149   -0.4801    1.3746 N   0  0  0  0  0  0  0  0  0  0  0  0
    1.7410   -1.4259    1.1223 C   0  0  0  0  0  0  0  0  0  0  0  0
    1.8576   -2.4554    1.8563 O   0  0  0  0  0  0  0  0  0  0  0  0
    2.6290   -1.2149    0.0502 N   0  0  0  0  0  0  0  0  0  0  0  0
    3.6942   -2.0582   -0.3216 C   0  0  0  0  0  0  0  0  0  0  0  0
    4.4890   -1.6998   -1.4224 C   0  0  0  0  0  0  0  0  0  0  0  0
    5.5437   -2.4634   -1.8500 C   0  0  0  0  0  0  0  0  0  0  0  0
    5.8478   -3.6146   -1.1973 C   0  0  0  0  0  0  0  0  0  0  0  0
    5.0983   -3.9920   -0.1264 C   0  0  0  0  0  0  0  0  0  0  0  0
    4.0165   -3.2179    0.3199 C   0  0  0  0  0  0  0  0  0  0  0  0
   -0.2246   -0.7416    2.4390 C   0  0  0  0  0  0  0  0  0  0  0  0
   -5.2515   -0.1996   -1.1891 H   0  0  0  0  0  0  0  0  0  0  0  0
   -4.8109    0.9210    0.1375 H   0  0  0  0  0  0  0  0  0  0  0  0
   -3.5533    0.2677   -0.9595 H   0  0  0  0  0  0  0  0  0  0  0  0
   -4.2145   -0.7563    1.5205 H   0  0  0  0  0  0  0  0  0  0  0  0
   -5.1394   -1.8567    0.4433 H   0  0  0  0  0  0  0  0  0  0  0  0
   -4.1279   -3.3774   -0.8716 H   0  0  0  0  0  0  0  0  0  0  0  0
   -2.3611   -3.6639   -0.6724 H   0  0  0  0  0  0  0  0  0  0  0  0
   -2.3949   -2.9002   -2.9254 H   0  0  0  0  0  0  0  0  0  0  0  0
   -3.7078   -1.6554   -2.5300 H   0  0  0  0  0  0  0  0  0  0  0  0
   -2.0319   -1.4607   -1.9568 H   0  0  0  0  0  0  0  0  0  0  0  0
   -2.3185   -0.8335    2.6968 H   0  0  0  0  0  0  0  0  0  0  0  0
   -2.7313    1.2289    1.3801 H   0  0  0  0  0  0  0  0  0  0  0  0
   -3.0632    2.5377   -0.1446 H   0  0  0  0  0  0  0  0  0  0  0  0
   -3.1094    4.8344   -1.0761 H   0  0  0  0  0  0  0  0  0  0  0  0
   -1.0765    6.1834   -1.2197 H   0  0  0  0  0  0  0  0  0  0  0  0
    1.7576    6.0745   -0.6135 H   0  0  0  0  0  0  0  0  0  0  0  0
    3.2690    4.2316    0.4328 H   0  0  0  0  0  0  0  0  0  0  0  0
    1.3284    1.7851    2.2491 H   0  0  0  0  0  0  0  0  0  0  0  0
    2.6303    1.3594    1.0281 H   0  0  0  0  0  0  0  0  0  0  0  0
    0.7591    0.5789   -0.4785 H   0  0  0  0  0  0  0  0  0  0  0  0
    2.4973   -0.3442   -0.5561 H   0  0  0  0  0  0  0  0  0  0  0  0
    4.2330   -0.7678   -1.9408 H   0  0  0  0  0  0  0  0  0  0  0  0
    6.0945   -2.0981   -2.7103 H   0  0  0  0  0  0  0  0  0  0  0  0
    6.7008   -4.2037   -1.5669 H   0  0  0  0  0  0  0  0  0  0  0  0
    5.3328   -4.8938    0.3887 H   0  0  0  0  0  0  0  0  0  0  0  0
    3.4712   -3.5836    1.1751 H   0  0  0  0  0  0  0  0  0  0  0  0
   -0.0922   -1.7414    2.8464 H   0  0  0  0  0  0  0  0  0  0  0  0
   -0.1241    0.0800    3.1767 H   0  0  0  0  0  0  0  0  0  0  0  0
  1  2  1  0
  2  3  1  0
  3  4  1  0
  4  5  1  0
  3  6  1  0
  6  7  2  0
  6  8  1  0
  8  9  1  0
  9 10  2  0
 10 11  1  0
 11 12  2  0
 12 13  1  0
 13 14  2  0
 14 15  1  0
 15 16  1  0
 16 17  1  0
 17 18  2  0
 18 19  1  0
 18 20  1  0
 20 21  1  0
 21 22  1  0
 22 23  1  0
 23 24  2  0
 23 25  1  0
 25 26  1  0
 26 27  2  0
 27 28  1  0
 28 29  2  0
 29 30  1  0
 30 31  2  0
 22 32  1  0
 32  8  1  0
 21 10  1  0
 31 26  1  0
 19 11  1  0
 19 15  2  0
  1 33  1  0
  1 34  1  0
  1 35  1  0
  2 36  1  0
  2 37  1  0
  4 38  1  0
  4 39  1  0
  5 40  1  0
  5 41  1  0
  5 42  1  0
  8 43  1  1
  9 44  1  0
 12 45  1  0
 13 46  1  0
 14 47  1  0
 16 48  1  0
 17 49  1  0
 20 50  1  0
 20 51  1  0
 21 52  1  6
 25 53  1  0
 27 54  1  0
 28 55  1  0
 29 56  1  0
 30 57  1  0
 31 58  1  0
 32 59  1  0
 32 60  1  0
M  END
$$$$
