@<TRIPOS>MOLECULE
*****
 38 40 0 0 0
SMALL
GASTEIGER

@<TRIPOS>ATOM
      1 C           5.1431    1.7517   -1.4286 C.3     1  UNL1        0.0004
      2 N           5.0430    0.8164   -0.3374 N.pl3   1  UNL1       -0.3360
      3 C           6.2388    0.3820    0.3389 C.3     1  UNL1        0.0004
      4 C           3.7833    0.3402    0.0530 C.ar    1  UNL1        0.0304
      5 C           3.6164   -0.5556    1.0883 C.ar    1  UNL1       -0.0386
      6 C           2.3916   -1.0222    1.4723 C.ar    1  UNL1       -0.0335
      7 C           1.2158   -0.6105    0.8254 C.ar    1  UNL1        0.0784
      8 N           0.0414   -1.0897    1.2312 N.ar    1  UNL1       -0.2456
      9 C          -1.1800   -0.8738    0.8095 C.ar    1  UNL1        0.0787
     10 C          -2.2911   -1.5080    1.4069 C.ar    1  UNL1       -0.0290
     11 C          -3.5562   -1.2508    0.9305 C.ar    1  UNL1        0.0113
     12 C          -3.8235   -0.3937   -0.1184 C.ar    1  UNL1        0.2033
     13 N          -5.0133   -0.1880   -0.5239 N.2     1  UNL1       -0.2338
     14 C          -5.2558    0.7187   -1.6279 C.3     1  UNL1        0.1352
     15 C          -6.1429   -0.8481    0.1016 C.3     1  UNL1        0.1352
     16 C          -2.7422    0.2324   -0.7104 C.ar    1  UNL1        0.0250
     17 C          -1.4475    0.0290   -0.2934 C.ar    1  UNL1        0.0443
     18 S          -0.0743    0.7631   -0.9731 S.2     1  UNL1       -0.0849
     19 C           1.3844    0.2833   -0.2072 C.ar    1  UNL1        0.0399
     20 C           2.6248    0.7500   -0.5892 C.ar    1  UNL1       -0.0249
     21 H           4.6504    2.7135   -1.1450 H       1  UNL1        0.0428
     22 H           6.2078    1.9009   -1.7154 H       1  UNL1        0.0428
     23 H           4.6376    1.3103   -2.3181 H       1  UNL1        0.0428
     24 H           7.1401    0.9013   -0.0131 H       1  UNL1        0.0428
     25 H           6.3752   -0.7046    0.0637 H       1  UNL1        0.0428
     26 H           6.1239    0.4507    1.4588 H       1  UNL1        0.0428
     27 H           4.5452   -0.8779    1.5958 H       1  UNL1        0.0637
     28 H           2.3421   -1.7198    2.2895 H       1  UNL1        0.0640
     29 H          -2.1134   -2.1839    2.2296 H       1  UNL1        0.0641
     30 H          -4.4093   -1.7560    1.4108 H       1  UNL1        0.0684
     31 H          -4.8985    1.7539   -1.3761 H       1  UNL1        0.0988
     32 H          -4.8043    0.3644   -2.5787 H       1  UNL1        0.0988
     33 H          -6.3460    0.8260   -1.8164 H       1  UNL1        0.0988
     34 H          -5.9950   -1.9481   -0.0289 H       1  UNL1        0.0988
     35 H          -6.0986   -0.5580    1.1879 H       1  UNL1        0.0988
     36 H          -7.0973   -0.5624   -0.3628 H       1  UNL1        0.0988
     37 H          -2.8993    0.9090   -1.5309 H       1  UNL1        0.0695
     38 H           2.6836    1.4544   -1.4132 H       1  UNL1        0.0648
@<TRIPOS>UNITY_ATOM_ATTR
13 1
charge 1
@<TRIPOS>BOND
     1     1     2    1
     2     2     3    1
     3     2     4    1
     4     4     5   ar
     5     5     6   ar
     6     6     7   ar
     7     7     8   ar
     8     8     9   ar
     9     9    10   ar
    10    10    11   ar
    11    11    12   ar
    12    12    13    2
    13    13    14    1
    14    13    15    1
    15    12    16   ar
    16    16    17   ar
    17    17    18   ar
    18    18    19   ar
    19    19    20   ar
    20    20     4   ar
    21    19     7   ar
    22    17     9    1
    23     1    21    1
    24     1    22    1
    25     1    23    1
    26     3    24    1
    27     3    25    1
    28     3    26    1
    29     5    27    1
    30     6    28    1
    31    10    29    1
    32    11    30    1
    33    14    31    1
    34    14    32    1
    35    14    33    1
    36    15    34    1
    37    15    35    1
    38    15    36    1
    39    16    37    1
    40    20    38    1
