@<TRIPOS>MOLECULE
*****
 48 49 0 0 0
SMALL
GASTEIGER

@<TRIPOS>ATOM
      1 C          -4.8164   -2.3144    1.8469 C.3     1  UNL1        0.0789
      2 O          -4.7305   -1.3248    0.8367 O.3     1  UNL1       -0.4933
      3 C          -3.5005   -0.8454    0.4088 C.ar    1  UNL1        0.1417
      4 C          -2.3110   -1.3007    0.9373 C.ar    1  UNL1       -0.0149
      5 C          -1.1213   -0.7867    0.4717 C.ar    1  UNL1       -0.0181
      6 C          -1.0902    0.1697   -0.5077 C.ar    1  UNL1        0.1235
      7 N           0.1196    0.7362   -1.0295 N.pl3   1  UNL1       -0.2975
      8 C           1.3678    0.4190   -0.4655 C.ar    1  UNL1        0.0683
      9 C           2.3060   -0.2860   -1.1856 C.ar    1  UNL1        0.0034
     10 C           3.5421   -0.6148   -0.6727 C.ar    1  UNL1        0.1430
     11 N           4.5364   -1.3351   -1.3700 N.pl3   1  UNL1       -0.3264
     12 C           5.8157   -1.6701   -0.8214 C.3     1  UNL1        0.0228
     13 C           6.6355   -0.4624   -0.4219 C.3     1  UNL1        0.0086
     14 N           6.8966    0.4081   -1.5412 N.3     1  UNL1       -0.3285
     15 N           3.7665   -0.1947    0.5883 N.ar    1  UNL1       -0.1336
     16 N           2.8933    0.4766    1.2918 N.ar    1  UNL1       -0.1409
     17 C           1.6701    0.8133    0.8085 C.ar    1  UNL1        0.1685
     18 C           0.8312    1.6185    1.6628 C.2     1  UNL1        0.2635
     19 N           1.2240    1.8617    3.0131 N.am    1  UNL1       -0.3240
     20 O          -0.2457    2.1123    1.2372 O.2     1  UNL1       -0.2686
     21 N          -2.2693    0.5956   -1.0053 N.ar    1  UNL1       -0.2329
     22 C          -3.4516    0.1183   -0.5769 C.ar    1  UNL1        0.0874
     23 C          -4.7509    0.6022   -1.1401 C.3     1  UNL1       -0.0007
     24 C          -5.2939    1.7842   -0.3837 C.3     1  UNL1       -0.0571
     25 C          -4.4561    1.0972   -2.5599 C.3     1  UNL1       -0.0571
     26 H          -4.2490   -3.2263    1.5980 H       1  UNL1        0.0660
     27 H          -5.8597   -2.5437    2.0720 H       1  UNL1        0.0660
     28 H          -4.3497   -1.8816    2.7697 H       1  UNL1        0.0660
     29 H          -2.3481   -2.0555    1.7099 H       1  UNL1        0.0656
     30 H          -0.1742   -1.1316    0.8754 H       1  UNL1        0.0653
     31 H           0.0987    1.3932   -1.8353 H       1  UNL1        0.1536
     32 H           2.0823   -0.6052   -2.2004 H       1  UNL1        0.0672
     33 H           4.2960   -1.6353   -2.3609 H       1  UNL1        0.1475
     34 H           6.4086   -2.2404   -1.5468 H       1  UNL1        0.0474
     35 H           5.7381   -2.3211    0.0890 H       1  UNL1        0.0474
     36 H           6.1517    0.0448    0.4321 H       1  UNL1        0.0437
     37 H           7.6177   -0.8382   -0.0578 H       1  UNL1        0.0437
     38 H           6.1848    0.3316   -2.2944 H       1  UNL1        0.1183
     39 H           6.9824    1.3777   -1.1623 H       1  UNL1        0.1183
     40 H           1.3360    1.0491    3.6530 H       1  UNL1        0.1453
     41 H           1.3918    2.8164    3.3434 H       1  UNL1        0.1453
     42 H          -5.5047   -0.2096   -1.1872 H       1  UNL1        0.0360
     43 H          -5.6691    2.5909   -1.0636 H       1  UNL1        0.0236
     44 H          -4.4691    2.2109    0.2237 H       1  UNL1        0.0236
     45 H          -6.1440    1.4812    0.2846 H       1  UNL1        0.0236
     46 H          -3.7404    1.9382   -2.4386 H       1  UNL1        0.0236
     47 H          -3.9662    0.2986   -3.1356 H       1  UNL1        0.0236
     48 H          -5.3815    1.4778   -3.0405 H       1  UNL1        0.0236
@<TRIPOS>BOND
     1     1     2    1
     2     2     3    1
     3     3     4   ar
     4     4     5   ar
     5     5     6   ar
     6     6     7    1
     7     7     8    1
     8     8     9   ar
     9     9    10   ar
    10    10    11    1
    11    11    12    1
    12    12    13    1
    13    13    14    1
    14    10    15   ar
    15    15    16   ar
    16    16    17   ar
    17    17    18    1
    18    18    19   am
    19    18    20    2
    20     6    21   ar
    21    21    22   ar
    22    22    23    1
    23    23    24    1
    24    23    25    1
    25    22     3   ar
    26    17     8   ar
    27     1    26    1
    28     1    27    1
    29     1    28    1
    30     4    29    1
    31     5    30    1
    32     7    31    1
    33     9    32    1
    34    11    33    1
    35    12    34    1
    36    12    35    1
    37    13    36    1
    38    13    37    1
    39    14    38    1
    40    14    39    1
    41    19    40    1
    42    19    41    1
    43    23    42    1
    44    24    43    1
    45    24    44    1
    46    24    45    1
    47    25    46    1
    48    25    47    1
    49    25    48    1
