@<TRIPOS>MOLECULE
*****
 44 45 0 0 0
SMALL
GASTEIGER

@<TRIPOS>ATOM
      1 C          -0.9226   -1.2801    1.1888 C.3     1  UNL1       -0.0619
      2 C          -0.7280   -0.8562   -0.2301 C.3     1  UNL1       -0.0370
      3 C          -1.5373    0.3644   -0.6003 C.3     1  UNL1       -0.0247
      4 C          -2.9952    0.1293   -0.4287 C.ar    1  UNL1       -0.0434
      5 C          -3.5378    0.4358    0.8223 C.ar    1  UNL1       -0.0133
      6 C          -4.8790    0.2606    1.1040 C.ar    1  UNL1        0.1585
      7 O          -5.4053    0.5694    2.3522 O.3     1  UNL1       -0.5033
      8 C          -5.6720   -0.2355    0.0881 C.ar    1  UNL1        0.1582
      9 O          -7.0440   -0.4362    0.3117 O.3     1  UNL1       -0.5033
     10 C          -5.1635   -0.5507   -1.1684 C.ar    1  UNL1       -0.0163
     11 C          -3.8022   -0.3658   -1.4328 C.ar    1  UNL1       -0.0549
     12 C           0.7195   -0.6396   -0.6112 C.3     1  UNL1       -0.0370
     13 C           1.5164   -1.9038   -0.4315 C.3     1  UNL1       -0.0619
     14 C           1.3463    0.5045    0.1576 C.3     1  UNL1       -0.0247
     15 C           2.7808    0.6933   -0.2430 C.ar    1  UNL1       -0.0434
     16 C           3.8851    0.0862    0.3383 C.ar    1  UNL1       -0.0133
     17 C           5.1423    0.3681   -0.1505 C.ar    1  UNL1        0.1585
     18 O           6.2187   -0.2618    0.4612 O.3     1  UNL1       -0.5033
     19 C           5.3313    1.2432   -1.2087 C.ar    1  UNL1        0.1582
     20 O           6.6142    1.5013   -1.6727 O.3     1  UNL1       -0.5033
     21 C           4.2583    1.8765   -1.8249 C.ar    1  UNL1       -0.0163
     22 C           3.0158    1.5612   -1.2984 C.ar    1  UNL1       -0.0549
     23 H          -1.8235   -1.9098    1.3273 H       1  UNL1        0.0233
     24 H          -0.0592   -1.9682    1.4267 H       1  UNL1        0.0233
     25 H          -0.8930   -0.4469    1.9151 H       1  UNL1        0.0233
     26 H          -1.0740   -1.7104   -0.8672 H       1  UNL1        0.0304
     27 H          -1.3018    0.6493   -1.6402 H       1  UNL1        0.0316
     28 H          -1.1957    1.2265    0.0405 H       1  UNL1        0.0316
     29 H          -2.9057    0.8253    1.6141 H       1  UNL1        0.0658
     30 H          -5.2758    1.5440    2.6516 H       1  UNL1        0.2923
     31 H          -7.5350    0.3683    0.6999 H       1  UNL1        0.2923
     32 H          -5.8110   -0.9447   -1.9646 H       1  UNL1        0.0655
     33 H          -3.3677   -0.5988   -2.3972 H       1  UNL1        0.0621
     34 H           0.7316   -0.3531   -1.6820 H       1  UNL1        0.0304
     35 H           1.8158   -2.0046    0.6252 H       1  UNL1        0.0233
     36 H           2.4354   -1.8703   -1.0627 H       1  UNL1        0.0233
     37 H           0.9759   -2.8026   -0.7268 H       1  UNL1        0.0233
     38 H           0.8294    1.4509    0.0090 H       1  UNL1        0.0316
     39 H           1.3596    0.2152    1.2284 H       1  UNL1        0.0316
     40 H           3.6702   -0.5746    1.1465 H       1  UNL1        0.0658
     41 H           7.0383   -0.4033   -0.1352 H       1  UNL1        0.2923
     42 H           6.7048    1.6224   -2.6905 H       1  UNL1        0.2923
     43 H           4.3625    2.5600   -2.6461 H       1  UNL1        0.0655
     44 H           2.1773    2.0615   -1.7863 H       1  UNL1        0.0621
@<TRIPOS>BOND
     1     1     2    1
     2     2     3    1
     3     3     4    1
     4     4     5   ar
     5     5     6   ar
     6     6     7    1
     7     6     8   ar
     8     8     9    1
     9     8    10   ar
    10    10    11   ar
    11     2    12    1
    12    12    13    1
    13    12    14    1
    14    14    15    1
    15    15    16   ar
    16    16    17   ar
    17    17    18    1
    18    17    19   ar
    19    19    20    1
    20    19    21   ar
    21    21    22   ar
    22    11     4   ar
    23    22    15   ar
    24     1    23    1
    25     1    24    1
    26     1    25    1
    27     2    26    1
    28     3    27    1
    29     3    28    1
    30     5    29    1
    31     7    30    1
    32     9    31    1
    33    10    32    1
    34    11    33    1
    35    12    34    1
    36    13    35    1
    37    13    36    1
    38    13    37    1
    39    14    38    1
    40    14    39    1
    41    16    40    1
    42    18    41    1
    43    20    42    1
    44    21    43    1
    45    22    44    1
