@<TRIPOS>MOLECULE
*****
 55 58 0 0 0
SMALL
GASTEIGER

@<TRIPOS>ATOM
      1 C           1.3732    0.6868   -0.2119 C.3     1  UNL1       -0.0296
      2 C           2.2851    1.2434   -1.2337 C.3     1  UNL1       -0.0467
      3 C           3.6498    0.8726   -0.6278 C.3     1  UNL1       -0.0235
      4 C           3.3816   -0.2553    0.3598 C.3     1  UNL1        0.0689
      5 C           3.5274    0.1611    1.7798 C.3     1  UNL1       -0.0356
      6 O           4.2479   -1.3393    0.1586 O.3     1  UNL1       -0.3883
      7 C           2.0156   -0.6781   -0.0711 C.3     1  UNL1       -0.0004
      8 C           2.2192   -1.3504   -1.3985 C.3     1  UNL1       -0.0567
      9 C           1.3134   -1.6102    0.8370 C.3     1  UNL1       -0.0445
     10 C           0.1138   -1.0144    1.4879 C.3     1  UNL1       -0.0486
     11 C          -0.7068   -0.0770    0.7169 C.3     1  UNL1       -0.0286
     12 C          -0.0562    0.4999   -0.5331 C.3     1  UNL1       -0.0311
     13 C          -0.8157    1.7625   -0.8125 C.3     1  UNL1       -0.0368
     14 C          -0.2662    2.6755   -1.8248 C.3     1  UNL1       -0.0619
     15 C          -2.2346    1.3865   -1.1879 C.3     1  UNL1       -0.0280
     16 C          -2.8482    0.5953   -0.0891 C.2     1  UNL1       -0.0598
     17 C          -4.0059    1.0149    0.4506 C.2     1  UNL1       -0.0194
     18 C          -4.5796    0.1955    1.5417 C.2     1  UNL1        0.1561
     19 O          -5.2707    0.8432    2.4006 O.2     1  UNL1       -0.2927
     20 C          -4.2380   -1.2635    1.4347 C.3     1  UNL1        0.0107
     21 C          -2.7239   -1.3397    1.4609 C.3     1  UNL1       -0.0367
     22 C          -2.0827   -0.6205    0.3065 C.3     1  UNL1       -0.0072
     23 C          -1.9906   -1.5597   -0.8711 C.3     1  UNL1       -0.0556
     24 H           1.4573    1.2674    0.6974 H       1  UNL1        0.0310
     25 H           2.1988    0.7968   -2.2464 H       1  UNL1        0.0269
     26 H           2.3316    2.3245   -1.3418 H       1  UNL1        0.0269
     27 H           4.3516    0.5278   -1.4009 H       1  UNL1        0.0293
     28 H           4.1274    1.7207   -0.1195 H       1  UNL1        0.0293
     29 H           2.8054    0.8676    2.1755 H       1  UNL1        0.0257
     30 H           4.5285    0.6481    1.8661 H       1  UNL1        0.0257
     31 H           3.5365   -0.7268    2.4118 H       1  UNL1        0.0257
     32 H           4.8169   -1.1757   -0.6334 H       1  UNL1        0.2102
     33 H           2.4484   -2.4286   -1.1560 H       1  UNL1        0.0236
     34 H           3.1166   -1.0010   -1.9483 H       1  UNL1        0.0236
     35 H           1.3526   -1.3790   -2.0520 H       1  UNL1        0.0236
     36 H           2.0387   -1.9452    1.6088 H       1  UNL1        0.0272
     37 H           1.0188   -2.5603    0.3195 H       1  UNL1        0.0272
     38 H          -0.5279   -1.8814    1.8131 H       1  UNL1        0.0268
     39 H           0.4577   -0.5874    2.4759 H       1  UNL1        0.0268
     40 H          -0.9662    0.7889    1.3982 H       1  UNL1        0.0312
     41 H          -0.2179   -0.1472   -1.4072 H       1  UNL1        0.0309
     42 H          -0.9097    2.2897    0.1742 H       1  UNL1        0.0304
     43 H           0.2540    3.5256   -1.3122 H       1  UNL1        0.0233
     44 H           0.3095    2.2229   -2.6453 H       1  UNL1        0.0233
     45 H          -1.1191    3.1940   -2.3482 H       1  UNL1        0.0233
     46 H          -2.3015    0.9046   -2.1752 H       1  UNL1        0.0313
     47 H          -2.7986    2.3558   -1.3086 H       1  UNL1        0.0313
     48 H          -4.4598    1.9186    0.0695 H       1  UNL1        0.0652
     49 H          -4.6254   -1.6671    0.4565 H       1  UNL1        0.0345
     50 H          -4.6286   -1.8383    2.2724 H       1  UNL1        0.0345
     51 H          -2.4171   -0.8959    2.4493 H       1  UNL1        0.0278
     52 H          -2.4543   -2.4165    1.4069 H       1  UNL1        0.0278
     53 H          -1.0079   -1.9936   -1.0463 H       1  UNL1        0.0238
     54 H          -2.6825   -2.4349   -0.7115 H       1  UNL1        0.0238
     55 H          -2.3414   -1.1033   -1.8157 H       1  UNL1        0.0238
@<TRIPOS>BOND
     1     1     2    1
     2     2     3    1
     3     3     4    1
     4     4     5    1
     5     4     6    1
     6     4     7    1
     7     7     8    1
     8     7     9    1
     9     9    10    1
    10    10    11    1
    11    11    12    1
    12    12    13    1
    13    13    14    1
    14    13    15    1
    15    15    16    1
    16    16    17    2
    17    17    18    1
    18    18    19    2
    19    18    20    1
    20    20    21    1
    21    21    22    1
    22    22    23    1
    23     7     1    1
    24    22    11    1
    25    12     1    1
    26    22    16    1
    27     1    24    1
    28     2    25    1
    29     2    26    1
    30     3    27    1
    31     3    28    1
    32     5    29    1
    33     5    30    1
    34     5    31    1
    35     6    32    1
    36     8    33    1
    37     8    34    1
    38     8    35    1
    39     9    36    1
    40     9    37    1
    41    10    38    1
    42    10    39    1
    43    11    40    1
    44    12    41    1
    45    13    42    1
    46    14    43    1
    47    14    44    1
    48    14    45    1
    49    15    46    1
    50    15    47    1
    51    17    48    1
    52    20    49    1
    53    20    50    1
    54    21    51    1
    55    21    52    1
    56    23    53    1
    57    23    54    1
    58    23    55    1
