
     RDKit          3D

 55 58  0  0  0  0  0  0  0  0999 V2000
    1.3732    0.6868   -0.2119 C   0  0  2  0  0  0  0  0  0  0  0  0
    2.2851    1.2434   -1.2337 C   0  0  0  0  0  0  0  0  0  0  0  0
    3.6498    0.8726   -0.6278 C   0  0  0  0  0  0  0  0  0  0  0  0
    3.3816   -0.2553    0.3598 C   0  0  2  0  0  0  0  0  0  0  0  0
    3.5274    0.1611    1.7798 C   0  0  0  0  0  0  0  0  0  0  0  0
    4.2479   -1.3393    0.1586 O   0  0  0  0  0  0  0  0  0  0  0  0
    2.0156   -0.6781   -0.0711 C   0  0  2  0  0  0  0  0  0  0  0  0
    2.2192   -1.3504   -1.3985 C   0  0  0  0  0  0  0  0  0  0  0  0
    1.3134   -1.6102    0.8370 C   0  0  0  0  0  0  0  0  0  0  0  0
    0.1138   -1.0144    1.4879 C   0  0  0  0  0  0  0  0  0  0  0  0
   -0.7068   -0.0770    0.7169 C   0  0  1  0  0  0  0  0  0  0  0  0
   -0.0562    0.4999   -0.5331 C   0  0  1  0  0  0  0  0  0  0  0  0
   -0.8157    1.7625   -0.8125 C   0  0  1  0  0  0  0  0  0  0  0  0
   -0.2662    2.6755   -1.8248 C   0  0  0  0  0  0  0  0  0  0  0  0
   -2.2346    1.3865   -1.1879 C   0  0  0  0  0  0  0  0  0  0  0  0
   -2.8482    0.5953   -0.0891 C   0  0  0  0  0  0  0  0  0  0  0  0
   -4.0059    1.0149    0.4506 C   0  0  0  0  0  0  0  0  0  0  0  0
   -4.5796    0.1955    1.5417 C   0  0  0  0  0  0  0  0  0  0  0  0
   -5.2707    0.8432    2.4006 O   0  0  0  0  0  0  0  0  0  0  0  0
   -4.2380   -1.2635    1.4347 C   0  0  0  0  0  0  0  0  0  0  0  0
   -2.7239   -1.3397    1.4609 C   0  0  0  0  0  0  0  0  0  0  0  0
   -2.0827   -0.6205    0.3065 C   0  0  2  0  0  0  0  0  0  0  0  0
   -1.9906   -1.5597   -0.8711 C   0  0  0  0  0  0  0  0  0  0  0  0
    1.4573    1.2674    0.6974 H   0  0  0  0  0  0  0  0  0  0  0  0
    2.1988    0.7968   -2.2464 H   0  0  0  0  0  0  0  0  0  0  0  0
    2.3316    2.3245   -1.3418 H   0  0  0  0  0  0  0  0  0  0  0  0
    4.3516    0.5278   -1.4009 H   0  0  0  0  0  0  0  0  0  0  0  0
    4.1274    1.7207   -0.1195 H   0  0  0  0  0  0  0  0  0  0  0  0
    2.8054    0.8676    2.1755 H   0  0  0  0  0  0  0  0  0  0  0  0
    4.5285    0.6481    1.8661 H   0  0  0  0  0  0  0  0  0  0  0  0
    3.5365   -0.7268    2.4118 H   0  0  0  0  0  0  0  0  0  0  0  0
    4.8169   -1.1757   -0.6334 H   0  0  0  0  0  0  0  0  0  0  0  0
    2.4484   -2.4286   -1.1560 H   0  0  0  0  0  0  0  0  0  0  0  0
    3.1166   -1.0010   -1.9483 H   0  0  0  0  0  0  0  0  0  0  0  0
    1.3526   -1.3790   -2.0520 H   0  0  0  0  0  0  0  0  0  0  0  0
    2.0387   -1.9452    1.6088 H   0  0  0  0  0  0  0  0  0  0  0  0
    1.0188   -2.5603    0.3195 H   0  0  0  0  0  0  0  0  0  0  0  0
   -0.5279   -1.8814    1.8131 H   0  0  0  0  0  0  0  0  0  0  0  0
    0.4577   -0.5874    2.4759 H   0  0  0  0  0  0  0  0  0  0  0  0
   -0.9662    0.7889    1.3982 H   0  0  0  0  0  0  0  0  0  0  0  0
   -0.2179   -0.1472   -1.4072 H   0  0  0  0  0  0  0  0  0  0  0  0
   -0.9097    2.2897    0.1742 H   0  0  0  0  0  0  0  0  0  0  0  0
    0.2540    3.5256   -1.3122 H   0  0  0  0  0  0  0  0  0  0  0  0
    0.3095    2.2229   -2.6453 H   0  0  0  0  0  0  0  0  0  0  0  0
   -1.1191    3.1940   -2.3482 H   0  0  0  0  0  0  0  0  0  0  0  0
   -2.3015    0.9046   -2.1752 H   0  0  0  0  0  0  0  0  0  0  0  0
   -2.7986    2.3558   -1.3086 H   0  0  0  0  0  0  0  0  0  0  0  0
   -4.4598    1.9186    0.0695 H   0  0  0  0  0  0  0  0  0  0  0  0
   -4.6254   -1.6671    0.4565 H   0  0  0  0  0  0  0  0  0  0  0  0
   -4.6286   -1.8383    2.2724 H   0  0  0  0  0  0  0  0  0  0  0  0
   -2.4171   -0.8959    2.4493 H   0  0  0  0  0  0  0  0  0  0  0  0
   -2.4543   -2.4165    1.4069 H   0  0  0  0  0  0  0  0  0  0  0  0
   -1.0079   -1.9936   -1.0463 H   0  0  0  0  0  0  0  0  0  0  0  0
   -2.6825   -2.4349   -0.7115 H   0  0  0  0  0  0  0  0  0  0  0  0
   -2.3414   -1.1033   -1.8157 H   0  0  0  0  0  0  0  0  0  0  0  0
  1  2  1  0
  2  3  1  0
  3  4  1  0
  4  5  1  0
  4  6  1  6
  4  7  1  0
  7  8  1  6
  7  9  1  0
  9 10  1  0
 10 11  1  0
 11 12  1  0
 12 13  1  0
 13 14  1  0
 13 15  1  0
 15 16  1  0
 16 17  2  0
 17 18  1  0
 18 19  2  0
 18 20  1  0
 20 21  1  0
 21 22  1  0
 22 23  1  6
  7  1  1  0
 22 11  1  0
 12  1  1  0
 22 16  1  0
  1 24  1  1
  2 25  1  0
  2 26  1  0
  3 27  1  0
  3 28  1  0
  5 29  1  0
  5 30  1  0
  5 31  1  0
  6 32  1  0
  8 33  1  0
  8 34  1  0
  8 35  1  0
  9 36  1  0
  9 37  1  0
 10 38  1  0
 10 39  1  0
 11 40  1  1
 12 41  1  6
 13 42  1  1
 14 43  1  0
 14 44  1  0
 14 45  1  0
 15 46  1  0
 15 47  1  0
 17 48  1  0
 20 49  1  0
 20 50  1  0
 21 51  1  0
 21 52  1  0
 23 53  1  0
 23 54  1  0
 23 55  1  0
M  END
$$$$
