@<TRIPOS>MOLECULE
*****
 89 91 0 0 0
SMALL
GASTEIGER

@<TRIPOS>ATOM
      1 C          10.6148   -1.6441   -0.0443 C.3     1  UNL1        0.1984
      2 F          10.7245   -2.8465    0.6404 F       1  UNL1       -0.2335
      3 C           9.4644   -0.8165    0.5056 C.3     1  UNL1        0.0085
      4 C           9.3737    0.4848   -0.2623 C.3     1  UNL1        0.0462
      5 N           8.2925    1.3044    0.2271 N.2     1  UNL1       -0.2546
      6 C           7.6681    2.0951   -0.5647 C.2     1  UNL1        0.1842
      7 O           8.0108    2.1858   -1.9064 O.2     1  UNL1       -0.4956
      8 C           6.5550    2.9330   -0.0412 C.3     1  UNL1        0.0426
      9 C           5.3021    2.5521   -0.8134 C.3     1  UNL1        0.0515
     10 N           4.9738    1.1656   -0.6496 N.2     1  UNL1       -0.2521
     11 C           4.3737    0.6345    0.3469 C.2     1  UNL1        0.2127
     12 O           4.2885    1.8765    0.9468 O.2     1  UNL1       -0.4939
     13 C           4.1482   -0.8462    0.2759 C.3     1  UNL1        0.1371
     14 O           4.6471   -1.4010   -0.9003 O.3     1  UNL1       -0.3818
     15 C           2.6728   -1.1943    0.4592 C.3     1  UNL1        0.0236
     16 C           2.5988   -2.7152    0.3640 C.3     1  UNL1       -0.0549
     17 C           2.2302   -0.6871    1.7930 C.3     1  UNL1       -0.0549
     18 C           1.8288   -0.5647   -0.6099 C.3     1  UNL1        0.0670
     19 O           0.4724   -0.8767   -0.4530 O.3     1  UNL1       -0.2857
     20 P          -0.4951   -0.1841   -1.6376 P.3     1  UNL1        0.4834
     21 O           0.3055   -0.0141   -3.1236 O.3     1  UNL1       -0.3022
     22 O          -1.7278   -1.0433   -1.9092 O.2     1  UNL1       -0.2269
     23 O          -1.0462    1.3048   -1.0533 O.3     1  UNL1       -0.1861
     24 P          -2.2104    0.9794    0.1549 P.3     1  UNL1        0.4835
     25 O          -1.6614    1.5733    1.6408 O.3     1  UNL1       -0.3022
     26 O          -2.4609   -0.4936    0.2990 O.2     1  UNL1       -0.2269
     27 O          -3.6647    1.7229   -0.2014 O.3     1  UNL1       -0.2837
     28 C          -4.5301    0.7986   -0.7966 C.3     1  UNL1        0.0879
     29 C          -5.8613    1.4905   -1.1216 C.3     1  UNL1        0.1142
     30 O          -6.6631    0.5375   -1.7002 O.3     1  UNL1       -0.3456
     31 C          -7.5478    0.0355   -0.7837 C.3     1  UNL1        0.1667
     32 N          -7.5936   -1.4027   -0.8083 N.ar    1  UNL1       -0.2855
     33 C          -6.9825   -2.1654   -1.7522 C.ar    1  UNL1        0.1004
     34 N          -7.2497   -3.4626   -1.4436 N.ar    1  UNL1       -0.2306
     35 C          -8.0035   -3.4896   -0.3409 C.ar    1  UNL1        0.1473
     36 C          -8.5571   -4.5381    0.4032 C.ar    1  UNL1        0.1472
     37 N          -8.3473   -5.8935    0.0090 N.pl3   1  UNL1       -0.3413
     38 N          -9.2867   -4.2237    1.4923 N.ar    1  UNL1       -0.2188
     39 C          -9.4825   -2.9448    1.8608 C.ar    1  UNL1        0.1205
     40 N          -8.9734   -1.8761    1.1831 N.ar    1  UNL1       -0.2159
     41 C          -8.2360   -2.1759    0.0835 C.ar    1  UNL1        0.1674
     42 C          -7.2080    0.6199    0.5618 C.3     1  UNL1        0.1294
     43 O          -8.3408    0.9241    1.3161 O.3     1  UNL1       -0.3846
     44 C          -6.4454    1.8926    0.2002 C.3     1  UNL1        0.1283
     45 O          -7.3429    2.9121    0.1863 O.3     1  UNL1       -0.2780
     46 P          -7.0081    4.1984    1.2081 P.3     1  UNL1        0.4728
     47 O          -6.2169    5.4729    0.4640 O.3     1  UNL1       -0.3026
     48 O          -8.4906    4.7785    1.7861 O.3     1  UNL1       -0.3026
     49 O          -6.2307    3.7587    2.4491 O.2     1  UNL1       -0.2275
     50 C          11.8906   -0.8887    0.1915 C.2     1  UNL1        0.3392
     51 O          12.1469   -0.6317    1.5456 O.3     1  UNL1       -0.4786
     52 O          12.6369   -0.5341   -0.7551 O.2     1  UNL1       -0.2477
     53 H          10.4487   -1.8481   -1.1091 H       1  UNL1        0.0770
     54 H           8.5350   -1.4111    0.3119 H       1  UNL1        0.0316
     55 H           9.6556   -0.6458    1.5772 H       1  UNL1        0.0316
     56 H          10.3377    1.0196   -0.1434 H       1  UNL1        0.0510
     57 H           9.2644    0.2244   -1.3493 H       1  UNL1        0.0510
     58 H           8.9942    2.0719   -2.1694 H       1  UNL1        0.2934
     59 H           6.4281    2.8110    1.0399 H       1  UNL1        0.0377
     60 H           6.7784    3.9953   -0.2762 H       1  UNL1        0.0377
     61 H           5.4235    2.7780   -1.8925 H       1  UNL1        0.0514
     62 H           4.4343    3.1550   -0.4845 H       1  UNL1        0.0514
     63 H           3.3844    2.3154    1.0476 H       1  UNL1        0.2935
     64 H           4.7120   -1.3140    1.1097 H       1  UNL1        0.0697
     65 H           5.6101   -1.5793   -0.8656 H       1  UNL1        0.2105
     66 H           2.6000   -2.9934   -0.7011 H       1  UNL1        0.0237
     67 H           1.6565   -3.0868    0.8177 H       1  UNL1        0.0237
     68 H           3.5157   -3.1119    0.8785 H       1  UNL1        0.0237
     69 H           2.0547   -1.5109    2.5246 H       1  UNL1        0.0237
     70 H           2.9803    0.0498    2.1989 H       1  UNL1        0.0237
     71 H           1.2609   -0.1229    1.7416 H       1  UNL1        0.0237
     72 H           2.1654   -0.8604   -1.6398 H       1  UNL1        0.0572
     73 H           1.9181    0.5353   -0.5171 H       1  UNL1        0.0572
     74 H           0.3978   -0.9094   -3.5174 H       1  UNL1        0.2220
     75 H          -2.3882    1.4158    2.2911 H       1  UNL1        0.2220
     76 H          -4.7166    0.0122   -0.0350 H       1  UNL1        0.0592
     77 H          -4.0885    0.3891   -1.7262 H       1  UNL1        0.0592
     78 H          -5.6024    2.3489   -1.7439 H       1  UNL1        0.0647
     79 H          -8.5737    0.3937   -1.0756 H       1  UNL1        0.0866
     80 H          -6.3947   -1.8119   -2.5910 H       1  UNL1        0.1030
     81 H          -8.0032   -6.5841    0.7274 H       1  UNL1        0.1438
     82 H          -8.5642   -6.0943   -1.0104 H       1  UNL1        0.1438
     83 H         -10.1015   -2.9151    2.7694 H       1  UNL1        0.1048
     84 H          -6.5022    0.0184    1.1443 H       1  UNL1        0.0666
     85 H          -8.1539    1.7385    1.8652 H       1  UNL1        0.2101
     86 H          -5.6370    2.1197    0.9112 H       1  UNL1        0.0656
     87 H          -5.9966    5.3502   -0.4741 H       1  UNL1        0.2220
     88 H          -8.2776    5.6978    2.1442 H       1  UNL1        0.2220
     89 H          13.0884   -0.3176    1.7874 H       1  UNL1        0.2951
@<TRIPOS>BOND
     1     1     2    1
     2     1     3    1
     3     3     4    1
     4     4     5    1
     5     5     6    2
     6     6     7    1
     7     6     8    1
     8     8     9    1
     9     9    10    1
    10    10    11    2
    11    11    12    1
    12    11    13    1
    13    13    14    1
    14    13    15    1
    15    15    16    1
    16    15    17    1
    17    15    18    1
    18    18    19    1
    19    19    20    1
    20    20    21    1
    21    20    22    2
    22    20    23    1
    23    23    24    1
    24    24    25    1
    25    24    26    2
    26    24    27    1
    27    27    28    1
    28    28    29    1
    29    29    30    1
    30    30    31    1
    31    31    32    1
    32    32    33   ar
    33    33    34   ar
    34    34    35   ar
    35    35    36   ar
    36    36    37    1
    37    36    38   ar
    38    38    39   ar
    39    39    40   ar
    40    40    41   ar
    41    31    42    1
    42    42    43    1
    43    42    44    1
    44    44    45    1
    45    45    46    1
    46    46    47    1
    47    46    48    1
    48    46    49    2
    49     1    50    1
    50    50    51    1
    51    50    52    2
    52    44    29    1
    53    41    32   ar
    54    41    35   ar
    55     1    53    1
    56     3    54    1
    57     3    55    1
    58     4    56    1
    59     4    57    1
    60     7    58    1
    61     8    59    1
    62     8    60    1
    63     9    61    1
    64     9    62    1
    65    12    63    1
    66    13    64    1
    67    14    65    1
    68    16    66    1
    69    16    67    1
    70    16    68    1
    71    17    69    1
    72    17    70    1
    73    17    71    1
    74    18    72    1
    75    18    73    1
    76    21    74    1
    77    25    75    1
    78    28    76    1
    79    28    77    1
    80    29    78    1
    81    31    79    1
    82    33    80    1
    83    37    81    1
    84    37    82    1
    85    39    83    1
    86    42    84    1
    87    43    85    1
    88    44    86    1
    89    47    87    1
    90    48    88    1
    91    51    89    1
