
     RDKit          3D

 89 91  0  0  0  0  0  0  0  0999 V2000
   10.6148   -1.6441   -0.0443 C   0  0  1  0  0  0  0  0  0  0  0  0
   10.7245   -2.8465    0.6404 F   0  0  0  0  0  0  0  0  0  0  0  0
    9.4644   -0.8165    0.5056 C   0  0  0  0  0  0  0  0  0  0  0  0
    9.3737    0.4848   -0.2623 C   0  0  0  0  0  0  0  0  0  0  0  0
    8.2925    1.3044    0.2271 N   0  0  0  0  0  0  0  0  0  0  0  0
    7.6681    2.0951   -0.5647 C   0  0  0  0  0  0  0  0  0  0  0  0
    8.0108    2.1858   -1.9064 O   0  0  0  0  0  0  0  0  0  0  0  0
    6.5550    2.9330   -0.0412 C   0  0  0  0  0  0  0  0  0  0  0  0
    5.3021    2.5521   -0.8134 C   0  0  0  0  0  0  0  0  0  0  0  0
    4.9738    1.1656   -0.6496 N   0  0  0  0  0  0  0  0  0  0  0  0
    4.3737    0.6345    0.3469 C   0  0  0  0  0  0  0  0  0  0  0  0
    4.2885    1.8765    0.9468 O   0  0  0  0  0  0  0  0  0  0  0  0
    4.1482   -0.8462    0.2759 C   0  0  2  0  0  0  0  0  0  0  0  0
    4.6471   -1.4010   -0.9003 O   0  0  0  0  0  0  0  0  0  0  0  0
    2.6728   -1.1943    0.4592 C   0  0  0  0  0  0  0  0  0  0  0  0
    2.5988   -2.7152    0.3640 C   0  0  0  0  0  0  0  0  0  0  0  0
    2.2302   -0.6871    1.7930 C   0  0  0  0  0  0  0  0  0  0  0  0
    1.8288   -0.5647   -0.6099 C   0  0  0  0  0  0  0  0  0  0  0  0
    0.4724   -0.8767   -0.4530 O   0  0  0  0  0  0  0  0  0  0  0  0
   -0.4951   -0.1841   -1.6376 P   0  0  0  0  0  0  0  0  0  0  0  0
    0.3055   -0.0141   -3.1236 O   0  0  0  0  0  0  0  0  0  0  0  0
   -1.7278   -1.0433   -1.9092 O   0  0  0  0  0  0  0  0  0  0  0  0
   -1.0462    1.3048   -1.0533 O   0  0  0  0  0  0  0  0  0  0  0  0
   -2.2104    0.9794    0.1549 P   0  0  0  0  0  0  0  0  0  0  0  0
   -1.6614    1.5733    1.6408 O   0  0  0  0  0  0  0  0  0  0  0  0
   -2.4609   -0.4936    0.2990 O   0  0  0  0  0  0  0  0  0  0  0  0
   -3.6647    1.7229   -0.2014 O   0  0  0  0  0  0  0  0  0  0  0  0
   -4.5301    0.7986   -0.7966 C   0  0  0  0  0  0  0  0  0  0  0  0
   -5.8613    1.4905   -1.1216 C   0  0  1  0  0  0  0  0  0  0  0  0
   -6.6631    0.5375   -1.7002 O   0  0  0  0  0  0  0  0  0  0  0  0
   -7.5478    0.0355   -0.7837 C   0  0  1  0  0  0  0  0  0  0  0  0
   -7.5936   -1.4027   -0.8083 N   0  0  0  0  0  0  0  0  0  0  0  0
   -6.9825   -2.1654   -1.7522 C   0  0  0  0  0  0  0  0  0  0  0  0
   -7.2497   -3.4626   -1.4436 N   0  0  0  0  0  0  0  0  0  0  0  0
   -8.0035   -3.4896   -0.3409 C   0  0  0  0  0  0  0  0  0  0  0  0
   -8.5571   -4.5381    0.4032 C   0  0  0  0  0  0  0  0  0  0  0  0
   -8.3473   -5.8935    0.0090 N   0  0  0  0  0  0  0  0  0  0  0  0
   -9.2867   -4.2237    1.4923 N   0  0  0  0  0  0  0  0  0  0  0  0
   -9.4825   -2.9448    1.8608 C   0  0  0  0  0  0  0  0  0  0  0  0
   -8.9734   -1.8761    1.1831 N   0  0  0  0  0  0  0  0  0  0  0  0
   -8.2360   -2.1759    0.0835 C   0  0  0  0  0  0  0  0  0  0  0  0
   -7.2080    0.6199    0.5618 C   0  0  2  0  0  0  0  0  0  0  0  0
   -8.3408    0.9241    1.3161 O   0  0  0  0  0  0  0  0  0  0  0  0
   -6.4454    1.8926    0.2002 C   0  0  2  0  0  0  0  0  0  0  0  0
   -7.3429    2.9121    0.1863 O   0  0  0  0  0  0  0  0  0  0  0  0
   -7.0081    4.1984    1.2081 P   0  0  0  0  0  0  0  0  0  0  0  0
   -6.2169    5.4729    0.4640 O   0  0  0  0  0  0  0  0  0  0  0  0
   -8.4906    4.7785    1.7861 O   0  0  0  0  0  0  0  0  0  0  0  0
   -6.2307    3.7587    2.4491 O   0  0  0  0  0  0  0  0  0  0  0  0
   11.8906   -0.8887    0.1915 C   0  0  0  0  0  0  0  0  0  0  0  0
   12.1469   -0.6317    1.5456 O   0  0  0  0  0  0  0  0  0  0  0  0
   12.6369   -0.5341   -0.7551 O   0  0  0  0  0  0  0  0  0  0  0  0
   10.4487   -1.8481   -1.1091 H   0  0  0  0  0  0  0  0  0  0  0  0
    8.5350   -1.4111    0.3119 H   0  0  0  0  0  0  0  0  0  0  0  0
    9.6556   -0.6458    1.5772 H   0  0  0  0  0  0  0  0  0  0  0  0
   10.3377    1.0196   -0.1434 H   0  0  0  0  0  0  0  0  0  0  0  0
    9.2644    0.2244   -1.3493 H   0  0  0  0  0  0  0  0  0  0  0  0
    8.9942    2.0719   -2.1694 H   0  0  0  0  0  0  0  0  0  0  0  0
    6.4281    2.8110    1.0399 H   0  0  0  0  0  0  0  0  0  0  0  0
    6.7784    3.9953   -0.2762 H   0  0  0  0  0  0  0  0  0  0  0  0
    5.4235    2.7780   -1.8925 H   0  0  0  0  0  0  0  0  0  0  0  0
    4.4343    3.1550   -0.4845 H   0  0  0  0  0  0  0  0  0  0  0  0
    3.3844    2.3154    1.0476 H   0  0  0  0  0  0  0  0  0  0  0  0
    4.7120   -1.3140    1.1097 H   0  0  0  0  0  0  0  0  0  0  0  0
    5.6101   -1.5793   -0.8656 H   0  0  0  0  0  0  0  0  0  0  0  0
    2.6000   -2.9934   -0.7011 H   0  0  0  0  0  0  0  0  0  0  0  0
    1.6565   -3.0868    0.8177 H   0  0  0  0  0  0  0  0  0  0  0  0
    3.5157   -3.1119    0.8785 H   0  0  0  0  0  0  0  0  0  0  0  0
    2.0547   -1.5109    2.5246 H   0  0  0  0  0  0  0  0  0  0  0  0
    2.9803    0.0498    2.1989 H   0  0  0  0  0  0  0  0  0  0  0  0
    1.2609   -0.1229    1.7416 H   0  0  0  0  0  0  0  0  0  0  0  0
    2.1654   -0.8604   -1.6398 H   0  0  0  0  0  0  0  0  0  0  0  0
    1.9181    0.5353   -0.5171 H   0  0  0  0  0  0  0  0  0  0  0  0
    0.3978   -0.9094   -3.5174 H   0  0  0  0  0  0  0  0  0  0  0  0
   -2.3882    1.4158    2.2911 H   0  0  0  0  0  0  0  0  0  0  0  0
   -4.7166    0.0122   -0.0350 H   0  0  0  0  0  0  0  0  0  0  0  0
   -4.0885    0.3891   -1.7262 H   0  0  0  0  0  0  0  0  0  0  0  0
   -5.6024    2.3489   -1.7439 H   0  0  0  0  0  0  0  0  0  0  0  0
   -8.5737    0.3937   -1.0756 H   0  0  0  0  0  0  0  0  0  0  0  0
   -6.3947   -1.8119   -2.5910 H   0  0  0  0  0  0  0  0  0  0  0  0
   -8.0032   -6.5841    0.7274 H   0  0  0  0  0  0  0  0  0  0  0  0
   -8.5642   -6.0943   -1.0104 H   0  0  0  0  0  0  0  0  0  0  0  0
  -10.1015   -2.9151    2.7694 H   0  0  0  0  0  0  0  0  0  0  0  0
   -6.5022    0.0184    1.1443 H   0  0  0  0  0  0  0  0  0  0  0  0
   -8.1539    1.7385    1.8652 H   0  0  0  0  0  0  0  0  0  0  0  0
   -5.6370    2.1197    0.9112 H   0  0  0  0  0  0  0  0  0  0  0  0
   -5.9966    5.3502   -0.4741 H   0  0  0  0  0  0  0  0  0  0  0  0
   -8.2776    5.6978    2.1442 H   0  0  0  0  0  0  0  0  0  0  0  0
   13.0884   -0.3176    1.7874 H   0  0  0  0  0  0  0  0  0  0  0  0
  1  2  1  0
  1  3  1  0
  3  4  1  0
  4  5  1  0
  5  6  2  3
  6  7  1  0
  6  8  1  0
  8  9  1  0
  9 10  1  0
 10 11  2  3
 11 12  1  0
 11 13  1  0
 13 14  1  0
 13 15  1  0
 15 16  1  0
 15 17  1  0
 15 18  1  0
 18 19  1  0
 19 20  1  0
 20 21  1  0
 20 22  2  0
 20 23  1  0
 23 24  1  0
 24 25  1  0
 24 26  2  0
 24 27  1  0
 27 28  1  0
 28 29  1  0
 29 30  1  0
 30 31  1  0
 31 32  1  0
 32 33  1  0
 33 34  2  0
 34 35  1  0
 35 36  2  0
 36 37  1  0
 36 38  1  0
 38 39  2  0
 39 40  1  0
 40 41  2  0
 31 42  1  0
 42 43  1  0
 42 44  1  0
 44 45  1  0
 45 46  1  0
 46 47  1  0
 46 48  1  0
 46 49  2  0
  1 50  1  0
 50 51  1  0
 50 52  2  0
 44 29  1  0
 41 32  1  0
 41 35  1  0
  1 53  1  6
  3 54  1  0
  3 55  1  0
  4 56  1  0
  4 57  1  0
  7 58  1  0
  8 59  1  0
  8 60  1  0
  9 61  1  0
  9 62  1  0
 12 63  1  0
 13 64  1  1
 14 65  1  0
 16 66  1  0
 16 67  1  0
 16 68  1  0
 17 69  1  0
 17 70  1  0
 17 71  1  0
 18 72  1  0
 18 73  1  0
 21 74  1  0
 25 75  1  0
 28 76  1  0
 28 77  1  0
 29 78  1  6
 31 79  1  6
 33 80  1  0
 37 81  1  0
 37 82  1  0
 39 83  1  0
 42 84  1  1
 43 85  1  0
 44 86  1  1
 47 87  1  0
 48 88  1  0
 51 89  1  0
M  END
$$$$
