@<TRIPOS>MOLECULE
*****
 76 80 0 0 0
SMALL
GASTEIGER

@<TRIPOS>ATOM
      1 C          -4.3524    5.4397    1.2304 C.3     1  UNL1       -0.0397
      2 C          -4.4881    3.9858    0.9891 C.ar    1  UNL1       -0.0503
      3 C          -4.2650    3.0389    1.9721 C.ar    1  UNL1       -0.0568
      4 C          -4.3982    1.6894    1.7253 C.ar    1  UNL1       -0.0359
      5 C          -4.7637    1.2479    0.4689 C.ar    1  UNL1        0.0674
      6 N          -4.9135   -0.1436    0.1776 N.ar    1  UNL1       -0.2181
      7 N          -5.8552   -0.8986    0.7548 N.ar    1  UNL1       -0.1691
      8 C          -5.7728   -2.1692    0.3003 C.ar    1  UNL1        0.0706
      9 C          -6.6517   -3.3234    0.7008 C.3     1  UNL1        0.0063
     10 C          -6.0580   -4.0154    1.9048 C.3     1  UNL1       -0.0546
     11 C          -6.7130   -4.2489   -0.4927 C.3     1  UNL1       -0.0546
     12 C          -8.0358   -2.8650    1.0199 C.3     1  UNL1       -0.0546
     13 C          -4.7243   -2.1639   -0.5951 C.ar    1  UNL1        0.0021
     14 C          -4.1804   -0.8806   -0.6724 C.ar    1  UNL1        0.1299
     15 N          -3.0921   -0.4504   -1.4807 N.am    1  UNL1       -0.2538
     16 C          -1.7497   -0.5042   -1.0617 C.2     1  UNL1        0.3092
     17 O          -1.5000   -0.9577    0.0881 O.2     1  UNL1       -0.2521
     18 N          -0.6642   -0.0618   -1.8986 N.am    1  UNL1       -0.2686
     19 C           0.6842   -0.1258   -1.4688 C.ar    1  UNL1        0.0427
     20 C           1.2182    0.9531   -0.8014 C.ar    1  UNL1       -0.0364
     21 C           2.5267    0.9277   -0.3676 C.ar    1  UNL1       -0.0176
     22 C           3.2985   -0.1896   -0.6079 C.ar    1  UNL1        0.1283
     23 O           4.6085   -0.2628   -0.1951 O.3     1  UNL1       -0.4901
     24 C           5.2138    0.8135    0.4949 C.3     1  UNL1        0.1023
     25 C           6.6402    0.4679    0.8252 C.3     1  UNL1        0.0333
     26 N           7.3466    1.4864    1.5240 N.3     1  UNL1       -0.2948
     27 C           7.6182    2.6672    0.7930 C.3     1  UNL1        0.0225
     28 C           9.0380    3.0482    0.6121 C.3     1  UNL1        0.0604
     29 O           9.9407    2.0250    0.8974 O.3     1  UNL1       -0.3772
     30 C           9.6785    1.6989    2.2503 C.3     1  UNL1        0.0604
     31 C           8.4336    0.8868    2.2443 C.3     1  UNL1        0.0225
     32 C           2.7672   -1.2867   -1.2825 C.ar    1  UNL1        0.0256
     33 C           3.5235   -2.4109   -1.5304 C.ar    1  UNL1       -0.0505
     34 C           2.9407   -3.4861   -2.2121 C.ar    1  UNL1       -0.0611
     35 C           1.6396   -3.4334   -2.6310 C.ar    1  UNL1       -0.0611
     36 C           0.8905   -2.3288   -2.3894 C.ar    1  UNL1       -0.0521
     37 C           1.4533   -1.2542   -1.7150 C.ar    1  UNL1        0.0069
     38 C          -4.9912    2.1740   -0.5267 C.ar    1  UNL1       -0.0359
     39 C          -4.8533    3.5415   -0.2660 C.ar    1  UNL1       -0.0568
     40 H          -4.5972    5.7273    2.2625 H       1  UNL1        0.0278
     41 H          -5.0830    5.9468    0.5520 H       1  UNL1        0.0278
     42 H          -3.3141    5.7516    1.0173 H       1  UNL1        0.0278
     43 H          -3.9782    3.4325    2.9519 H       1  UNL1        0.0621
     44 H          -4.2114    1.0002    2.5308 H       1  UNL1        0.0639
     45 H          -6.8492   -4.3965    2.6078 H       1  UNL1        0.0239
     46 H          -5.5214   -4.9162    1.5414 H       1  UNL1        0.0239
     47 H          -5.3688   -3.3707    2.4678 H       1  UNL1        0.0239
     48 H          -7.2794   -5.1619   -0.2151 H       1  UNL1        0.0239
     49 H          -5.6929   -4.5064   -0.8260 H       1  UNL1        0.0239
     50 H          -7.2240   -3.7162   -1.3139 H       1  UNL1        0.0239
     51 H          -8.7277   -3.7333    0.8358 H       1  UNL1        0.0239
     52 H          -8.1695   -2.5942    2.0856 H       1  UNL1        0.0239
     53 H          -8.3891   -2.0693    0.3294 H       1  UNL1        0.0239
     54 H          -4.3621   -2.9972   -1.1566 H       1  UNL1        0.0671
     55 H          -3.2599   -0.0627   -2.4544 H       1  UNL1        0.1578
     56 H          -0.8824    0.3202   -2.8587 H       1  UNL1        0.1564
     57 H           0.6495    1.8540   -0.5895 H       1  UNL1        0.0637
     58 H           2.9235    1.7796    0.1509 H       1  UNL1        0.0655
     59 H           4.6533    0.9630    1.4611 H       1  UNL1        0.0709
     60 H           5.0995    1.7237   -0.0873 H       1  UNL1        0.0709
     61 H           6.6538   -0.4683    1.4193 H       1  UNL1        0.0460
     62 H           7.1534    0.2206   -0.1452 H       1  UNL1        0.0460
     63 H           7.1054    3.5131    1.3488 H       1  UNL1        0.0449
     64 H           7.1610    2.5521   -0.2185 H       1  UNL1        0.0449
     65 H           9.2780    3.9490    1.2498 H       1  UNL1        0.0572
     66 H           9.2175    3.3855   -0.4174 H       1  UNL1        0.0572
     67 H           9.5513    2.6752    2.7778 H       1  UNL1        0.0572
     68 H          10.5055    1.1432    2.6918 H       1  UNL1        0.0572
     69 H           8.0604    0.6404    3.2665 H       1  UNL1        0.0449
     70 H           8.6968   -0.0992    1.7552 H       1  UNL1        0.0449
     71 H           4.5350   -2.4372   -1.1983 H       1  UNL1        0.0625
     72 H           3.5438   -4.3572   -2.3982 H       1  UNL1        0.0618
     73 H           1.1577   -4.2636   -3.1680 H       1  UNL1        0.0618
     74 H          -0.1608   -2.2302   -2.7028 H       1  UNL1        0.0624
     75 H          -5.2781    1.9036   -1.5281 H       1  UNL1        0.0639
     76 H          -5.0339    4.2682   -1.0546 H       1  UNL1        0.0621
@<TRIPOS>BOND
     1     1     2    1
     2     2     3   ar
     3     3     4   ar
     4     4     5   ar
     5     5     6    1
     6     6     7   ar
     7     7     8   ar
     8     8     9    1
     9     9    10    1
    10     9    11    1
    11     9    12    1
    12     8    13   ar
    13    13    14   ar
    14    14    15    1
    15    15    16   am
    16    16    17    2
    17    16    18   am
    18    18    19    1
    19    19    20   ar
    20    20    21   ar
    21    21    22   ar
    22    22    23    1
    23    23    24    1
    24    24    25    1
    25    25    26    1
    26    26    27    1
    27    27    28    1
    28    28    29    1
    29    29    30    1
    30    30    31    1
    31    22    32   ar
    32    32    33   ar
    33    33    34   ar
    34    34    35   ar
    35    35    36   ar
    36    36    37   ar
    37     5    38   ar
    38    38    39   ar
    39    39     2   ar
    40    14     6   ar
    41    37    19   ar
    42    31    26    1
    43    37    32   ar
    44     1    40    1
    45     1    41    1
    46     1    42    1
    47     3    43    1
    48     4    44    1
    49    10    45    1
    50    10    46    1
    51    10    47    1
    52    11    48    1
    53    11    49    1
    54    11    50    1
    55    12    51    1
    56    12    52    1
    57    12    53    1
    58    13    54    1
    59    15    55    1
    60    18    56    1
    61    20    57    1
    62    21    58    1
    63    24    59    1
    64    24    60    1
    65    25    61    1
    66    25    62    1
    67    27    63    1
    68    27    64    1
    69    28    65    1
    70    28    66    1
    71    30    67    1
    72    30    68    1
    73    31    69    1
    74    31    70    1
    75    33    71    1
    76    34    72    1
    77    35    73    1
    78    36    74    1
    79    38    75    1
    80    39    76    1
