
     RDKit          3D

 76 80  0  0  0  0  0  0  0  0999 V2000
   -4.3524    5.4397    1.2304 C   0  0  0  0  0  0  0  0  0  0  0  0
   -4.4881    3.9858    0.9891 C   0  0  0  0  0  0  0  0  0  0  0  0
   -4.2650    3.0389    1.9721 C   0  0  0  0  0  0  0  0  0  0  0  0
   -4.3982    1.6894    1.7253 C   0  0  0  0  0  0  0  0  0  0  0  0
   -4.7637    1.2479    0.4689 C   0  0  0  0  0  0  0  0  0  0  0  0
   -4.9135   -0.1436    0.1776 N   0  0  0  0  0  0  0  0  0  0  0  0
   -5.8552   -0.8986    0.7548 N   0  0  0  0  0  0  0  0  0  0  0  0
   -5.7728   -2.1692    0.3003 C   0  0  0  0  0  0  0  0  0  0  0  0
   -6.6517   -3.3234    0.7008 C   0  0  0  0  0  0  0  0  0  0  0  0
   -6.0580   -4.0154    1.9048 C   0  0  0  0  0  0  0  0  0  0  0  0
   -6.7130   -4.2489   -0.4927 C   0  0  0  0  0  0  0  0  0  0  0  0
   -8.0358   -2.8650    1.0199 C   0  0  0  0  0  0  0  0  0  0  0  0
   -4.7243   -2.1639   -0.5951 C   0  0  0  0  0  0  0  0  0  0  0  0
   -4.1804   -0.8806   -0.6724 C   0  0  0  0  0  0  0  0  0  0  0  0
   -3.0921   -0.4504   -1.4807 N   0  0  0  0  0  0  0  0  0  0  0  0
   -1.7497   -0.5042   -1.0617 C   0  0  0  0  0  0  0  0  0  0  0  0
   -1.5000   -0.9577    0.0881 O   0  0  0  0  0  0  0  0  0  0  0  0
   -0.6642   -0.0618   -1.8986 N   0  0  0  0  0  0  0  0  0  0  0  0
    0.6842   -0.1258   -1.4688 C   0  0  0  0  0  0  0  0  0  0  0  0
    1.2182    0.9531   -0.8014 C   0  0  0  0  0  0  0  0  0  0  0  0
    2.5267    0.9277   -0.3676 C   0  0  0  0  0  0  0  0  0  0  0  0
    3.2985   -0.1896   -0.6079 C   0  0  0  0  0  0  0  0  0  0  0  0
    4.6085   -0.2628   -0.1951 O   0  0  0  0  0  0  0  0  0  0  0  0
    5.2138    0.8135    0.4949 C   0  0  0  0  0  0  0  0  0  0  0  0
    6.6402    0.4679    0.8252 C   0  0  0  0  0  0  0  0  0  0  0  0
    7.3466    1.4864    1.5240 N   0  0  0  0  0  0  0  0  0  0  0  0
    7.6182    2.6672    0.7930 C   0  0  0  0  0  0  0  0  0  0  0  0
    9.0380    3.0482    0.6121 C   0  0  0  0  0  0  0  0  0  0  0  0
    9.9407    2.0250    0.8974 O   0  0  0  0  0  0  0  0  0  0  0  0
    9.6785    1.6989    2.2503 C   0  0  0  0  0  0  0  0  0  0  0  0
    8.4336    0.8868    2.2443 C   0  0  0  0  0  0  0  0  0  0  0  0
    2.7672   -1.2867   -1.2825 C   0  0  0  0  0  0  0  0  0  0  0  0
    3.5235   -2.4109   -1.5304 C   0  0  0  0  0  0  0  0  0  0  0  0
    2.9407   -3.4861   -2.2121 C   0  0  0  0  0  0  0  0  0  0  0  0
    1.6396   -3.4334   -2.6310 C   0  0  0  0  0  0  0  0  0  0  0  0
    0.8905   -2.3288   -2.3894 C   0  0  0  0  0  0  0  0  0  0  0  0
    1.4533   -1.2542   -1.7150 C   0  0  0  0  0  0  0  0  0  0  0  0
   -4.9912    2.1740   -0.5267 C   0  0  0  0  0  0  0  0  0  0  0  0
   -4.8533    3.5415   -0.2660 C   0  0  0  0  0  0  0  0  0  0  0  0
   -4.5972    5.7273    2.2625 H   0  0  0  0  0  0  0  0  0  0  0  0
   -5.0830    5.9468    0.5520 H   0  0  0  0  0  0  0  0  0  0  0  0
   -3.3141    5.7516    1.0173 H   0  0  0  0  0  0  0  0  0  0  0  0
   -3.9782    3.4325    2.9519 H   0  0  0  0  0  0  0  0  0  0  0  0
   -4.2114    1.0002    2.5308 H   0  0  0  0  0  0  0  0  0  0  0  0
   -6.8492   -4.3965    2.6078 H   0  0  0  0  0  0  0  0  0  0  0  0
   -5.5214   -4.9162    1.5414 H   0  0  0  0  0  0  0  0  0  0  0  0
   -5.3688   -3.3707    2.4678 H   0  0  0  0  0  0  0  0  0  0  0  0
   -7.2794   -5.1619   -0.2151 H   0  0  0  0  0  0  0  0  0  0  0  0
   -5.6929   -4.5064   -0.8260 H   0  0  0  0  0  0  0  0  0  0  0  0
   -7.2240   -3.7162   -1.3139 H   0  0  0  0  0  0  0  0  0  0  0  0
   -8.7277   -3.7333    0.8358 H   0  0  0  0  0  0  0  0  0  0  0  0
   -8.1695   -2.5942    2.0856 H   0  0  0  0  0  0  0  0  0  0  0  0
   -8.3891   -2.0693    0.3294 H   0  0  0  0  0  0  0  0  0  0  0  0
   -4.3621   -2.9972   -1.1566 H   0  0  0  0  0  0  0  0  0  0  0  0
   -3.2599   -0.0627   -2.4544 H   0  0  0  0  0  0  0  0  0  0  0  0
   -0.8824    0.3202   -2.8587 H   0  0  0  0  0  0  0  0  0  0  0  0
    0.6495    1.8540   -0.5895 H   0  0  0  0  0  0  0  0  0  0  0  0
    2.9235    1.7796    0.1509 H   0  0  0  0  0  0  0  0  0  0  0  0
    4.6533    0.9630    1.4611 H   0  0  0  0  0  0  0  0  0  0  0  0
    5.0995    1.7237   -0.0873 H   0  0  0  0  0  0  0  0  0  0  0  0
    6.6538   -0.4683    1.4193 H   0  0  0  0  0  0  0  0  0  0  0  0
    7.1534    0.2206   -0.1452 H   0  0  0  0  0  0  0  0  0  0  0  0
    7.1054    3.5131    1.3488 H   0  0  0  0  0  0  0  0  0  0  0  0
    7.1610    2.5521   -0.2185 H   0  0  0  0  0  0  0  0  0  0  0  0
    9.2780    3.9490    1.2498 H   0  0  0  0  0  0  0  0  0  0  0  0
    9.2175    3.3855   -0.4174 H   0  0  0  0  0  0  0  0  0  0  0  0
    9.5513    2.6752    2.7778 H   0  0  0  0  0  0  0  0  0  0  0  0
   10.5055    1.1432    2.6918 H   0  0  0  0  0  0  0  0  0  0  0  0
    8.0604    0.6404    3.2665 H   0  0  0  0  0  0  0  0  0  0  0  0
    8.6968   -0.0992    1.7552 H   0  0  0  0  0  0  0  0  0  0  0  0
    4.5350   -2.4372   -1.1983 H   0  0  0  0  0  0  0  0  0  0  0  0
    3.5438   -4.3572   -2.3982 H   0  0  0  0  0  0  0  0  0  0  0  0
    1.1577   -4.2636   -3.1680 H   0  0  0  0  0  0  0  0  0  0  0  0
   -0.1608   -2.2302   -2.7028 H   0  0  0  0  0  0  0  0  0  0  0  0
   -5.2781    1.9036   -1.5281 H   0  0  0  0  0  0  0  0  0  0  0  0
   -5.0339    4.2682   -1.0546 H   0  0  0  0  0  0  0  0  0  0  0  0
  1  2  1  0
  2  3  2  0
  3  4  1  0
  4  5  2  0
  5  6  1  0
  6  7  1  0
  7  8  2  0
  8  9  1  0
  9 10  1  0
  9 11  1  0
  9 12  1  0
  8 13  1  0
 13 14  2  0
 14 15  1  0
 15 16  1  0
 16 17  2  0
 16 18  1  0
 18 19  1  0
 19 20  2  0
 20 21  1  0
 21 22  2  0
 22 23  1  0
 23 24  1  0
 24 25  1  0
 25 26  1  0
 26 27  1  0
 27 28  1  0
 28 29  1  0
 29 30  1  0
 30 31  1  0
 22 32  1  0
 32 33  2  0
 33 34  1  0
 34 35  2  0
 35 36  1  0
 36 37  2  0
  5 38  1  0
 38 39  2  0
 39  2  1  0
 14  6  1  0
 37 19  1  0
 31 26  1  0
 37 32  1  0
  1 40  1  0
  1 41  1  0
  1 42  1  0
  3 43  1  0
  4 44  1  0
 10 45  1  0
 10 46  1  0
 10 47  1  0
 11 48  1  0
 11 49  1  0
 11 50  1  0
 12 51  1  0
 12 52  1  0
 12 53  1  0
 13 54  1  0
 15 55  1  0
 18 56  1  0
 20 57  1  0
 21 58  1  0
 24 59  1  0
 24 60  1  0
 25 61  1  0
 25 62  1  0
 27 63  1  0
 27 64  1  0
 28 65  1  0
 28 66  1  0
 30 67  1  0
 30 68  1  0
 31 69  1  0
 31 70  1  0
 33 71  1  0
 34 72  1  0
 35 73  1  0
 36 74  1  0
 38 75  1  0
 39 76  1  0
M  END
$$$$
