@<TRIPOS>MOLECULE
*****
 75 78 0 0 0
SMALL
GASTEIGER

@<TRIPOS>ATOM
      1 C           0.2235    2.4057    1.3322 C.3     1  UNL1        0.0190
      2 C           0.1372    3.7086    0.5932 C.3     1  UNL1       -0.0447
      3 C           0.5140    3.6746   -0.8476 C.3     1  UNL1       -0.0644
      4 C           1.6156    1.8830    1.3182 C.ar    1  UNL1       -0.0379
      5 C           2.3365    1.4390    0.2367 C.ar    1  UNL1       -0.0356
      6 C           3.6437    0.9609    0.2590 C.ar    1  UNL1        0.0484
      7 N           4.2607    0.5166   -0.9417 N.pl3   1  UNL1       -0.2149
      8 S           5.1263   -0.8407   -1.4758 S.O2    1  UNL1        0.0896
      9 O           4.2043   -2.0632   -1.4249 O.2     1  UNL1       -0.1485
     10 O           5.4241   -0.6734   -2.9503 O.2     1  UNL1       -0.1485
     11 C           6.6157   -1.1631   -0.6725 C.ar    1  UNL1        0.1969
     12 N           6.8066   -1.4489    0.6244 N.ar    1  UNL1       -0.2348
     13 C           8.0040   -1.6875    1.1810 C.ar    1  UNL1        0.0414
     14 C           9.1733   -1.6631    0.4695 C.ar    1  UNL1        0.0730
     15 C           9.0839   -1.3780   -0.8745 C.ar    1  UNL1       -0.0453
     16 C           7.8309   -1.1464   -1.3691 C.ar    1  UNL1       -0.0157
     17 C          10.4875   -1.9268    1.0926 C.3     1  UNL1        0.4188
     18 F          10.4884   -3.2034    1.6404 F       1  UNL1       -0.1658
     19 F          10.7722   -1.0327    2.1052 F       1  UNL1       -0.1658
     20 F          11.4672   -1.8989    0.1089 F       1  UNL1       -0.1658
     21 C           4.2379    0.9467    1.5022 C.ar    1  UNL1       -0.0393
     22 C           3.6344    1.3615    2.6708 C.ar    1  UNL1       -0.0597
     23 C           2.3393    1.8139    2.5201 C.ar    1  UNL1       -0.0579
     24 C          -0.7981    1.4334    0.9676 C.2     1  UNL1        0.0811
     25 C          -0.8063    0.1628    0.6084 C.2     1  UNL1        0.1084
     26 O           0.4367   -0.5046    0.5312 O.2     1  UNL1       -0.5104
     27 C          -1.9400   -0.7157    0.2594 C.3     1  UNL1        0.0452
     28 C          -3.2137   -0.0039   -0.1055 C.3     1  UNL1        0.1209
     29 C          -3.2638    0.4755   -1.4938 C.3     1  UNL1       -0.0126
     30 C          -3.1144   -0.4640   -2.6187 C.3     1  UNL1       -0.0523
     31 C          -4.0855   -1.5788   -2.7691 C.3     1  UNL1       -0.0652
     32 C          -4.4235   -0.7702    0.3247 C.3     1  UNL1       -0.0084
     33 C          -5.7037   -0.0727    0.0113 C.3     1  UNL1       -0.0241
     34 C          -6.8828   -0.8864    0.4608 C.ar    1  UNL1       -0.0472
     35 C          -7.3810   -0.7133    1.7550 C.ar    1  UNL1       -0.0586
     36 C          -8.4580   -1.3946    2.2921 C.ar    1  UNL1       -0.0615
     37 C          -9.0805   -2.3182    1.4674 C.ar    1  UNL1       -0.0617
     38 C          -8.6132   -2.5117    0.1870 C.ar    1  UNL1       -0.0615
     39 C          -7.5392   -1.8213   -0.3252 C.ar    1  UNL1       -0.0586
     40 O          -3.2797    1.1883    0.7194 O.3     1  UNL1       -0.4543
     41 C          -2.1654    1.9512    1.0153 C.2     1  UNL1        0.3395
     42 O          -2.6117    3.0937    1.3072 O.2     1  UNL1       -0.2452
     43 H          -0.0054    2.6914    2.4120 H       1  UNL1        0.0400
     44 H          -0.7688    4.3063    0.8016 H       1  UNL1        0.0272
     45 H           0.9549    4.3454    1.0801 H       1  UNL1        0.0272
     46 H           1.5976    3.7834   -1.0585 H       1  UNL1        0.0230
     47 H           0.0739    4.6048   -1.3323 H       1  UNL1        0.0230
     48 H           0.0883    2.8415   -1.4371 H       1  UNL1        0.0230
     49 H           1.8623    1.4544   -0.7121 H       1  UNL1        0.0639
     50 H           4.1000    1.3023   -1.6504 H       1  UNL1        0.1737
     51 H           8.0633   -1.9124    2.2441 H       1  UNL1        0.0836
     52 H           9.9479   -1.3349   -1.5216 H       1  UNL1        0.0625
     53 H           7.7786   -0.9199   -2.4461 H       1  UNL1        0.0653
     54 H           5.2540    0.5942    1.5956 H       1  UNL1        0.0636
     55 H           4.1053    1.3448    3.6251 H       1  UNL1        0.0618
     56 H           1.8506    2.1469    3.4506 H       1  UNL1        0.0620
     57 H           0.6527   -0.8960   -0.3906 H       1  UNL1        0.2917
     58 H          -1.6259   -1.4541   -0.5023 H       1  UNL1        0.0382
     59 H          -2.1827   -1.3541    1.1524 H       1  UNL1        0.0382
     60 H          -4.2087    1.0540   -1.6843 H       1  UNL1        0.0304
     61 H          -2.4739    1.2863   -1.6698 H       1  UNL1        0.0304
     62 H          -3.2722    0.1725   -3.5532 H       1  UNL1        0.0264
     63 H          -2.0484   -0.8011   -2.7795 H       1  UNL1        0.0264
     64 H          -5.1116   -1.2011   -2.6875 H       1  UNL1        0.0230
     65 H          -3.9379   -1.9714   -3.8324 H       1  UNL1        0.0230
     66 H          -3.8923   -2.4781   -2.1515 H       1  UNL1        0.0230
     67 H          -4.3666   -0.7725    1.4683 H       1  UNL1        0.0307
     68 H          -4.4284   -1.8420    0.0401 H       1  UNL1        0.0307
     69 H          -5.8771    0.2205   -1.0294 H       1  UNL1        0.0314
     70 H          -5.7809    0.9006    0.5882 H       1  UNL1        0.0314
     71 H          -6.8888    0.0151    2.4041 H       1  UNL1        0.0620
     72 H          -8.7688   -1.1921    3.3038 H       1  UNL1        0.0618
     73 H          -9.9280   -2.8685    1.8606 H       1  UNL1        0.0618
     74 H          -9.1087   -3.2401   -0.4542 H       1  UNL1        0.0618
     75 H          -7.1576   -1.9599   -1.3290 H       1  UNL1        0.0620
@<TRIPOS>BOND
     1     1     2    1
     2     2     3    1
     3     1     4    1
     4     4     5   ar
     5     5     6   ar
     6     6     7    1
     7     7     8    1
     8     8     9    2
     9     8    10    2
    10     8    11    1
    11    11    12   ar
    12    12    13   ar
    13    13    14   ar
    14    14    15   ar
    15    15    16   ar
    16    14    17    1
    17    17    18    1
    18    17    19    1
    19    17    20    1
    20     6    21   ar
    21    21    22   ar
    22    22    23   ar
    23     1    24    1
    24    24    25    2
    25    25    26    1
    26    25    27    1
    27    27    28    1
    28    28    29    1
    29    29    30    1
    30    30    31    1
    31    28    32    1
    32    32    33    1
    33    33    34    1
    34    34    35   ar
    35    35    36   ar
    36    36    37   ar
    37    37    38   ar
    38    38    39   ar
    39    28    40    1
    40    40    41    1
    41    41    42    2
    42    23     4   ar
    43    41    24    1
    44    16    11   ar
    45    39    34   ar
    46     1    43    1
    47     2    44    1
    48     2    45    1
    49     3    46    1
    50     3    47    1
    51     3    48    1
    52     5    49    1
    53     7    50    1
    54    13    51    1
    55    15    52    1
    56    16    53    1
    57    21    54    1
    58    22    55    1
    59    23    56    1
    60    26    57    1
    61    27    58    1
    62    27    59    1
    63    29    60    1
    64    29    61    1
    65    30    62    1
    66    30    63    1
    67    31    64    1
    68    31    65    1
    69    31    66    1
    70    32    67    1
    71    32    68    1
    72    33    69    1
    73    33    70    1
    74    35    71    1
    75    36    72    1
    76    37    73    1
    77    38    74    1
    78    39    75    1
