@<TRIPOS>MOLECULE
*****
 42 46 0 0 0
SMALL
GASTEIGER

@<TRIPOS>ATOM
      1 C          -3.1835    2.3323   -0.6771 C.3     1  UNL1       -0.0618
      2 C          -4.0823    1.1505   -0.4647 C.3     1  UNL1       -0.0121
      3 C          -3.4925    0.1395    0.4997 C.3     1  UNL1        0.1877
      4 O          -3.2861    0.7562    1.7294 O.3     1  UNL1       -0.3732
      5 C          -4.4899   -0.9537    0.6430 C.2     1  UNL1        0.3441
      6 O          -5.3570   -0.9158    1.5740 O.2     1  UNL1       -0.2472
      7 O          -4.4351   -1.9994   -0.2674 O.3     1  UNL1       -0.4575
      8 C          -3.5694   -2.0340   -1.3805 C.3     1  UNL1        0.1230
      9 C          -2.2521   -1.5113   -0.9354 C.ar    1  UNL1        0.0606
     10 C          -2.2497   -0.4691   -0.0338 C.ar    1  UNL1        0.0082
     11 C          -1.0189   -0.0042    0.3618 C.ar    1  UNL1       -0.0290
     12 C           0.1494   -0.5884   -0.1500 C.ar    1  UNL1        0.0713
     13 N           0.1304   -1.5983   -1.0236 N.ar    1  UNL1       -0.3019
     14 C          -1.0913   -2.0698   -1.4248 C.ar    1  UNL1        0.2589
     15 O          -1.0804   -3.0155   -2.2430 O.2     1  UNL1       -0.2672
     16 C           1.4793   -1.9605   -1.3444 C.3     1  UNL1        0.0539
     17 C           2.3262   -1.0395   -0.5522 C.ar    1  UNL1        0.0003
     18 C           3.7040   -0.8888   -0.4294 C.ar    1  UNL1       -0.0456
     19 C           4.2270    0.0779    0.4040 C.ar    1  UNL1        0.0007
     20 C           5.5910    0.2382    0.5353 C.ar    1  UNL1       -0.0526
     21 C           6.1529    1.2030    1.3669 C.ar    1  UNL1       -0.0611
     22 C           5.3096    2.0372    2.0932 C.ar    1  UNL1       -0.0597
     23 C           3.9468    1.8695    1.9556 C.ar    1  UNL1       -0.0357
     24 C           3.3848    0.9153    1.1331 C.ar    1  UNL1        0.0717
     25 N           2.0573    0.7518    0.9990 N.ar    1  UNL1       -0.2449
     26 C           1.5257   -0.1939    0.1837 C.ar    1  UNL1        0.0929
     27 H          -2.1179    2.1130   -0.6144 H       1  UNL1        0.0231
     28 H          -3.4451    2.7783   -1.6702 H       1  UNL1        0.0231
     29 H          -3.3968    3.1527    0.0637 H       1  UNL1        0.0231
     30 H          -5.0168    1.5286    0.0226 H       1  UNL1        0.0299
     31 H          -4.4018    0.6602   -1.3980 H       1  UNL1        0.0299
     32 H          -3.8645    1.5373    1.7787 H       1  UNL1        0.2113
     33 H          -3.4731   -3.1251   -1.6553 H       1  UNL1        0.0750
     34 H          -3.9592   -1.5336   -2.2684 H       1  UNL1        0.0750
     35 H          -0.9738    0.8054    1.0618 H       1  UNL1        0.0643
     36 H           1.6252   -1.7763   -2.4294 H       1  UNL1        0.0543
     37 H           1.7244   -3.0095   -1.1093 H       1  UNL1        0.0543
     38 H           4.3315   -1.5527   -1.0071 H       1  UNL1        0.0628
     39 H           6.2756   -0.4069   -0.0265 H       1  UNL1        0.0624
     40 H           7.2240    1.2841    1.4312 H       1  UNL1        0.0618
     41 H           5.7561    2.7836    2.7364 H       1  UNL1        0.0618
     42 H           3.3156    2.5317    2.5319 H       1  UNL1        0.0639
@<TRIPOS>BOND
     1     1     2    1
     2     2     3    1
     3     3     4    1
     4     3     5    1
     5     5     6    2
     6     5     7    1
     7     7     8    1
     8     8     9    1
     9     9    10   ar
    10    10    11   ar
    11    11    12   ar
    12    12    13   ar
    13    13    14   ar
    14    14    15    2
    15    13    16    1
    16    16    17    1
    17    17    18   ar
    18    18    19   ar
    19    19    20   ar
    20    20    21   ar
    21    21    22   ar
    22    22    23   ar
    23    23    24   ar
    24    24    25   ar
    25    25    26   ar
    26    10     3    1
    27    26    12    1
    28    14     9   ar
    29    26    17   ar
    30    24    19   ar
    31     1    27    1
    32     1    28    1
    33     1    29    1
    34     2    30    1
    35     2    31    1
    36     4    32    1
    37     8    33    1
    38     8    34    1
    39    11    35    1
    40    16    36    1
    41    16    37    1
    42    18    38    1
    43    20    39    1
    44    21    40    1
    45    22    41    1
    46    23    42    1
