
     RDKit          3D

 42 46  0  0  0  0  0  0  0  0999 V2000
   -3.1835    2.3323   -0.6771 C   0  0  0  0  0  0  0  0  0  0  0  0
   -4.0823    1.1505   -0.4647 C   0  0  0  0  0  0  0  0  0  0  0  0
   -3.4925    0.1395    0.4997 C   0  0  1  0  0  0  0  0  0  0  0  0
   -3.2861    0.7562    1.7294 O   0  0  0  0  0  0  0  0  0  0  0  0
   -4.4899   -0.9537    0.6430 C   0  0  0  0  0  0  0  0  0  0  0  0
   -5.3570   -0.9158    1.5740 O   0  0  0  0  0  0  0  0  0  0  0  0
   -4.4351   -1.9994   -0.2674 O   0  0  0  0  0  0  0  0  0  0  0  0
   -3.5694   -2.0340   -1.3805 C   0  0  0  0  0  0  0  0  0  0  0  0
   -2.2521   -1.5113   -0.9354 C   0  0  0  0  0  0  0  0  0  0  0  0
   -2.2497   -0.4691   -0.0338 C   0  0  0  0  0  0  0  0  0  0  0  0
   -1.0189   -0.0042    0.3618 C   0  0  0  0  0  0  0  0  0  0  0  0
    0.1494   -0.5884   -0.1500 C   0  0  0  0  0  0  0  0  0  0  0  0
    0.1304   -1.5983   -1.0236 N   0  0  0  0  0  0  0  0  0  0  0  0
   -1.0913   -2.0698   -1.4248 C   0  0  0  0  0  0  0  0  0  0  0  0
   -1.0804   -3.0155   -2.2430 O   0  0  0  0  0  0  0  0  0  0  0  0
    1.4793   -1.9605   -1.3444 C   0  0  0  0  0  0  0  0  0  0  0  0
    2.3262   -1.0395   -0.5522 C   0  0  0  0  0  0  0  0  0  0  0  0
    3.7040   -0.8888   -0.4294 C   0  0  0  0  0  0  0  0  0  0  0  0
    4.2270    0.0779    0.4040 C   0  0  0  0  0  0  0  0  0  0  0  0
    5.5910    0.2382    0.5353 C   0  0  0  0  0  0  0  0  0  0  0  0
    6.1529    1.2030    1.3669 C   0  0  0  0  0  0  0  0  0  0  0  0
    5.3096    2.0372    2.0932 C   0  0  0  0  0  0  0  0  0  0  0  0
    3.9468    1.8695    1.9556 C   0  0  0  0  0  0  0  0  0  0  0  0
    3.3848    0.9153    1.1331 C   0  0  0  0  0  0  0  0  0  0  0  0
    2.0573    0.7518    0.9990 N   0  0  0  0  0  0  0  0  0  0  0  0
    1.5257   -0.1939    0.1837 C   0  0  0  0  0  0  0  0  0  0  0  0
   -2.1179    2.1130   -0.6144 H   0  0  0  0  0  0  0  0  0  0  0  0
   -3.4451    2.7783   -1.6702 H   0  0  0  0  0  0  0  0  0  0  0  0
   -3.3968    3.1527    0.0637 H   0  0  0  0  0  0  0  0  0  0  0  0
   -5.0168    1.5286    0.0226 H   0  0  0  0  0  0  0  0  0  0  0  0
   -4.4018    0.6602   -1.3980 H   0  0  0  0  0  0  0  0  0  0  0  0
   -3.8645    1.5373    1.7787 H   0  0  0  0  0  0  0  0  0  0  0  0
   -3.4731   -3.1251   -1.6553 H   0  0  0  0  0  0  0  0  0  0  0  0
   -3.9592   -1.5336   -2.2684 H   0  0  0  0  0  0  0  0  0  0  0  0
   -0.9738    0.8054    1.0618 H   0  0  0  0  0  0  0  0  0  0  0  0
    1.6252   -1.7763   -2.4294 H   0  0  0  0  0  0  0  0  0  0  0  0
    1.7244   -3.0095   -1.1093 H   0  0  0  0  0  0  0  0  0  0  0  0
    4.3315   -1.5527   -1.0071 H   0  0  0  0  0  0  0  0  0  0  0  0
    6.2756   -0.4069   -0.0265 H   0  0  0  0  0  0  0  0  0  0  0  0
    7.2240    1.2841    1.4312 H   0  0  0  0  0  0  0  0  0  0  0  0
    5.7561    2.7836    2.7364 H   0  0  0  0  0  0  0  0  0  0  0  0
    3.3156    2.5317    2.5319 H   0  0  0  0  0  0  0  0  0  0  0  0
  1  2  1  0
  2  3  1  0
  3  4  1  1
  3  5  1  0
  5  6  2  0
  5  7  1  0
  7  8  1  0
  8  9  1  0
  9 10  2  0
 10 11  1  0
 11 12  2  0
 12 13  1  0
 13 14  1  0
 14 15  2  0
 13 16  1  0
 16 17  1  0
 17 18  2  0
 18 19  1  0
 19 20  2  0
 20 21  1  0
 21 22  2  0
 22 23  1  0
 23 24  2  0
 24 25  1  0
 25 26  2  0
 10  3  1  0
 26 12  1  0
 14  9  1  0
 26 17  1  0
 24 19  1  0
  1 27  1  0
  1 28  1  0
  1 29  1  0
  2 30  1  0
  2 31  1  0
  4 32  1  0
  8 33  1  0
  8 34  1  0
 11 35  1  0
 16 36  1  0
 16 37  1  0
 18 38  1  0
 20 39  1  0
 21 40  1  0
 22 41  1  0
 23 42  1  0
M  END
$$$$
