@<TRIPOS>MOLECULE
*****
 73 80 0 0 0
SMALL
GASTEIGER

@<TRIPOS>ATOM
      1 O          -8.6771   -1.1791    6.2634 O.2     1  UNL1       -0.2446
      2 C          -8.3098   -1.1727    5.0610 C.ar    1  UNL1        0.3485
      3 N          -9.0922   -1.5876    4.0503 N.ar    1  UNL1       -0.2260
      4 N          -8.4059   -1.4517    2.9068 N.ar    1  UNL1       -0.1508
      5 C          -7.1905   -0.9539    3.1705 C.ar    1  UNL1        0.1708
      6 C          -6.1449   -0.6458    2.3264 C.ar    1  UNL1        0.0456
      7 C          -6.1832   -0.8136    0.9620 C.ar    1  UNL1       -0.0392
      8 C          -5.1214   -0.4967    0.1396 C.ar    1  UNL1        0.0088
      9 C          -5.1560   -0.6715   -1.3083 C.ar    1  UNL1       -0.0158
     10 C          -5.3264   -1.9188   -1.8714 C.ar    1  UNL1       -0.0540
     11 C          -5.3564   -2.0597   -3.2618 C.ar    1  UNL1       -0.0612
     12 C          -5.2174   -0.9636   -4.0993 C.ar    1  UNL1       -0.0617
     13 C          -5.0469    0.2837   -3.5304 C.ar    1  UNL1       -0.0612
     14 C          -5.0193    0.4077   -2.1582 C.ar    1  UNL1       -0.0540
     15 C          -3.9906    0.0074    0.7486 C.ar    1  UNL1        0.0794
     16 C          -2.8171    0.3694   -0.0425 C.ar    1  UNL1        0.0010
     17 C          -2.1120   -0.5555   -0.7670 C.ar    1  UNL1       -0.0522
     18 C          -0.9968   -0.1708   -1.5095 C.ar    1  UNL1       -0.0567
     19 C          -0.5775    1.1365   -1.5349 C.ar    1  UNL1       -0.0333
     20 C           0.5892    1.5579   -2.3054 C.3     1  UNL1        0.0240
     21 N           1.8220    1.5068   -1.5823 N.3     1  UNL1       -0.2981
     22 C           2.8913    1.9428   -2.4444 C.3     1  UNL1       -0.0001
     23 C           4.2498    1.7134   -1.8587 C.3     1  UNL1       -0.0304
     24 C           4.1391    1.3248   -0.3982 C.3     1  UNL1        0.0212
     25 C           5.4813    1.1462    0.1678 C.ar    1  UNL1        0.1344
     26 N           6.0396    1.8760    1.1494 N.ar    1  UNL1       -0.1339
     27 N           7.2670    1.4330    1.4088 N.ar    1  UNL1       -0.1278
     28 C           7.5149    0.4065    0.5920 C.ar    1  UNL1        0.1800
     29 C           8.7556   -0.3686    0.5519 C.ar    1  UNL1        0.1077
     30 C           9.8088   -0.0804    1.3947 C.ar    1  UNL1       -0.0326
     31 C          10.9655   -0.8055    1.3559 C.ar    1  UNL1       -0.0582
     32 C          11.0955   -1.8483    0.4611 C.ar    1  UNL1       -0.0436
     33 C          10.0375   -2.1212   -0.3702 C.ar    1  UNL1        0.0284
     34 N           8.9186   -1.3896   -0.3046 N.ar    1  UNL1       -0.2519
     35 N           6.4209    0.2361   -0.1633 N.ar    1  UNL1       -0.3237
     36 C           3.3480    0.0349   -0.3496 C.3     1  UNL1       -0.0304
     37 C           2.0360    0.1600   -1.0893 C.3     1  UNL1       -0.0001
     38 C          -1.2984    2.0466   -0.8021 C.ar    1  UNL1       -0.0567
     39 C          -2.4086    1.6824   -0.0587 C.ar    1  UNL1       -0.0522
     40 N          -3.9354    0.1801    2.0973 N.ar    1  UNL1       -0.2459
     41 C          -4.9866   -0.1376    2.8763 C.ar    1  UNL1        0.0766
     42 C          -4.9477    0.0328    4.2600 C.ar    1  UNL1       -0.0189
     43 C          -6.0225   -0.2909    5.0661 C.ar    1  UNL1        0.0182
     44 N          -7.1476   -0.7874    4.5049 N.ar    1  UNL1       -0.2504
     45 H         -10.0698   -1.9623    4.0653 H       1  UNL1        0.1937
     46 H          -7.0652   -1.2038    0.5167 H       1  UNL1        0.0632
     47 H          -5.4340   -2.7674   -1.2048 H       1  UNL1        0.0624
     48 H          -5.4870   -3.0168   -3.7058 H       1  UNL1        0.0618
     49 H          -5.2374   -1.0478   -5.1757 H       1  UNL1        0.0618
     50 H          -4.9379    1.1432   -4.1993 H       1  UNL1        0.0618
     51 H          -4.8869    1.3757   -1.6961 H       1  UNL1        0.0624
     52 H          -2.4517   -1.5815   -0.7392 H       1  UNL1        0.0624
     53 H          -0.4870   -0.9474   -2.0567 H       1  UNL1        0.0621
     54 H           0.7200    0.9831   -3.2475 H       1  UNL1        0.0476
     55 H           0.4121    2.6172   -2.6400 H       1  UNL1        0.0476
     56 H           2.8404    1.4360   -3.4279 H       1  UNL1        0.0427
     57 H           2.7127    3.0284   -2.6639 H       1  UNL1        0.0427
     58 H           4.7915    0.9622   -2.4305 H       1  UNL1        0.0284
     59 H           4.8220    2.6570   -1.9011 H       1  UNL1        0.0284
     60 H           3.6265    2.1648    0.1096 H       1  UNL1        0.0380
     61 H           9.7018    0.7428    2.0985 H       1  UNL1        0.0640
     62 H          11.7822   -0.5464    2.0423 H       1  UNL1        0.0619
     63 H          11.9997   -2.4432    0.4049 H       1  UNL1        0.0633
     64 H          10.0694   -2.9345   -1.1059 H       1  UNL1        0.0830
     65 H           6.3467   -0.5006   -0.8872 H       1  UNL1        0.1686
     66 H           3.9468   -0.7249   -0.8938 H       1  UNL1        0.0284
     67 H           3.2166   -0.2719    0.7081 H       1  UNL1        0.0284
     68 H           1.2251   -0.0417   -0.3497 H       1  UNL1        0.0427
     69 H           1.9248   -0.6104   -1.8809 H       1  UNL1        0.0427
     70 H          -0.9799    3.0700   -0.8148 H       1  UNL1        0.0621
     71 H          -2.9224    2.4672    0.4937 H       1  UNL1        0.0624
     72 H          -4.0739    0.4224    4.7324 H       1  UNL1        0.0654
     73 H          -5.9976   -0.1601    6.1451 H       1  UNL1        0.0815
@<TRIPOS>BOND
     1     1     2    2
     2     2     3   ar
     3     3     4   ar
     4     4     5   ar
     5     5     6   ar
     6     6     7   ar
     7     7     8   ar
     8     8     9    1
     9     9    10   ar
    10    10    11   ar
    11    11    12   ar
    12    12    13   ar
    13    13    14   ar
    14     8    15   ar
    15    15    16    1
    16    16    17   ar
    17    17    18   ar
    18    18    19   ar
    19    19    20    1
    20    20    21    1
    21    21    22    1
    22    22    23    1
    23    23    24    1
    24    24    25    1
    25    25    26   ar
    26    26    27   ar
    27    27    28   ar
    28    28    29    1
    29    29    30   ar
    30    30    31   ar
    31    31    32   ar
    32    32    33   ar
    33    33    34   ar
    34    28    35   ar
    35    24    36    1
    36    36    37    1
    37    19    38   ar
    38    38    39   ar
    39    15    40   ar
    40    40    41   ar
    41    41    42   ar
    42    42    43   ar
    43    43    44   ar
    44    44     2   ar
    45    44     5   ar
    46    41     6   ar
    47    14     9   ar
    48    39    16   ar
    49    37    21    1
    50    35    25   ar
    51    34    29   ar
    52     3    45    1
    53     7    46    1
    54    10    47    1
    55    11    48    1
    56    12    49    1
    57    13    50    1
    58    14    51    1
    59    17    52    1
    60    18    53    1
    61    20    54    1
    62    20    55    1
    63    22    56    1
    64    22    57    1
    65    23    58    1
    66    23    59    1
    67    24    60    1
    68    30    61    1
    69    31    62    1
    70    32    63    1
    71    33    64    1
    72    35    65    1
    73    36    66    1
    74    36    67    1
    75    37    68    1
    76    37    69    1
    77    38    70    1
    78    39    71    1
    79    42    72    1
    80    43    73    1
