
     RDKit          3D

 62 66  0  0  0  0  0  0  0  0999 V2000
    8.4623    0.8011   -0.0590 C   0  0  0  0  0  0  0  0  0  0  0  0
    7.4347    0.5656    0.9326 N   0  0  0  0  0  0  0  0  0  0  0  0
    6.8190    1.7880    1.4458 C   0  0  0  0  0  0  0  0  0  0  0  0
    5.4317    1.1269    1.3593 C   0  0  0  0  0  0  0  0  0  0  0  0
    4.4014    2.0765    0.8489 C   0  0  0  0  0  0  0  0  0  0  0  0
    3.0692    1.5271    0.7522 N   0  0  0  0  0  0  0  0  0  0  0  0
    2.1615    1.5387    1.7481 N   0  0  0  0  0  0  0  0  0  0  0  0
    1.0278    0.9487    1.3447 C   0  0  0  0  0  0  0  0  0  0  0  0
   -0.2081    0.7490    2.1154 C   0  0  0  0  0  0  0  0  0  0  0  0
   -0.2458    1.1962    3.4400 C   0  0  0  0  0  0  0  0  0  0  0  0
   -1.3363    1.0479    4.2097 N   0  0  0  0  0  0  0  0  0  0  0  0
   -2.4375    0.4509    3.7032 C   0  0  0  0  0  0  0  0  0  0  0  0
   -3.6560    0.1572    4.1907 N   0  0  0  0  0  0  0  0  0  0  0  0
   -4.4061   -0.4509    3.2634 C   0  0  0  0  0  0  0  0  0  0  0  0
   -3.6266   -0.5569    2.1063 C   0  0  0  0  0  0  0  0  0  0  0  0
   -4.0418   -1.1455    0.8371 C   0  0  0  0  0  0  0  0  0  0  0  0
   -3.3777   -2.1050    0.3869 O   0  0  0  0  0  0  0  0  0  0  0  0
   -5.1520   -0.6807    0.1017 N   0  0  0  0  0  0  0  0  0  0  0  0
   -5.6248   -1.1944   -1.1442 C   0  0  0  0  0  0  0  0  0  0  0  0
   -4.6153   -1.1088   -2.2505 C   0  0  0  0  0  0  0  0  0  0  0  0
   -6.8868   -0.4358   -1.5556 C   0  0  0  0  0  0  0  0  0  0  0  0
   -6.0616   -2.6629   -1.0252 C   0  0  0  0  0  0  0  0  0  0  0  0
   -2.4040    0.0106    2.4025 C   0  0  0  0  0  0  0  0  0  0  0  0
   -1.3027    0.1584    1.6200 N   0  0  0  0  0  0  0  0  0  0  0  0
    1.2617    0.5633    0.0464 C   0  0  0  0  0  0  0  0  0  0  0  0
    0.4993   -0.0865   -0.9170 C   0  0  0  0  0  0  0  0  0  0  0  0
    0.9695   -0.3650   -2.1797 C   0  0  0  0  0  0  0  0  0  0  0  0
    0.2538   -1.0076   -3.1720 O   0  0  0  0  0  0  0  0  0  0  0  0
   -1.0432   -1.4862   -3.0777 C   0  0  0  0  0  0  0  0  0  0  0  0
   -1.1130   -2.8650   -3.3345 F   0  0  0  0  0  0  0  0  0  0  0  0
   -1.8176   -0.8519   -4.0442 F   0  0  0  0  0  0  0  0  0  0  0  0
    2.2755    0.0227   -2.5132 C   0  0  0  0  0  0  0  0  0  0  0  0
    3.0472    0.6665   -1.5754 C   0  0  0  0  0  0  0  0  0  0  0  0
    2.5516    0.9315   -0.3211 C   0  0  0  0  0  0  0  0  0  0  0  0
    6.1550    0.3082    0.2782 C   0  0  0  0  0  0  0  0  0  0  0  0
    8.3425    0.1387   -0.9507 H   0  0  0  0  0  0  0  0  0  0  0  0
    8.4725    1.8409   -0.4423 H   0  0  0  0  0  0  0  0  0  0  0  0
    9.4503    0.5071    0.3903 H   0  0  0  0  0  0  0  0  0  0  0  0
    6.9736    2.6079    0.7295 H   0  0  0  0  0  0  0  0  0  0  0  0
    7.0479    2.0042    2.4926 H   0  0  0  0  0  0  0  0  0  0  0  0
    5.1930    0.5497    2.2527 H   0  0  0  0  0  0  0  0  0  0  0  0
    4.3765    2.9568    1.5351 H   0  0  0  0  0  0  0  0  0  0  0  0
    4.7594    2.4830   -0.1233 H   0  0  0  0  0  0  0  0  0  0  0  0
    0.6561    1.6740    3.8227 H   0  0  0  0  0  0  0  0  0  0  0  0
   -3.9500    0.3788    5.1484 H   0  0  0  0  0  0  0  0  0  0  0  0
   -5.4171   -0.8236    3.2947 H   0  0  0  0  0  0  0  0  0  0  0  0
   -5.6685    0.1366    0.5476 H   0  0  0  0  0  0  0  0  0  0  0  0
   -5.1004   -0.6457   -3.1309 H   0  0  0  0  0  0  0  0  0  0  0  0
   -4.2885   -2.1279   -2.5765 H   0  0  0  0  0  0  0  0  0  0  0  0
   -3.7624   -0.4621   -1.9591 H   0  0  0  0  0  0  0  0  0  0  0  0
   -7.4521   -1.1006   -2.2352 H   0  0  0  0  0  0  0  0  0  0  0  0
   -7.5014   -0.2364   -0.6649 H   0  0  0  0  0  0  0  0  0  0  0  0
   -6.6280    0.4866   -2.1193 H   0  0  0  0  0  0  0  0  0  0  0  0
   -7.1607   -2.7166   -0.8139 H   0  0  0  0  0  0  0  0  0  0  0  0
   -5.8533   -3.2234   -1.9469 H   0  0  0  0  0  0  0  0  0  0  0  0
   -5.5593   -3.0747   -0.1236 H   0  0  0  0  0  0  0  0  0  0  0  0
   -0.5300   -0.4010   -0.6795 H   0  0  0  0  0  0  0  0  0  0  0  0
   -1.5455   -1.3558   -2.1025 H   0  0  0  0  0  0  0  0  0  0  0  0
    2.6743   -0.1870   -3.5117 H   0  0  0  0  0  0  0  0  0  0  0  0
    4.0420    0.9422   -1.8963 H   0  0  0  0  0  0  0  0  0  0  0  0
    6.0732    0.7842   -0.7101 H   0  0  0  0  0  0  0  0  0  0  0  0
    5.8922   -0.7677    0.2674 H   0  0  0  0  0  0  0  0  0  0  0  0
  1  2  1  0
  2  3  1  0
  3  4  1  0
  4  5  1  0
  5  6  1  0
  6  7  1  0
  7  8  2  0
  8  9  1  0
  9 10  2  0
 10 11  1  0
 11 12  2  0
 12 13  1  0
 13 14  1  0
 14 15  2  0
 15 16  1  0
 16 17  2  0
 16 18  1  0
 18 19  1  0
 19 20  1  0
 19 21  1  0
 19 22  1  0
 15 23  1  0
 23 24  2  0
  8 25  1  0
 25 26  2  0
 26 27  1  0
 27 28  1  0
 28 29  1  0
 29 30  1  0
 29 31  1  0
 27 32  2  0
 32 33  1  0
 33 34  2  0
  4 35  1  0
 35  2  1  0
 34  6  1  0
 24  9  1  0
 34 25  1  0
 23 12  1  0
  1 36  1  0
  1 37  1  0
  1 38  1  0
  3 39  1  0
  3 40  1  0
  4 41  1  0
  5 42  1  0
  5 43  1  0
 10 44  1  0
 13 45  1  0
 14 46  1  0
 18 47  1  0
 20 48  1  0
 20 49  1  0
 20 50  1  0
 21 51  1  0
 21 52  1  0
 21 53  1  0
 22 54  1  0
 22 55  1  0
 22 56  1  0
 26 57  1  0
 29 58  1  0
 32 59  1  0
 33 60  1  0
 35 61  1  0
 35 62  1  0
M  END
$$$$
