@<TRIPOS>MOLECULE
*****
 62 66 0 0 0
SMALL
GASTEIGER

@<TRIPOS>ATOM
      1 C           8.4623    0.8011   -0.0590 C.3     1  UNL1       -0.0127
      2 N           7.4347    0.5656    0.9326 N.3     1  UNL1       -0.3046
      3 C           6.8190    1.7880    1.4458 C.3     1  UNL1        0.0043
      4 C           5.4317    1.1269    1.3593 C.3     1  UNL1        0.0041
      5 C           4.4014    2.0765    0.8489 C.3     1  UNL1        0.0474
      6 N           3.0692    1.5271    0.7522 N.ar    1  UNL1       -0.2627
      7 N           2.1615    1.5387    1.7481 N.ar    1  UNL1       -0.1684
      8 C           1.0278    0.9487    1.3447 C.ar    1  UNL1        0.1202
      9 C          -0.2081    0.7490    2.1154 C.ar    1  UNL1        0.1104
     10 C          -0.2458    1.1962    3.4400 C.ar    1  UNL1        0.0575
     11 N          -1.3363    1.0479    4.2097 N.ar    1  UNL1       -0.2338
     12 C          -2.4375    0.4509    3.7032 C.ar    1  UNL1        0.1574
     13 N          -3.6560    0.1572    4.1907 N.ar    1  UNL1       -0.3438
     14 C          -4.4061   -0.4509    3.2634 C.ar    1  UNL1        0.0178
     15 C          -3.6266   -0.5569    2.1063 C.ar    1  UNL1        0.0815
     16 C          -4.0418   -1.1455    0.8371 C.2     1  UNL1        0.2480
     17 O          -3.3777   -2.1050    0.3869 O.2     1  UNL1       -0.2701
     18 N          -5.1520   -0.6807    0.1017 N.am    1  UNL1       -0.3065
     19 C          -5.6248   -1.1944   -1.1442 C.3     1  UNL1        0.0265
     20 C          -4.6153   -1.1088   -2.2505 C.3     1  UNL1       -0.0442
     21 C          -6.8868   -0.4358   -1.5556 C.3     1  UNL1       -0.0442
     22 C          -6.0616   -2.6629   -1.0252 C.3     1  UNL1       -0.0442
     23 C          -2.4040    0.0106    2.4025 C.ar    1  UNL1        0.1202
     24 N          -1.3027    0.1584    1.6200 N.ar    1  UNL1       -0.2397
     25 C           1.2617    0.5633    0.0464 C.ar    1  UNL1        0.0326
     26 C           0.4993   -0.0865   -0.9170 C.ar    1  UNL1       -0.0084
     27 C           0.9695   -0.3650   -2.1797 C.ar    1  UNL1        0.1276
     28 O           0.2538   -1.0076   -3.1720 O.3     1  UNL1       -0.4342
     29 C          -1.0432   -1.4862   -3.0777 C.3     1  UNL1        0.3893
     30 F          -1.1130   -2.8650   -3.3345 F       1  UNL1       -0.1663
     31 F          -1.8176   -0.8519   -4.0442 F       1  UNL1       -0.1663
     32 C           2.2755    0.0227   -2.5132 C.ar    1  UNL1       -0.0177
     33 C           3.0472    0.6665   -1.5754 C.ar    1  UNL1       -0.0326
     34 C           2.5516    0.9315   -0.3211 C.ar    1  UNL1        0.0698
     35 C           6.1550    0.3082    0.2782 C.3     1  UNL1        0.0043
     36 H           8.3425    0.1387   -0.9507 H       1  UNL1        0.0391
     37 H           8.4725    1.8409   -0.4423 H       1  UNL1        0.0391
     38 H           9.4503    0.5071    0.3903 H       1  UNL1        0.0391
     39 H           6.9736    2.6079    0.7295 H       1  UNL1        0.0430
     40 H           7.0479    2.0042    2.4926 H       1  UNL1        0.0430
     41 H           5.1930    0.5497    2.2527 H       1  UNL1        0.0343
     42 H           4.3765    2.9568    1.5351 H       1  UNL1        0.0512
     43 H           4.7594    2.4830   -0.1233 H       1  UNL1        0.0512
     44 H           0.6561    1.6740    3.8227 H       1  UNL1        0.0853
     45 H          -3.9500    0.3788    5.1484 H       1  UNL1        0.1668
     46 H          -5.4171   -0.8236    3.2947 H       1  UNL1        0.0816
     47 H          -5.6685    0.1366    0.5476 H       1  UNL1        0.1495
     48 H          -5.1004   -0.6457   -3.1309 H       1  UNL1        0.0250
     49 H          -4.2885   -2.1279   -2.5765 H       1  UNL1        0.0250
     50 H          -3.7624   -0.4621   -1.9591 H       1  UNL1        0.0250
     51 H          -7.4521   -1.1006   -2.2352 H       1  UNL1        0.0250
     52 H          -7.5014   -0.2364   -0.6649 H       1  UNL1        0.0250
     53 H          -6.6280    0.4866   -2.1193 H       1  UNL1        0.0250
     54 H          -7.1607   -2.7166   -0.8139 H       1  UNL1        0.0250
     55 H          -5.8533   -3.2234   -1.9469 H       1  UNL1        0.0250
     56 H          -5.5593   -3.0747   -0.1236 H       1  UNL1        0.0250
     57 H          -0.5300   -0.4010   -0.6795 H       1  UNL1        0.0661
     58 H          -1.5455   -1.3558   -2.1025 H       1  UNL1        0.1520
     59 H           2.6743   -0.1870   -3.5117 H       1  UNL1        0.0655
     60 H           4.0420    0.9422   -1.8963 H       1  UNL1        0.0640
     61 H           6.0732    0.7842   -0.7101 H       1  UNL1        0.0430
     62 H           5.8922   -0.7677    0.2674 H       1  UNL1        0.0430
@<TRIPOS>BOND
     1     1     2    1
     2     2     3    1
     3     3     4    1
     4     4     5    1
     5     5     6    1
     6     6     7   ar
     7     7     8   ar
     8     8     9    1
     9     9    10   ar
    10    10    11   ar
    11    11    12   ar
    12    12    13   ar
    13    13    14   ar
    14    14    15   ar
    15    15    16    1
    16    16    17    2
    17    16    18   am
    18    18    19    1
    19    19    20    1
    20    19    21    1
    21    19    22    1
    22    15    23   ar
    23    23    24   ar
    24     8    25   ar
    25    25    26   ar
    26    26    27   ar
    27    27    28    1
    28    28    29    1
    29    29    30    1
    30    29    31    1
    31    27    32   ar
    32    32    33   ar
    33    33    34   ar
    34     4    35    1
    35    35     2    1
    36    34     6   ar
    37    24     9   ar
    38    34    25   ar
    39    23    12   ar
    40     1    36    1
    41     1    37    1
    42     1    38    1
    43     3    39    1
    44     3    40    1
    45     4    41    1
    46     5    42    1
    47     5    43    1
    48    10    44    1
    49    13    45    1
    50    14    46    1
    51    18    47    1
    52    20    48    1
    53    20    49    1
    54    20    50    1
    55    21    51    1
    56    21    52    1
    57    21    53    1
    58    22    54    1
    59    22    55    1
    60    22    56    1
    61    26    57    1
    62    29    58    1
    63    32    59    1
    64    33    60    1
    65    35    61    1
    66    35    62    1
