
     RDKit          3D

 49 51  0  0  0  0  0  0  0  0999 V2000
    5.7835    1.3059    3.7922 C   0  0  0  0  0  0  0  0  0  0  0  0
    6.5073    1.0634    2.7440 C   0  0  0  0  0  0  0  0  0  0  0  0
    7.3075    0.7867    1.6269 C   0  0  0  0  0  0  0  0  0  0  0  0
    7.2203    1.3397    0.3352 O   0  0  0  0  0  0  0  0  0  0  0  0
    6.0883    1.2598   -0.4473 C   0  0  0  0  0  0  0  0  0  0  0  0
    5.4358    1.5894   -1.7188 C   0  0  0  0  0  0  0  0  0  0  0  0
    4.0856    1.2148   -1.9263 N   0  0  0  0  0  0  0  0  0  0  0  0
    3.2713    0.5311   -1.0238 C   0  0  0  0  0  0  0  0  0  0  0  0
    1.9543   -0.1082   -1.1266 C   0  0  0  0  0  0  0  0  0  0  0  0
    1.3214   -0.3269    0.0056 O   0  0  0  0  0  0  0  0  0  0  0  0
    1.2729   -0.5692   -2.2886 N   0  0  0  0  0  0  0  0  0  0  0  0
    0.0178   -1.3323   -1.9622 C   0  0  0  0  0  0  0  0  0  0  0  0
    0.2952   -2.6885   -1.8038 C   0  0  0  0  0  0  0  0  0  0  0  0
   -0.7051   -3.4342   -1.2046 C   0  0  0  0  0  0  0  0  0  0  0  0
   -0.4079   -5.1216   -0.9495 Cl  0  0  0  0  0  0  0  0  0  0  0  0
   -1.8931   -2.7871   -0.8228 C   0  0  0  0  0  0  0  0  0  0  0  0
   -2.7776   -3.6899   -0.2577 F   0  0  0  0  0  0  0  0  0  0  0  0
   -2.1603   -1.4495   -1.0040 C   0  0  0  0  0  0  0  0  0  0  0  0
   -3.2869   -0.8227   -0.3099 C   0  0  2  0  0  0  0  0  0  0  0  0
   -4.4347   -1.9543   -0.2483 C   0  0  0  0  0  0  0  0  0  0  0  0
   -3.9703    0.3672   -0.9632 C   0  0  0  0  0  0  0  0  0  0  0  0
   -4.2313    1.4216    0.0349 C   0  0  1  0  0  0  0  0  0  0  0  0
   -5.2478    2.4855   -0.1256 C   0  0  0  0  0  0  0  0  0  0  0  0
   -5.1643    3.1544    1.1866 F   0  0  0  0  0  0  0  0  0  0  0  0
   -6.5078    2.0437   -0.3633 F   0  0  0  0  0  0  0  0  0  0  0  0
   -4.9469    3.5612   -0.9598 F   0  0  0  0  0  0  0  0  0  0  0  0
   -4.5649    0.7619    1.3630 O   0  0  0  0  0  0  0  0  0  0  0  0
   -3.5535    0.0439    1.9137 C   0  0  0  0  0  0  0  0  0  0  0  0
   -2.9955   -0.0728    3.2050 N   0  0  0  0  0  0  0  0  0  0  0  0
   -2.9383   -0.7509    1.0546 N   0  0  0  0  0  0  0  0  0  0  0  0
   -1.1427   -0.7511   -1.5992 C   0  0  0  0  0  0  0  0  0  0  0  0
    3.9253    0.2947    0.0454 C   0  0  0  0  0  0  0  0  0  0  0  0
    5.1178    0.5972    0.3083 N   0  0  0  0  0  0  0  0  0  0  0  0
    5.1708    1.5228    4.7129 H   0  0  0  0  0  0  0  0  0  0  0  0
    7.9238   -0.1493    1.8377 H   0  0  0  0  0  0  0  0  0  0  0  0
    8.4090    1.4287    1.9855 H   0  0  0  0  0  0  0  0  0  0  0  0
    6.0986    2.0292   -2.3419 H   0  0  0  0  0  0  0  0  0  0  0  0
    1.6072   -0.3673   -3.1732 H   0  0  0  0  0  0  0  0  0  0  0  0
    1.2080   -3.1829   -2.1976 H   0  0  0  0  0  0  0  0  0  0  0  0
   -5.4394   -1.3782   -0.2672 H   0  0  0  0  0  0  0  0  0  0  0  0
   -4.4334   -2.5520   -1.1237 H   0  0  0  0  0  0  0  0  0  0  0  0
   -4.3960   -2.4617    0.7139 H   0  0  0  0  0  0  0  0  0  0  0  0
   -3.2495    0.6812   -1.7439 H   0  0  0  0  0  0  0  0  0  0  0  0
   -4.9305    0.0112   -1.4270 H   0  0  0  0  0  0  0  0  0  0  0  0
   -3.2239    1.9239    0.3062 H   0  0  0  0  0  0  0  0  0  0  0  0
   -2.0310    0.4628    3.2947 H   0  0  0  0  0  0  0  0  0  0  0  0
   -3.4066   -0.5995    3.9583 H   0  0  0  0  0  0  0  0  0  0  0  0
   -1.2909    0.2777   -1.8895 H   0  0  0  0  0  0  0  0  0  0  0  0
    3.3085   -0.3462    0.8449 H   0  0  0  0  0  0  0  0  0  0  0  0
  1  2  3  0
  2  3  1  0
  3  4  1  0
  4  5  1  0
  5  6  2  0
  6  7  1  0
  7  8  2  0
  8  9  1  0
  9 10  2  0
  9 11  1  0
 11 12  1  0
 12 13  2  0
 13 14  1  0
 14 15  1  0
 14 16  2  0
 16 17  1  0
 16 18  1  0
 18 19  1  0
 19 20  1  1
 19 21  1  0
 21 22  1  0
 22 23  1  0
 23 24  1  0
 23 25  1  0
 23 26  1  0
 22 27  1  0
 27 28  1  0
 28 29  1  0
 28 30  2  0
 18 31  2  0
  8 32  1  0
 32 33  2  0
 33  5  1  0
 31 12  1  0
 30 19  1  0
  1 34  1  0
  3 35  1  0
  3 36  1  0
  6 37  1  0
 11 38  1  0
 13 39  1  0
 20 40  1  0
 20 41  1  0
 20 42  1  0
 21 43  1  0
 21 44  1  0
 22 45  1  1
 29 46  1  0
 29 47  1  0
 31 48  1  0
 32 49  1  0
M  END
$$$$
