@<TRIPOS>MOLECULE
*****
 49 51 0 0 0
SMALL
GASTEIGER

@<TRIPOS>ATOM
      1 C           5.7835    1.3059    3.7922 C.1     1  UNL1       -0.1158
      2 C           6.5073    1.0634    2.7440 C.1     1  UNL1       -0.0647
      3 C           7.3075    0.7867    1.6269 C.3     1  UNL1        0.1513
      4 O           7.2203    1.3397    0.3352 O.3     1  UNL1       -0.4624
      5 C           6.0883    1.2598   -0.4473 C.ar    1  UNL1        0.2344
      6 C           5.4358    1.5894   -1.7188 C.ar    1  UNL1        0.0899
      7 N           4.0856    1.2148   -1.9263 N.ar    1  UNL1       -0.2435
      8 C           3.2713    0.5311   -1.0238 C.ar    1  UNL1        0.1439
      9 C           1.9543   -0.1082   -1.1266 C.2     1  UNL1        0.2681
     10 O           1.3214   -0.3269    0.0056 O.2     1  UNL1       -0.2681
     11 N           1.2729   -0.5692   -2.2886 N.am    1  UNL1       -0.2802
     12 C           0.0178   -1.3323   -1.9622 C.ar    1  UNL1        0.0356
     13 C           0.2952   -2.6885   -1.8038 C.ar    1  UNL1       -0.0193
     14 C          -0.7051   -3.4342   -1.2046 C.ar    1  UNL1        0.0782
     15 CL         -0.4079   -5.1216   -0.9495 Cl      1  UNL1       -0.0805
     16 C          -1.8931   -2.7871   -0.8228 C.ar    1  UNL1        0.1472
     17 F          -2.7776   -3.6899   -0.2577 F       1  UNL1       -0.2036
     18 C          -2.1603   -1.4495   -1.0040 C.ar    1  UNL1        0.0183
     19 C          -3.2869   -0.8227   -0.3099 C.3     1  UNL1        0.0951
     20 C          -4.4347   -1.9543   -0.2483 C.3     1  UNL1       -0.0352
     21 C          -3.9703    0.3672   -0.9632 C.3     1  UNL1        0.0223
     22 C          -4.2313    1.4216    0.0349 C.3     1  UNL1        0.1997
     23 C          -5.2478    2.4855   -0.1256 C.3     1  UNL1        0.4266
     24 F          -5.1643    3.1544    1.1866 F       1  UNL1       -0.1669
     25 F          -6.5078    2.0437   -0.3633 F       1  UNL1       -0.1669
     26 F          -4.9469    3.5612   -0.9598 F       1  UNL1       -0.1669
     27 O          -4.5649    0.7619    1.3630 O.2     1  UNL1       -0.4534
     28 C          -3.5535    0.0439    1.9137 C.2     1  UNL1        0.2765
     29 N          -2.9955   -0.0728    3.2050 N.pl3   1  UNL1       -0.3134
     30 N          -2.9383   -0.7509    1.0546 N.2     1  UNL1       -0.2257
     31 C          -1.1427   -0.7511   -1.5992 C.ar    1  UNL1       -0.0322
     32 C           3.9253    0.2947    0.0454 C.ar    1  UNL1        0.0619
     33 N           5.1178    0.5972    0.3083 N.ar    1  UNL1       -0.2177
     34 H           5.1708    1.5228    4.7129 H       1  UNL1        0.1229
     35 H           7.9238   -0.1493    1.8377 H       1  UNL1        0.0837
     36 H           8.4090    1.4287    1.9855 H       1  UNL1        0.0837
     37 H           6.0986    2.0292   -2.3419 H       1  UNL1        0.0884
     38 H           1.6072   -0.3673   -3.1732 H       1  UNL1        0.1552
     39 H           1.2080   -3.1829   -2.1976 H       1  UNL1        0.0652
     40 H          -5.4394   -1.3782   -0.2672 H       1  UNL1        0.0256
     41 H          -4.4334   -2.5520   -1.1237 H       1  UNL1        0.0256
     42 H          -4.3960   -2.4617    0.7139 H       1  UNL1        0.0256
     43 H          -3.2495    0.6812   -1.7439 H       1  UNL1        0.0330
     44 H          -4.9305    0.0112   -1.4270 H       1  UNL1        0.0330
     45 H          -3.2239    1.9239    0.3062 H       1  UNL1        0.0826
     46 H          -2.0310    0.4628    3.2947 H       1  UNL1        0.1466
     47 H          -3.4066   -0.5995    3.9583 H       1  UNL1        0.1466
     48 H          -1.2909    0.2777   -1.8895 H       1  UNL1        0.0640
     49 H           3.3085   -0.3462    0.8449 H       1  UNL1        0.0854
@<TRIPOS>BOND
     1     1     2    3
     2     2     3    1
     3     3     4    1
     4     4     5    1
     5     5     6   ar
     6     6     7   ar
     7     7     8   ar
     8     8     9    1
     9     9    10    2
    10     9    11   am
    11    11    12    1
    12    12    13   ar
    13    13    14   ar
    14    14    15    1
    15    14    16   ar
    16    16    17    1
    17    16    18   ar
    18    18    19    1
    19    19    20    1
    20    19    21    1
    21    21    22    1
    22    22    23    1
    23    23    24    1
    24    23    25    1
    25    23    26    1
    26    22    27    1
    27    27    28    1
    28    28    29    1
    29    28    30    2
    30    18    31   ar
    31     8    32   ar
    32    32    33   ar
    33    33     5   ar
    34    31    12   ar
    35    30    19    1
    36     1    34    1
    37     3    35    1
    38     3    36    1
    39     6    37    1
    40    11    38    1
    41    13    39    1
    42    20    40    1
    43    20    41    1
    44    20    42    1
    45    21    43    1
    46    21    44    1
    47    22    45    1
    48    29    46    1
    49    29    47    1
    50    31    48    1
    51    32    49    1
