
     RDKit          3D

 41 44  0  0  0  0  0  0  0  0999 V2000
   -8.0932   -0.3504   -0.7061 F   0  0  0  0  0  0  0  0  0  0  0  0
   -7.2975    0.6653   -0.1661 C   0  0  0  0  0  0  0  0  0  0  0  0
   -7.2929    1.6948   -1.0762 F   0  0  0  0  0  0  0  0  0  0  0  0
   -7.8042    1.0767    1.0473 F   0  0  0  0  0  0  0  0  0  0  0  0
   -5.9142    0.1180   -0.0183 C   0  0  0  0  0  0  0  0  0  0  0  0
   -4.8602    0.8223   -0.5256 C   0  0  0  0  0  0  0  0  0  0  0  0
   -3.5896    0.2994   -0.3787 C   0  0  0  0  0  0  0  0  0  0  0  0
   -2.4758    1.0149   -0.8933 N   0  0  0  0  0  0  0  0  0  0  0  0
   -1.0889    0.6387   -0.8451 C   0  0  0  0  0  0  0  0  0  0  0  0
   -0.3615   -0.0392   -1.7496 N   0  0  0  0  0  0  0  0  0  0  0  0
    0.8487   -0.1689   -1.3176 O   0  0  0  0  0  0  0  0  0  0  0  0
    1.0324    0.3813   -0.1460 C   0  0  0  0  0  0  0  0  0  0  0  0
    2.0542    0.5538    0.7671 C   0  0  0  0  0  0  0  0  0  0  0  0
    3.3174   -0.0204    0.3611 C   0  0  0  0  0  0  0  0  0  0  0  0
    3.3700   -0.6080   -0.7753 O   0  0  0  0  0  0  0  0  0  0  0  0
    4.6143   -0.1326    0.8920 N   0  0  0  0  0  0  0  0  0  0  0  0
    5.6404   -0.7970    0.1680 C   0  0  0  0  0  0  0  0  0  0  0  0
    5.9179   -2.1496    0.2590 C   0  0  0  0  0  0  0  0  0  0  0  0
    6.9156   -2.7209   -0.4606 N   0  0  0  0  0  0  0  0  0  0  0  0
    7.6339   -1.9213   -1.2740 C   0  0  0  0  0  0  0  0  0  0  0  0
    7.3904   -0.5949   -1.3882 N   0  0  0  0  0  0  0  0  0  0  0  0
    6.3938    0.0108   -0.6778 C   0  0  0  0  0  0  0  0  0  0  0  0
    1.7700    1.2328    1.9254 C   0  0  0  0  0  0  0  0  0  0  0  0
    3.0370    1.4700    3.1042 Cl  0  0  0  0  0  0  0  0  0  0  0  0
    0.5408    1.7582    2.2508 C   0  0  0  0  0  0  0  0  0  0  0  0
   -0.4628    1.5869    1.3501 C   0  0  0  0  0  0  0  0  0  0  0  0
   -0.2178    0.9177    0.1886 C   0  0  0  0  0  0  0  0  0  0  0  0
   -3.4100   -0.8925    0.2600 C   0  0  0  0  0  0  0  0  0  0  0  0
   -4.5041   -1.5612    0.7520 C   0  0  0  0  0  0  0  0  0  0  0  0
   -5.8044   -1.0945    0.6397 C   0  0  0  0  0  0  0  0  0  0  0  0
   -4.9835    1.7602   -1.0307 H   0  0  0  0  0  0  0  0  0  0  0  0
   -2.5974    1.9306   -1.3770 H   0  0  0  0  0  0  0  0  0  0  0  0
    4.6959    0.3130    1.8243 H   0  0  0  0  0  0  0  0  0  0  0  0
    5.3019   -2.7524    0.9356 H   0  0  0  0  0  0  0  0  0  0  0  0
    8.4368   -2.3371   -1.8638 H   0  0  0  0  0  0  0  0  0  0  0  0
    6.2884    1.0741   -0.8456 H   0  0  0  0  0  0  0  0  0  0  0  0
    0.3691    2.2836    3.1747 H   0  0  0  0  0  0  0  0  0  0  0  0
   -1.4409    1.9930    1.5848 H   0  0  0  0  0  0  0  0  0  0  0  0
   -2.3949   -1.3017    0.3727 H   0  0  0  0  0  0  0  0  0  0  0  0
   -4.3348   -2.5074    1.2566 H   0  0  0  0  0  0  0  0  0  0  0  0
   -6.6401   -1.6462    1.0389 H   0  0  0  0  0  0  0  0  0  0  0  0
  1  2  1  0
  2  3  1  0
  2  4  1  0
  2  5  1  0
  5  6  2  0
  6  7  1  0
  7  8  1  0
  8  9  1  0
  9 10  2  0
 10 11  1  0
 11 12  1  0
 12 13  2  0
 13 14  1  0
 14 15  2  0
 14 16  1  0
 16 17  1  0
 17 18  2  0
 18 19  1  0
 19 20  2  0
 20 21  1  0
 21 22  2  0
 13 23  1  0
 23 24  1  0
 23 25  2  0
 25 26  1  0
 26 27  2  0
  7 28  2  0
 28 29  1  0
 29 30  2  0
 30  5  1  0
 27  9  1  0
 27 12  1  0
 22 17  1  0
  6 31  1  0
  8 32  1  0
 16 33  1  0
 18 34  1  0
 20 35  1  0
 22 36  1  0
 25 37  1  0
 26 38  1  0
 28 39  1  0
 29 40  1  0
 30 41  1  0
M  END
$$$$
