@<TRIPOS>MOLECULE
*****
 41 44 0 0 0
SMALL
GASTEIGER

@<TRIPOS>ATOM
      1 F          -8.0932   -0.3504   -0.7061 F       1  UNL1       -0.1659
      2 C          -7.2975    0.6653   -0.1661 C.3     1  UNL1        0.4175
      3 F          -7.2929    1.6948   -1.0762 F       1  UNL1       -0.1659
      4 F          -7.8042    1.0767    1.0473 F       1  UNL1       -0.1659
      5 C          -5.9142    0.1180   -0.0183 C.ar    1  UNL1        0.0566
      6 C          -4.8602    0.8223   -0.5256 C.ar    1  UNL1       -0.0289
      7 C          -3.5896    0.2994   -0.3787 C.ar    1  UNL1        0.0330
      8 N          -2.4758    1.0149   -0.8933 N.pl3   1  UNL1       -0.2963
      9 C          -1.0889    0.6387   -0.8451 C.ar    1  UNL1        0.1735
     10 N          -0.3615   -0.0392   -1.7496 N.ar    1  UNL1       -0.0618
     11 O           0.8487   -0.1689   -1.3176 O.2     1  UNL1       -0.3520
     12 C           1.0324    0.3813   -0.1460 C.ar    1  UNL1        0.1826
     13 C           2.0542    0.5538    0.7671 C.ar    1  UNL1        0.1007
     14 C           3.3174   -0.0204    0.3611 C.2     1  UNL1        0.2534
     15 O           3.3700   -0.6080   -0.7753 O.2     1  UNL1       -0.2697
     16 N           4.6143   -0.1326    0.8920 N.am    1  UNL1       -0.2789
     17 C           5.6404   -0.7970    0.1680 C.ar    1  UNL1        0.0703
     18 C           5.9179   -2.1496    0.2590 C.ar    1  UNL1        0.0520
     19 N           6.9156   -2.7209   -0.4606 N.ar    1  UNL1       -0.2419
     20 C           7.6339   -1.9213   -1.2740 C.ar    1  UNL1        0.1160
     21 N           7.3904   -0.5949   -1.3882 N.ar    1  UNL1       -0.2419
     22 C           6.3938    0.0108   -0.6778 C.ar    1  UNL1        0.0520
     23 C           1.7700    1.2328    1.9254 C.ar    1  UNL1        0.0568
     24 CL          3.0370    1.4700    3.1042 Cl      1  UNL1       -0.0826
     25 C           0.5408    1.7582    2.2508 C.ar    1  UNL1       -0.0418
     26 C          -0.4628    1.5869    1.3501 C.ar    1  UNL1       -0.0461
     27 C          -0.2178    0.9177    0.1886 C.ar    1  UNL1        0.0639
     28 C          -3.4100   -0.8925    0.2600 C.ar    1  UNL1       -0.0405
     29 C          -4.5041   -1.5612    0.7520 C.ar    1  UNL1       -0.0595
     30 C          -5.8044   -1.0945    0.6397 C.ar    1  UNL1       -0.0500
     31 H          -4.9835    1.7602   -1.0307 H       1  UNL1        0.0642
     32 H          -2.5974    1.9306   -1.3770 H       1  UNL1        0.1537
     33 H           4.6959    0.3130    1.8243 H       1  UNL1        0.1552
     34 H           5.3019   -2.7524    0.9356 H       1  UNL1        0.0849
     35 H           8.4368   -2.3371   -1.8638 H       1  UNL1        0.1047
     36 H           6.2884    1.0741   -0.8456 H       1  UNL1        0.0849
     37 H           0.3691    2.2836    3.1747 H       1  UNL1        0.0632
     38 H          -1.4409    1.9930    1.5848 H       1  UNL1        0.0626
     39 H          -2.3949   -1.3017    0.3727 H       1  UNL1        0.0636
     40 H          -4.3348   -2.5074    1.2566 H       1  UNL1        0.0618
     41 H          -6.6401   -1.6462    1.0389 H       1  UNL1        0.0623
@<TRIPOS>BOND
     1     1     2    1
     2     2     3    1
     3     2     4    1
     4     2     5    1
     5     5     6   ar
     6     6     7   ar
     7     7     8    1
     8     8     9    1
     9     9    10   ar
    10    10    11   ar
    11    11    12   ar
    12    12    13   ar
    13    13    14    1
    14    14    15    2
    15    14    16   am
    16    16    17    1
    17    17    18   ar
    18    18    19   ar
    19    19    20   ar
    20    20    21   ar
    21    21    22   ar
    22    13    23   ar
    23    23    24    1
    24    23    25   ar
    25    25    26   ar
    26    26    27   ar
    27     7    28   ar
    28    28    29   ar
    29    29    30   ar
    30    30     5   ar
    31    27     9   ar
    32    27    12   ar
    33    22    17   ar
    34     6    31    1
    35     8    32    1
    36    16    33    1
    37    18    34    1
    38    20    35    1
    39    22    36    1
    40    25    37    1
    41    26    38    1
    42    28    39    1
    43    29    40    1
    44    30    41    1
