@<TRIPOS>MOLECULE
*****
 50 54 0 0 0
SMALL
GASTEIGER

@<TRIPOS>ATOM
      1 C          -3.7196    1.2137    0.6644 C.3     1  UNL1       -0.0275
      2 C          -2.7690    0.1422    0.1756 C.3     1  UNL1        0.1021
      3 O          -2.0165   -0.2929    1.2588 O.3     1  UNL1       -0.4879
      4 C          -0.6679   -0.2786    1.4336 C.ar    1  UNL1        0.1350
      5 C           0.1674    0.2148    0.4636 C.ar    1  UNL1       -0.0113
      6 C           1.5522    0.2350    0.6309 C.ar    1  UNL1       -0.0094
      7 C           2.4584    0.7565   -0.3869 C.ar    1  UNL1        0.0198
      8 C           3.7433    0.3038   -0.6113 C.ar    1  UNL1        0.0571
      9 N           4.2161    1.0433   -1.6193 N.ar    1  UNL1       -0.1788
     10 N           3.3348    1.9183   -2.0419 N.ar    1  UNL1       -0.2678
     11 C           3.4978    2.8970   -3.1271 C.3     1  UNL1        0.0528
     12 C           4.2321    2.4217   -4.3413 C.3     1  UNL1       -0.0286
     13 C           4.9374    3.3508   -3.3569 C.3     1  UNL1       -0.0286
     14 C           2.2374    1.7644   -1.2982 C.ar    1  UNL1        0.0335
     15 C           2.0588   -0.2608    1.8124 C.ar    1  UNL1       -0.0258
     16 C           1.2431   -0.7694    2.8197 C.ar    1  UNL1        0.0998
     17 N           1.4649   -1.2999    4.0353 N.ar    1  UNL1       -0.1689
     18 N           0.3223   -1.6276    4.5897 N.ar    1  UNL1       -0.2408
     19 C           0.1657   -2.2290    5.9059 C.3     1  UNL1        0.0331
     20 C          -0.6724   -1.3252    3.7636 C.ar    1  UNL1        0.2228
     21 F          -2.0121   -1.5208    3.9942 F       1  UNL1       -0.1834
     22 C          -0.1388   -0.7669    2.6021 C.ar    1  UNL1        0.0975
     23 C          -3.5243   -1.0605   -0.3597 C.3     1  UNL1        0.0195
     24 C          -4.4207   -0.7321   -1.5055 C.3     1  UNL1        0.0182
     25 N          -3.5855   -0.8912   -2.6659 N.am    1  UNL1       -0.3149
     26 C          -2.5509   -1.8160   -2.4059 C.2     1  UNL1        0.2135
     27 O          -1.7355   -2.3566   -3.2002 O.2     1  UNL1       -0.2758
     28 C          -2.5654   -2.0803   -0.9386 C.3     1  UNL1        0.0315
     29 H          -4.2457    1.7133   -0.1665 H       1  UNL1        0.0265
     30 H          -3.0765    1.9778    1.1802 H       1  UNL1        0.0265
     31 H          -4.3883    0.8105    1.4329 H       1  UNL1        0.0265
     32 H          -2.1964    0.5702   -0.6648 H       1  UNL1        0.0733
     33 H          -0.1745    0.6158   -0.4808 H       1  UNL1        0.0660
     34 H           4.2114   -0.4934   -0.0475 H       1  UNL1        0.0854
     35 H           2.7398    3.6783   -3.1974 H       1  UNL1        0.0545
     36 H           4.0337    2.8959   -5.3273 H       1  UNL1        0.0286
     37 H           4.5872    1.3862   -4.4093 H       1  UNL1        0.0286
     38 H           5.7412    2.9024   -2.7496 H       1  UNL1        0.0286
     39 H           5.1089    4.4035   -3.6570 H       1  UNL1        0.0286
     40 H           1.3205    2.3268   -1.3821 H       1  UNL1        0.0832
     41 H           3.1270   -0.2659    1.9877 H       1  UNL1        0.0646
     42 H          -0.0058   -3.3189    5.7570 H       1  UNL1        0.0474
     43 H          -0.6663   -1.7667    6.4623 H       1  UNL1        0.0474
     44 H           1.1013   -2.1038    6.4792 H       1  UNL1        0.0474
     45 H          -4.1176   -1.5752    0.4216 H       1  UNL1        0.0356
     46 H          -4.9183    0.2403   -1.4358 H       1  UNL1        0.0466
     47 H          -5.2172   -1.5298   -1.5733 H       1  UNL1        0.0466
     48 H          -3.7033   -0.4044   -3.5839 H       1  UNL1        0.1487
     49 H          -1.5576   -2.0112   -0.5208 H       1  UNL1        0.0363
     50 H          -2.9567   -3.1175   -0.8161 H       1  UNL1        0.0363
@<TRIPOS>BOND
     1     1     2    1
     2     2     3    1
     3     3     4    1
     4     4     5   ar
     5     5     6   ar
     6     6     7    1
     7     7     8   ar
     8     8     9   ar
     9     9    10   ar
    10    10    11    1
    11    11    12    1
    12    12    13    1
    13    10    14   ar
    14     6    15   ar
    15    15    16   ar
    16    16    17   ar
    17    17    18   ar
    18    18    19    1
    19    18    20   ar
    20    20    21    1
    21    20    22   ar
    22     2    23    1
    23    23    24    1
    24    24    25    1
    25    25    26   am
    26    26    27    2
    27    26    28    1
    28    22     4   ar
    29    28    23    1
    30    14     7   ar
    31    22    16   ar
    32    13    11    1
    33     1    29    1
    34     1    30    1
    35     1    31    1
    36     2    32    1
    37     5    33    1
    38     8    34    1
    39    11    35    1
    40    12    36    1
    41    12    37    1
    42    13    38    1
    43    13    39    1
    44    14    40    1
    45    15    41    1
    46    19    42    1
    47    19    43    1
    48    19    44    1
    49    23    45    1
    50    24    46    1
    51    24    47    1
    52    25    48    1
    53    28    49    1
    54    28    50    1
