@<TRIPOS>MOLECULE
*****
 38 40 0 0 0
SMALL
GASTEIGER

@<TRIPOS>ATOM
      1 C          -5.8645    0.5915    1.3093 C.3     1  UNL1       -0.0134
      2 S          -5.3894   -0.0689   -0.3048 S.3     1  UNL1       -0.1280
      3 C          -3.6212   -0.3051   -0.3045 C.ar    1  UNL1        0.0196
      4 C          -3.0921   -1.5087    0.1072 C.ar    1  UNL1       -0.0428
      5 C          -1.7196   -1.6410    0.0889 C.ar    1  UNL1       -0.0234
      6 C          -0.9084   -0.6031   -0.3276 C.ar    1  UNL1        0.0416
      7 C          -1.4360    0.6213   -0.7469 C.ar    1  UNL1       -0.0273
      8 C          -2.8264    0.7393   -0.7224 C.ar    1  UNL1        0.0699
      9 C          -3.4591    2.0118   -1.1541 C.3     1  UNL1        0.4185
     10 F          -4.2820    1.7197   -2.2244 F       1  UNL1       -0.1659
     11 F          -2.4832    2.8745   -1.6366 F       1  UNL1       -0.1659
     12 F          -4.1048    2.6617   -0.1398 F       1  UNL1       -0.1659
     13 N           0.4486   -0.9816   -0.2579 N.am    1  UNL1       -0.2547
     14 C           1.5871   -0.1288   -0.1932 C.2     1  UNL1        0.3108
     15 O           1.4917    1.1257   -0.1917 O.2     1  UNL1       -0.2519
     16 N           2.9103   -0.6570   -0.1260 N.am    1  UNL1       -0.2677
     17 C           4.0454    0.1972   -0.0615 C.ar    1  UNL1        0.0529
     18 C           4.6044    0.6573    1.1100 C.ar    1  UNL1       -0.0375
     19 C           5.7028    1.4840    1.1731 C.ar    1  UNL1       -0.0418
     20 C           6.2686    1.8671   -0.0341 C.ar    1  UNL1        0.0277
     21 N           5.7458    1.4349   -1.1864 N.ar    1  UNL1       -0.2614
     22 C           4.6537    0.6134   -1.2327 C.ar    1  UNL1        0.0488
     23 C           0.4445   -2.4308   -0.2657 C.3     1  UNL1        0.0253
     24 C          -0.8277   -2.7641    0.4562 C.3     1  UNL1       -0.0096
     25 H          -6.2299   -0.2145    1.9865 H       1  UNL1        0.0344
     26 H          -5.0043    1.0585    1.8413 H       1  UNL1        0.0344
     27 H          -6.6572    1.3648    1.1764 H       1  UNL1        0.0344
     28 H          -3.7548   -2.3022    0.4276 H       1  UNL1        0.0632
     29 H          -0.8123    1.4309   -1.0712 H       1  UNL1        0.0642
     30 H           2.9914   -1.7067   -0.1272 H       1  UNL1        0.1564
     31 H           4.1503    0.3485    2.0381 H       1  UNL1        0.0637
     32 H           6.1196    1.8297    2.1243 H       1  UNL1        0.0633
     33 H           7.1381    2.5213    0.0077 H       1  UNL1        0.0829
     34 H           4.3018    0.3156   -2.2078 H       1  UNL1        0.0848
     35 H           1.3305   -2.8530    0.2533 H       1  UNL1        0.0472
     36 H           0.4064   -2.8347   -1.3067 H       1  UNL1        0.0472
     37 H          -1.2452   -3.7544    0.1643 H       1  UNL1        0.0329
     38 H          -0.6226   -2.7143    1.5590 H       1  UNL1        0.0329
@<TRIPOS>BOND
     1     1     2    1
     2     2     3    1
     3     3     4   ar
     4     4     5   ar
     5     5     6   ar
     6     6     7   ar
     7     7     8   ar
     8     8     9    1
     9     9    10    1
    10     9    11    1
    11     9    12    1
    12     6    13    1
    13    13    14   am
    14    14    15    2
    15    14    16   am
    16    16    17    1
    17    17    18   ar
    18    18    19   ar
    19    19    20   ar
    20    20    21   ar
    21    21    22   ar
    22    13    23    1
    23    23    24    1
    24     8     3   ar
    25    22    17   ar
    26    24     5    1
    27     1    25    1
    28     1    26    1
    29     1    27    1
    30     4    28    1
    31     7    29    1
    32    16    30    1
    33    18    31    1
    34    19    32    1
    35    20    33    1
    36    22    34    1
    37    23    35    1
    38    23    36    1
    39    24    37    1
    40    24    38    1
