@<TRIPOS>MOLECULE
*****
 42 45 0 0 0
SMALL
GASTEIGER

@<TRIPOS>ATOM
      1 N          -5.1413    2.5399    0.1311 N.pl3   1  UNL1       -0.3134
      2 C          -4.3835    1.3735   -0.1352 C.2     1  UNL1        0.2764
      3 N          -3.4356    0.9326    0.6229 N.2     1  UNL1       -0.2194
      4 C          -2.6897   -0.2734    0.3030 C.3     1  UNL1        0.1590
      5 C          -1.4677   -0.2203    1.1441 C.ar    1  UNL1        0.0059
      6 C          -0.2044   -0.3661    0.6201 C.ar    1  UNL1       -0.0334
      7 C           0.9585   -0.3945    1.4078 C.ar    1  UNL1        0.0341
      8 N           2.1868   -0.5475    0.7523 N.am    1  UNL1       -0.2802
      9 C           2.9929    0.5011    0.2770 C.2     1  UNL1        0.2680
     10 O           2.6251    1.6778    0.4287 O.2     1  UNL1       -0.2681
     11 C           4.2562    0.2259   -0.3925 C.ar    1  UNL1        0.1439
     12 N           4.7088   -1.0287   -0.5868 N.ar    1  UNL1       -0.2474
     13 C           5.8888   -1.2681   -1.2128 C.ar    1  UNL1        0.0468
     14 C           6.6919   -0.2516   -1.6854 C.ar    1  UNL1        0.0605
     15 CL          8.2257   -0.5736   -2.4987 Cl      1  UNL1       -0.0819
     16 C           6.2545    1.0435   -1.5008 C.ar    1  UNL1       -0.0213
     17 C           5.0438    1.2575   -0.8573 C.ar    1  UNL1        0.0728
     18 CL          4.4767    2.9008   -0.6166 Cl      1  UNL1       -0.0811
     19 C           0.8101   -0.2709    2.7574 C.ar    1  UNL1       -0.0391
     20 C          -0.4256   -0.1233    3.3287 C.ar    1  UNL1       -0.0413
     21 C          -1.5433   -0.0980    2.5313 C.ar    1  UNL1        0.0467
     22 CL         -3.1428    0.1590    3.2446 Cl      1  UNL1       -0.0832
     23 C          -3.4622   -1.5051    0.6490 C.3     1  UNL1        0.2685
     24 F          -4.6823   -1.6136    0.0025 F       1  UNL1       -0.2062
     25 F          -2.6863   -2.6495    0.3700 F       1  UNL1       -0.2062
     26 C          -2.3525   -0.2791   -1.1824 C.3     1  UNL1        0.0344
     27 C          -2.9743   -1.1955   -2.1341 C.3     1  UNL1       -0.0064
     28 C          -3.4993    0.1635   -2.0284 C.3     1  UNL1        0.1091
     29 O          -4.6051    0.5741   -1.2823 O.2     1  UNL1       -0.4622
     30 H          -6.1436    2.5432    0.4120 H       1  UNL1        0.1466
     31 H          -4.6533    3.4708    0.0375 H       1  UNL1        0.1466
     32 H          -0.0692   -0.4836   -0.4528 H       1  UNL1        0.0640
     33 H           2.5368   -1.5285    0.6025 H       1  UNL1        0.1552
     34 H           6.2001   -2.2943   -1.3400 H       1  UNL1        0.0844
     35 H           6.8644    1.8578   -1.8614 H       1  UNL1        0.0648
     36 H           1.7342   -0.2967    3.3546 H       1  UNL1        0.0636
     37 H          -0.5206   -0.0287    4.3829 H       1  UNL1        0.0633
     38 H          -3.6812   -1.5846    1.7213 H       1  UNL1        0.1047
     39 H          -1.4192    0.2547   -1.4472 H       1  UNL1        0.0366
     40 H          -3.6197   -2.0419   -1.8996 H       1  UNL1        0.0306
     41 H          -2.3681   -1.4176   -3.0750 H       1  UNL1        0.0306
     42 H          -3.2848    0.8589   -2.8918 H       1  UNL1        0.0737
@<TRIPOS>BOND
     1     1     2    1
     2     2     3    2
     3     3     4    1
     4     4     5    1
     5     5     6   ar
     6     6     7   ar
     7     7     8    1
     8     8     9   am
     9     9    10    2
    10     9    11    1
    11    11    12   ar
    12    12    13   ar
    13    13    14   ar
    14    14    15    1
    15    14    16   ar
    16    16    17   ar
    17    17    18    1
    18     7    19   ar
    19    19    20   ar
    20    20    21   ar
    21    21    22    1
    22     4    23    1
    23    23    24    1
    24    23    25    1
    25     4    26    1
    26    26    27    1
    27    27    28    1
    28    28    29    1
    29    29     2    1
    30    21     5   ar
    31    28    26    1
    32    17    11   ar
    33     1    30    1
    34     1    31    1
    35     6    32    1
    36     8    33    1
    37    13    34    1
    38    16    35    1
    39    19    36    1
    40    20    37    1
    41    23    38    1
    42    26    39    1
    43    27    40    1
    44    27    41    1
    45    28    42    1
