@<TRIPOS>MOLECULE
*****
 42 45 0 0 0
SMALL
GASTEIGER

@<TRIPOS>ATOM
      1 C           5.3743   -1.4225   -0.6929 C.3     1  UNL1        0.0789
      2 O           4.3057   -0.4999   -0.5333 O.3     1  UNL1       -0.4928
      3 C           3.0161   -0.9497   -0.3359 C.ar    1  UNL1        0.1501
      4 C           2.6912   -2.2806   -0.2823 C.ar    1  UNL1        0.0175
      5 C           1.4000   -2.6775   -0.0840 C.ar    1  UNL1        0.1290
      6 F           1.0694   -3.9747   -0.0292 F       1  UNL1       -0.2053
      7 C           0.3731   -1.7341    0.0695 C.ar    1  UNL1       -0.0002
      8 C           0.6805   -0.3967    0.0163 C.ar    1  UNL1        0.0803
      9 C           2.0109    0.0031   -0.1860 C.ar    1  UNL1        0.1296
     10 N           2.3230    1.3127   -0.2080 N.ar    1  UNL1       -0.2446
     11 C           1.3782    2.2504   -0.0390 C.ar    1  UNL1        0.0646
     12 C           1.7813    3.6848   -0.0708 C.3     1  UNL1       -0.0203
     13 C           0.0627    1.8904    0.1595 C.ar    1  UNL1        0.0905
     14 C          -1.0864    2.6216    0.3618 C.ar    1  UNL1        0.0661
     15 C          -1.1694    4.1020    0.4129 C.3     1  UNL1       -0.0202
     16 N          -2.0794    1.7392    0.4974 N.ar    1  UNL1       -0.2317
     17 C          -1.5715    0.4534    0.3821 C.ar    1  UNL1        0.1478
     18 C          -2.4874   -0.6431    0.4900 C.ar    1  UNL1        0.0388
     19 C          -3.0687   -0.8615    1.7209 C.ar    1  UNL1       -0.0479
     20 C          -4.0237   -1.8189    1.8899 C.ar    1  UNL1       -0.0429
     21 C          -4.4221   -2.5852    0.8254 C.ar    1  UNL1        0.0279
     22 N          -3.8475   -2.3602   -0.3634 N.ar    1  UNL1       -0.2595
     23 C          -2.9118   -1.4326   -0.5624 C.ar    1  UNL1        0.0488
     24 C          -2.3362   -1.2445   -1.9024 C.3     1  UNL1       -0.0217
     25 N          -0.2638    0.5617    0.1814 N.ar    1  UNL1       -0.2885
     26 H           5.3182   -2.1445    0.1483 H       1  UNL1        0.0660
     27 H           5.1503   -2.0126   -1.6216 H       1  UNL1        0.0660
     28 H           6.3305   -0.9143   -0.7960 H       1  UNL1        0.0660
     29 H           3.5022   -2.9864   -0.4041 H       1  UNL1        0.0684
     30 H          -0.5963   -2.0685    0.2529 H       1  UNL1        0.0668
     31 H           2.9031    3.7374    0.0456 H       1  UNL1        0.0293
     32 H           1.3891    4.2671    0.7700 H       1  UNL1        0.0293
     33 H           1.5961    4.1493   -1.0690 H       1  UNL1        0.0293
     34 H          -2.2592    4.3880    0.3006 H       1  UNL1        0.0293
     35 H          -0.6645    4.6006   -0.4186 H       1  UNL1        0.0293
     36 H          -0.9020    4.5043    1.4194 H       1  UNL1        0.0293
     37 H          -2.7540   -0.2490    2.5842 H       1  UNL1        0.0626
     38 H          -4.4518   -1.9542    2.8752 H       1  UNL1        0.0633
     39 H          -5.1917   -3.3577    0.9590 H       1  UNL1        0.0829
     40 H          -3.1359   -1.3284   -2.6891 H       1  UNL1        0.0293
     41 H          -1.7925   -0.2817   -1.9823 H       1  UNL1        0.0293
     42 H          -1.6400   -2.0867   -2.0920 H       1  UNL1        0.0293
@<TRIPOS>BOND
     1     1     2    1
     2     2     3    1
     3     3     4   ar
     4     4     5   ar
     5     5     6    1
     6     5     7   ar
     7     7     8   ar
     8     8     9   ar
     9     9    10   ar
    10    10    11   ar
    11    11    12    1
    12    11    13   ar
    13    13    14   ar
    14    14    15    1
    15    14    16   ar
    16    16    17   ar
    17    17    18    1
    18    18    19   ar
    19    19    20   ar
    20    20    21   ar
    21    21    22   ar
    22    22    23   ar
    23    23    24    1
    24    17    25   ar
    25     9     3   ar
    26    25    13   ar
    27    25     8   ar
    28    23    18   ar
    29     1    26    1
    30     1    27    1
    31     1    28    1
    32     4    29    1
    33     7    30    1
    34    12    31    1
    35    12    32    1
    36    12    33    1
    37    15    34    1
    38    15    35    1
    39    15    36    1
    40    19    37    1
    41    20    38    1
    42    21    39    1
    43    24    40    1
    44    24    41    1
    45    24    42    1
