
     RDKit          3D

 64 67  0  0  0  0  0  0  0  0999 V2000
    8.3865   -0.8388    2.9894 C   0  0  0  0  0  0  0  0  0  0  0  0
    7.4646   -0.6890    1.8311 C   0  0  0  0  0  0  0  0  0  0  0  0
    6.2717   -0.0062    1.9142 C   0  0  0  0  0  0  0  0  0  0  0  0
    5.4237    0.1290    0.8404 C   0  0  0  0  0  0  0  0  0  0  0  0
    4.1369    0.8670    0.9319 C   0  0  0  0  0  0  0  0  0  0  0  0
    3.1004   -0.0817    0.9872 O   0  0  0  0  0  0  0  0  0  0  0  0
    1.7620    0.2739    1.0773 C   0  0  0  0  0  0  0  0  0  0  0  0
    1.3446    1.5872    1.1191 C   0  0  0  0  0  0  0  0  0  0  0  0
    0.0049    1.9261    1.2089 C   0  0  0  0  0  0  0  0  0  0  0  0
   -0.9800    0.9419    1.2608 C   0  0  0  0  0  0  0  0  0  0  0  0
   -2.6708    1.4194    1.3765 S   0  0  0  0  0  6  0  0  0  0  0  0
   -2.7996    2.7479    2.0736 O   0  0  0  0  0  0  0  0  0  0  0  0
   -3.4130    0.3437    2.0846 O   0  0  0  0  0  0  0  0  0  0  0  0
   -3.2595    1.6287   -0.3066 C   0  0  0  0  0  0  0  0  0  0  0  0
   -3.1385    0.3472   -1.0702 C   0  0  0  0  0  0  0  0  0  0  0  0
   -3.8866   -0.7768   -0.5220 C   0  0  0  0  0  0  0  0  0  0  0  0
   -5.1701   -1.0137   -0.4980 C   0  0  0  0  0  0  0  0  0  0  0  0
   -5.5860   -2.3156    0.1738 C   0  0  0  0  0  0  0  0  0  0  0  0
   -6.5857   -2.0585    1.2739 C   0  0  0  0  0  0  0  0  0  0  0  0
   -7.4891   -0.9237    0.9306 C   0  0  0  0  0  0  0  0  0  0  0  0
   -8.1904   -0.4867    1.8176 O   0  0  0  0  0  0  0  0  0  0  0  0
   -7.5649   -0.3250   -0.4058 C   0  0  0  0  0  0  0  0  0  0  0  0
   -6.1969   -0.1372   -1.0611 C   0  0  0  0  0  0  0  0  0  0  0  0
   -3.1734    0.5130   -2.5039 N   0  0  0  0  0  0  0  0  0  0  0  0
   -4.2823    0.8932   -3.1531 O   0  0  0  0  0  0  0  0  0  0  0  0
   -2.0136    0.2931   -3.2867 C   0  0  0  0  0  0  0  0  0  0  0  0
   -2.0506    0.4375   -4.5231 O   0  0  0  0  0  0  0  0  0  0  0  0
   -0.5656   -0.3674    1.2194 C   0  0  0  0  0  0  0  0  0  0  0  0
    0.7854   -0.6930    1.1289 C   0  0  0  0  0  0  0  0  0  0  0  0
    5.7859   -0.4402   -0.3557 C   0  0  0  0  0  0  0  0  0  0  0  0
    5.0078   -0.3626   -1.4920 C   0  0  0  0  0  0  0  0  0  0  0  0
    5.3723   -0.9346   -2.6939 C   0  0  0  0  0  0  0  0  0  0  0  0
    6.5667   -1.6191   -2.7803 C   0  0  0  0  0  0  0  0  0  0  0  0
    7.3482   -1.6996   -1.6471 C   0  0  0  0  0  0  0  0  0  0  0  0
    6.9787   -1.1219   -0.4356 C   0  0  0  0  0  0  0  0  0  0  0  0
    7.7895   -1.2320    0.6532 N   0  0  0  0  0  0  0  0  0  0  0  0
    8.9171   -1.8170    2.8985 H   0  0  0  0  0  0  0  0  0  0  0  0
    7.8331   -0.8360    3.9374 H   0  0  0  0  0  0  0  0  0  0  0  0
    9.1412   -0.0172    2.9250 H   0  0  0  0  0  0  0  0  0  0  0  0
    6.0018    0.4380    2.8710 H   0  0  0  0  0  0  0  0  0  0  0  0
    4.1750    1.5110    1.8344 H   0  0  0  0  0  0  0  0  0  0  0  0
    4.0257    1.5235    0.0578 H   0  0  0  0  0  0  0  0  0  0  0  0
    2.1252    2.3481    1.0778 H   0  0  0  0  0  0  0  0  0  0  0  0
   -0.3148    2.9565    1.2410 H   0  0  0  0  0  0  0  0  0  0  0  0
   -2.4761    2.3184   -0.7770 H   0  0  0  0  0  0  0  0  0  0  0  0
   -4.1797    2.1805   -0.3700 H   0  0  0  0  0  0  0  0  0  0  0  0
   -2.0147    0.0505   -0.8508 H   0  0  0  0  0  0  0  0  0  0  0  0
   -3.2768   -1.6125   -0.0219 H   0  0  0  0  0  0  0  0  0  0  0  0
   -5.9874   -2.9468   -0.6378 H   0  0  0  0  0  0  0  0  0  0  0  0
   -4.7220   -2.8369    0.6174 H   0  0  0  0  0  0  0  0  0  0  0  0
   -6.0949   -1.8346    2.2331 H   0  0  0  0  0  0  0  0  0  0  0  0
   -7.2221   -2.9615    1.3741 H   0  0  0  0  0  0  0  0  0  0  0  0
   -8.0334    0.6769   -0.3480 H   0  0  0  0  0  0  0  0  0  0  0  0
   -8.2365   -0.9417   -1.0333 H   0  0  0  0  0  0  0  0  0  0  0  0
   -6.3867   -0.4092   -2.1422 H   0  0  0  0  0  0  0  0  0  0  0  0
   -5.9062    0.9174   -1.0497 H   0  0  0  0  0  0  0  0  0  0  0  0
   -4.4680    1.8608   -3.0723 H   0  0  0  0  0  0  0  0  0  0  0  0
   -1.1033    0.0022   -2.8140 H   0  0  0  0  0  0  0  0  0  0  0  0
   -1.3299   -1.1237    1.2618 H   0  0  0  0  0  0  0  0  0  0  0  0
    1.0668   -1.7476    1.0990 H   0  0  0  0  0  0  0  0  0  0  0  0
    4.0745    0.1620   -1.4580 H   0  0  0  0  0  0  0  0  0  0  0  0
    4.7070   -0.8374   -3.5661 H   0  0  0  0  0  0  0  0  0  0  0  0
    6.8774   -2.0812   -3.7217 H   0  0  0  0  0  0  0  0  0  0  0  0
    8.2942   -2.2438   -1.7231 H   0  0  0  0  0  0  0  0  0  0  0  0
  1  2  1  0
  2  3  2  0
  3  4  1  0
  4  5  1  0
  5  6  1  0
  6  7  1  0
  7  8  2  0
  8  9  1  0
  9 10  2  0
 10 11  1  0
 11 12  2  0
 11 13  2  0
 11 14  1  0
 14 15  1  0
 15 16  1  0
 16 17  2  3
 17 18  1  0
 18 19  1  0
 19 20  1  0
 20 21  2  0
 20 22  1  0
 22 23  1  0
 15 24  1  0
 24 25  1  0
 24 26  1  0
 26 27  2  0
 10 28  1  0
 28 29  2  0
  4 30  2  0
 30 31  1  0
 31 32  2  0
 32 33  1  0
 33 34  2  0
 34 35  1  0
 35 36  2  0
 36  2  1  0
 29  7  1  0
 35 30  1  0
 23 17  1  0
  1 37  1  0
  1 38  1  0
  1 39  1  0
  3 40  1  0
  5 41  1  0
  5 42  1  0
  8 43  1  0
  9 44  1  0
 14 45  1  0
 14 46  1  0
 15 47  1  0
 16 48  1  0
 18 49  1  0
 18 50  1  0
 19 51  1  0
 19 52  1  0
 22 53  1  0
 22 54  1  0
 23 55  1  0
 23 56  1  0
 25 57  1  0
 26 58  1  0
 28 59  1  0
 29 60  1  0
 31 61  1  0
 32 62  1  0
 33 63  1  0
 34 64  1  0
M  END
$$$$
