@<TRIPOS>MOLECULE
*****
 64 67 0 0 0
SMALL
GASTEIGER

@<TRIPOS>ATOM
      1 C           8.3865   -0.8388    2.9894 C.3     1  UNL1       -0.0223
      2 C           7.4646   -0.6890    1.8311 C.ar    1  UNL1        0.0393
      3 C           6.2717   -0.0062    1.9142 C.ar    1  UNL1       -0.0337
      4 C           5.4237    0.1290    0.8404 C.ar    1  UNL1        0.0004
      5 C           4.1369    0.8670    0.9319 C.3     1  UNL1        0.1153
      6 O           3.1004   -0.0817    0.9872 O.3     1  UNL1       -0.4874
      7 C           1.7620    0.2739    1.0773 C.ar    1  UNL1        0.1211
      8 C           1.3446    1.5872    1.1191 C.ar    1  UNL1       -0.0181
      9 C           0.0049    1.9261    1.2089 C.ar    1  UNL1       -0.0334
     10 C          -0.9800    0.9419    1.2608 C.ar    1  UNL1        0.0885
     11 S          -2.6708    1.4194    1.3765 S.O2    1  UNL1       -0.0010
     12 O          -2.7996    2.7479    2.0736 O.2     1  UNL1       -0.1693
     13 O          -3.4130    0.3437    2.0846 O.2     1  UNL1       -0.1693
     14 C          -3.2595    1.6287   -0.3066 C.3     1  UNL1        0.0952
     15 C          -3.1385    0.3472   -1.0702 C.3     1  UNL1        0.0906
     16 C          -3.8866   -0.7768   -0.5220 C.2     1  UNL1       -0.0606
     17 C          -5.1701   -1.0137   -0.4980 C.2     1  UNL1       -0.0708
     18 C          -5.5860   -2.3156    0.1738 C.3     1  UNL1       -0.0250
     19 C          -6.5857   -2.0585    1.2739 C.3     1  UNL1        0.0095
     20 C          -7.4891   -0.9237    0.9306 C.2     1  UNL1        0.1340
     21 O          -8.1904   -0.4867    1.8176 O.2     1  UNL1       -0.2974
     22 C          -7.5649   -0.3250   -0.4058 C.3     1  UNL1        0.0095
     23 C          -6.1969   -0.1372   -1.0611 C.3     1  UNL1       -0.0250
     24 N          -3.1734    0.5130   -2.5039 N.am    1  UNL1       -0.1779
     25 O          -4.2823    0.8932   -3.1531 O.3     1  UNL1       -0.2921
     26 C          -2.0136    0.2931   -3.2867 C.2     1  UNL1        0.2256
     27 O          -2.0506    0.4375   -4.5231 O.2     1  UNL1       -0.2772
     28 C          -0.5656   -0.3674    1.2194 C.ar    1  UNL1       -0.0334
     29 C           0.7854   -0.6930    1.1289 C.ar    1  UNL1       -0.0181
     30 C           5.7859   -0.4402   -0.3557 C.ar    1  UNL1        0.0068
     31 C           5.0078   -0.3626   -1.4920 C.ar    1  UNL1       -0.0522
     32 C           5.3723   -0.9346   -2.6939 C.ar    1  UNL1       -0.0611
     33 C           6.5667   -1.6191   -2.7803 C.ar    1  UNL1       -0.0597
     34 C           7.3482   -1.6996   -1.6471 C.ar    1  UNL1       -0.0357
     35 C           6.9787   -1.1219   -0.4356 C.ar    1  UNL1        0.0716
     36 N           7.7895   -1.2320    0.6532 N.ar    1  UNL1       -0.2519
     37 H           8.9171   -1.8170    2.8985 H       1  UNL1        0.0292
     38 H           7.8331   -0.8360    3.9374 H       1  UNL1        0.0292
     39 H           9.1412   -0.0172    2.9250 H       1  UNL1        0.0292
     40 H           6.0018    0.4380    2.8710 H       1  UNL1        0.0639
     41 H           4.1750    1.5110    1.8344 H       1  UNL1        0.0748
     42 H           4.0257    1.5235    0.0578 H       1  UNL1        0.0748
     43 H           2.1252    2.3481    1.0778 H       1  UNL1        0.0655
     44 H          -0.3148    2.9565    1.2410 H       1  UNL1        0.0638
     45 H          -2.4761    2.3184   -0.7770 H       1  UNL1        0.0527
     46 H          -4.1797    2.1805   -0.3700 H       1  UNL1        0.0527
     47 H          -2.0147    0.0505   -0.8508 H       1  UNL1        0.0585
     48 H          -3.2768   -1.6125   -0.0219 H       1  UNL1        0.0591
     49 H          -5.9874   -2.9468   -0.6378 H       1  UNL1        0.0314
     50 H          -4.7220   -2.8369    0.6174 H       1  UNL1        0.0314
     51 H          -6.0949   -1.8346    2.2331 H       1  UNL1        0.0345
     52 H          -7.2221   -2.9615    1.3741 H       1  UNL1        0.0345
     53 H          -8.0334    0.6769   -0.3480 H       1  UNL1        0.0345
     54 H          -8.2365   -0.9417   -1.0333 H       1  UNL1        0.0345
     55 H          -6.3867   -0.4092   -2.1422 H       1  UNL1        0.0314
     56 H          -5.9062    0.9174   -1.0497 H       1  UNL1        0.0314
     57 H          -4.4680    1.8608   -3.0723 H       1  UNL1        0.2417
     58 H          -1.1033    0.0022   -2.8140 H       1  UNL1        0.1274
     59 H          -1.3299   -1.1237    1.2618 H       1  UNL1        0.0638
     60 H           1.0668   -1.7476    1.0990 H       1  UNL1        0.0655
     61 H           4.0745    0.1620   -1.4580 H       1  UNL1        0.0624
     62 H           4.7070   -0.8374   -3.5661 H       1  UNL1        0.0618
     63 H           6.8774   -2.0812   -3.7217 H       1  UNL1        0.0618
     64 H           8.2942   -2.2438   -1.7231 H       1  UNL1        0.0639
@<TRIPOS>BOND
     1     1     2    1
     2     2     3   ar
     3     3     4   ar
     4     4     5    1
     5     5     6    1
     6     6     7    1
     7     7     8   ar
     8     8     9   ar
     9     9    10   ar
    10    10    11    1
    11    11    12    2
    12    11    13    2
    13    11    14    1
    14    14    15    1
    15    15    16    1
    16    16    17    2
    17    17    18    1
    18    18    19    1
    19    19    20    1
    20    20    21    2
    21    20    22    1
    22    22    23    1
    23    15    24    1
    24    24    25    1
    25    24    26   am
    26    26    27    2
    27    10    28   ar
    28    28    29   ar
    29     4    30   ar
    30    30    31   ar
    31    31    32   ar
    32    32    33   ar
    33    33    34   ar
    34    34    35   ar
    35    35    36   ar
    36    36     2   ar
    37    29     7   ar
    38    35    30   ar
    39    23    17    1
    40     1    37    1
    41     1    38    1
    42     1    39    1
    43     3    40    1
    44     5    41    1
    45     5    42    1
    46     8    43    1
    47     9    44    1
    48    14    45    1
    49    14    46    1
    50    15    47    1
    51    16    48    1
    52    18    49    1
    53    18    50    1
    54    19    51    1
    55    19    52    1
    56    22    53    1
    57    22    54    1
    58    23    55    1
    59    23    56    1
    60    25    57    1
    61    26    58    1
    62    28    59    1
    63    29    60    1
    64    31    61    1
    65    32    62    1
    66    33    63    1
    67    34    64    1
