@<TRIPOS>MOLECULE
*****
 59 62 0 0 0
SMALL
GASTEIGER

@<TRIPOS>ATOM
      1 C          -2.1033   -2.5394   -2.9721 C.3     1  UNL1       -0.0045
      2 C          -2.0445   -1.7219   -1.7462 C.ar    1  UNL1        0.1301
      3 N          -0.8604   -1.3180   -1.2624 N.ar    1  UNL1       -0.2174
      4 C          -0.7802   -0.5663   -0.1356 C.ar    1  UNL1        0.1296
      5 N           0.4564   -0.1299    0.3889 N.pl3   1  UNL1       -0.2785
      6 C           1.6947   -0.4913   -0.3167 C.ar    1  UNL1        0.1641
      7 N           2.0387   -1.0459   -1.2238 N.ar    1  UNL1       -0.2322
      8 C           3.2889   -1.2328   -1.6563 C.ar    1  UNL1        0.0491
      9 C           4.2505   -0.6861   -0.9080 C.ar    1  UNL1        0.0953
     10 C           5.7243   -0.6537   -1.0205 C.2     1  UNL1        0.2565
     11 O           6.2952   -1.2245   -1.9798 O.2     1  UNL1       -0.2692
     12 N           6.4871    0.0260   -0.0378 N.am    1  UNL1       -0.2796
     13 C           7.8897    0.0940   -0.0871 C.ar    1  UNL1        0.0551
     14 C           8.5131    1.1230   -0.7375 C.ar    1  UNL1       -0.0278
     15 C           7.6848    2.1649   -1.3851 C.3     1  UNL1       -0.0379
     16 C           9.8952    1.1839   -0.7850 C.ar    1  UNL1       -0.0570
     17 C          10.6499    0.2117   -0.1792 C.ar    1  UNL1       -0.0600
     18 C          10.0301   -0.8264    0.4769 C.ar    1  UNL1       -0.0416
     19 C           8.6494   -0.8737    0.5156 C.ar    1  UNL1        0.0624
     20 CL          7.8726   -2.1980    1.3527 Cl      1  UNL1       -0.0816
     21 S           3.3256    0.1028    0.4309 S.2     1  UNL1       -0.0475
     22 C          -1.9575   -0.2341    0.4914 C.ar    1  UNL1        0.0185
     23 C          -3.1884   -0.6356    0.0158 C.ar    1  UNL1        0.1266
     24 N          -4.3863   -0.2877    0.6630 N.pl3   1  UNL1       -0.3126
     25 C          -4.3912    0.5337    1.8448 C.3     1  UNL1        0.0263
     26 C          -5.7403    1.2601    1.9263 C.3     1  UNL1        0.0148
     27 N          -6.8513    0.3664    1.8765 N.3     1  UNL1       -0.2972
     28 C          -7.9780    0.8729    1.1473 C.3     1  UNL1        0.0222
     29 C          -8.6666    2.0305    1.7969 C.3     1  UNL1        0.0569
     30 O          -9.7340    2.3990    0.9601 O.3     1  UNL1       -0.3937
     31 C          -6.5495   -0.9491    1.3628 C.3     1  UNL1        0.0148
     32 C          -5.6462   -0.7583    0.1435 C.3     1  UNL1        0.0263
     33 N          -3.1788   -1.3887   -1.1225 N.ar    1  UNL1       -0.2175
     34 H          -3.1352   -2.5943   -3.3663 H       1  UNL1        0.0308
     35 H          -1.4854   -2.0112   -3.7447 H       1  UNL1        0.0308
     36 H          -1.6490   -3.5433   -2.8328 H       1  UNL1        0.0308
     37 H           0.4952    0.4299    1.2475 H       1  UNL1        0.1555
     38 H           3.4895   -1.8056   -2.5760 H       1  UNL1        0.0843
     39 H           5.9548    0.4939    0.7557 H       1  UNL1        0.1552
     40 H           8.1869    3.1468   -1.3838 H       1  UNL1        0.0278
     41 H           6.7140    2.3128   -0.8658 H       1  UNL1        0.0278
     42 H           7.5379    1.8709   -2.4433 H       1  UNL1        0.0278
     43 H          10.3275    2.0285   -1.3186 H       1  UNL1        0.0621
     44 H          11.7273    0.3053   -0.2453 H       1  UNL1        0.0618
     45 H          10.6392   -1.5832    0.9479 H       1  UNL1        0.0633
     46 H          -1.8685    0.3671    1.3918 H       1  UNL1        0.0686
     47 H          -4.2197   -0.0751    2.7491 H       1  UNL1        0.0477
     48 H          -3.6147    1.3260    1.7845 H       1  UNL1        0.0477
     49 H          -5.7320    2.0143    1.1185 H       1  UNL1        0.0442
     50 H          -5.7332    1.7975    2.8965 H       1  UNL1        0.0442
     51 H          -7.6965    1.1685    0.1184 H       1  UNL1        0.0449
     52 H          -8.7306    0.0419    1.0864 H       1  UNL1        0.0449
     53 H          -8.0308    2.9299    1.8875 H       1  UNL1        0.0570
     54 H          -9.1039    1.7388    2.7738 H       1  UNL1        0.0570
     55 H          -9.5218    2.1295    0.0314 H       1  UNL1        0.2095
     56 H          -7.4830   -1.4296    0.9806 H       1  UNL1        0.0442
     57 H          -6.0460   -1.6049    2.0904 H       1  UNL1        0.0442
     58 H          -6.1415   -0.0315   -0.5170 H       1  UNL1        0.0477
     59 H          -5.5699   -1.7176   -0.4045 H       1  UNL1        0.0477
@<TRIPOS>BOND
     1     1     2    1
     2     2     3   ar
     3     3     4   ar
     4     4     5    1
     5     5     6    1
     6     6     7   ar
     7     7     8   ar
     8     8     9   ar
     9     9    10    1
    10    10    11    2
    11    10    12   am
    12    12    13    1
    13    13    14   ar
    14    14    15    1
    15    14    16   ar
    16    16    17   ar
    17    17    18   ar
    18    18    19   ar
    19    19    20    1
    20     9    21   ar
    21     4    22   ar
    22    22    23   ar
    23    23    24    1
    24    24    25    1
    25    25    26    1
    26    26    27    1
    27    27    28    1
    28    28    29    1
    29    29    30    1
    30    27    31    1
    31    31    32    1
    32    23    33   ar
    33    33     2   ar
    34    21     6   ar
    35    32    24    1
    36    19    13   ar
    37     1    34    1
    38     1    35    1
    39     1    36    1
    40     5    37    1
    41     8    38    1
    42    12    39    1
    43    15    40    1
    44    15    41    1
    45    15    42    1
    46    16    43    1
    47    17    44    1
    48    18    45    1
    49    22    46    1
    50    25    47    1
    51    25    48    1
    52    26    49    1
    53    26    50    1
    54    28    51    1
    55    28    52    1
    56    29    53    1
    57    29    54    1
    58    30    55    1
    59    31    56    1
    60    31    57    1
    61    32    58    1
    62    32    59    1
