
     RDKit          3D

 59 62  0  0  0  0  0  0  0  0999 V2000
   -2.1033   -2.5394   -2.9721 C   0  0  0  0  0  0  0  0  0  0  0  0
   -2.0445   -1.7219   -1.7462 C   0  0  0  0  0  0  0  0  0  0  0  0
   -0.8604   -1.3180   -1.2624 N   0  0  0  0  0  0  0  0  0  0  0  0
   -0.7802   -0.5663   -0.1356 C   0  0  0  0  0  0  0  0  0  0  0  0
    0.4564   -0.1299    0.3889 N   0  0  0  0  0  0  0  0  0  0  0  0
    1.6947   -0.4913   -0.3167 C   0  0  0  0  0  0  0  0  0  0  0  0
    2.0387   -1.0459   -1.2238 N   0  0  0  0  0  0  0  0  0  0  0  0
    3.2889   -1.2328   -1.6563 C   0  0  0  0  0  0  0  0  0  0  0  0
    4.2505   -0.6861   -0.9080 C   0  0  0  0  0  0  0  0  0  0  0  0
    5.7243   -0.6537   -1.0205 C   0  0  0  0  0  0  0  0  0  0  0  0
    6.2952   -1.2245   -1.9798 O   0  0  0  0  0  0  0  0  0  0  0  0
    6.4871    0.0260   -0.0378 N   0  0  0  0  0  0  0  0  0  0  0  0
    7.8897    0.0940   -0.0871 C   0  0  0  0  0  0  0  0  0  0  0  0
    8.5131    1.1230   -0.7375 C   0  0  0  0  0  0  0  0  0  0  0  0
    7.6848    2.1649   -1.3851 C   0  0  0  0  0  0  0  0  0  0  0  0
    9.8952    1.1839   -0.7850 C   0  0  0  0  0  0  0  0  0  0  0  0
   10.6499    0.2117   -0.1792 C   0  0  0  0  0  0  0  0  0  0  0  0
   10.0301   -0.8264    0.4769 C   0  0  0  0  0  0  0  0  0  0  0  0
    8.6494   -0.8737    0.5156 C   0  0  0  0  0  0  0  0  0  0  0  0
    7.8726   -2.1980    1.3527 Cl  0  0  0  0  0  0  0  0  0  0  0  0
    3.3256    0.1028    0.4309 S   0  0  0  0  0  0  0  0  0  0  0  0
   -1.9575   -0.2341    0.4914 C   0  0  0  0  0  0  0  0  0  0  0  0
   -3.1884   -0.6356    0.0158 C   0  0  0  0  0  0  0  0  0  0  0  0
   -4.3863   -0.2877    0.6630 N   0  0  0  0  0  0  0  0  0  0  0  0
   -4.3912    0.5337    1.8448 C   0  0  0  0  0  0  0  0  0  0  0  0
   -5.7403    1.2601    1.9263 C   0  0  0  0  0  0  0  0  0  0  0  0
   -6.8513    0.3664    1.8765 N   0  0  0  0  0  0  0  0  0  0  0  0
   -7.9780    0.8729    1.1473 C   0  0  0  0  0  0  0  0  0  0  0  0
   -8.6666    2.0305    1.7969 C   0  0  0  0  0  0  0  0  0  0  0  0
   -9.7340    2.3990    0.9601 O   0  0  0  0  0  0  0  0  0  0  0  0
   -6.5495   -0.9491    1.3628 C   0  0  0  0  0  0  0  0  0  0  0  0
   -5.6462   -0.7583    0.1435 C   0  0  0  0  0  0  0  0  0  0  0  0
   -3.1788   -1.3887   -1.1225 N   0  0  0  0  0  0  0  0  0  0  0  0
   -3.1352   -2.5943   -3.3663 H   0  0  0  0  0  0  0  0  0  0  0  0
   -1.4854   -2.0112   -3.7447 H   0  0  0  0  0  0  0  0  0  0  0  0
   -1.6490   -3.5433   -2.8328 H   0  0  0  0  0  0  0  0  0  0  0  0
    0.4952    0.4299    1.2475 H   0  0  0  0  0  0  0  0  0  0  0  0
    3.4895   -1.8056   -2.5760 H   0  0  0  0  0  0  0  0  0  0  0  0
    5.9548    0.4939    0.7557 H   0  0  0  0  0  0  0  0  0  0  0  0
    8.1869    3.1468   -1.3838 H   0  0  0  0  0  0  0  0  0  0  0  0
    6.7140    2.3128   -0.8658 H   0  0  0  0  0  0  0  0  0  0  0  0
    7.5379    1.8709   -2.4433 H   0  0  0  0  0  0  0  0  0  0  0  0
   10.3275    2.0285   -1.3186 H   0  0  0  0  0  0  0  0  0  0  0  0
   11.7273    0.3053   -0.2453 H   0  0  0  0  0  0  0  0  0  0  0  0
   10.6392   -1.5832    0.9479 H   0  0  0  0  0  0  0  0  0  0  0  0
   -1.8685    0.3671    1.3918 H   0  0  0  0  0  0  0  0  0  0  0  0
   -4.2197   -0.0751    2.7491 H   0  0  0  0  0  0  0  0  0  0  0  0
   -3.6147    1.3260    1.7845 H   0  0  0  0  0  0  0  0  0  0  0  0
   -5.7320    2.0143    1.1185 H   0  0  0  0  0  0  0  0  0  0  0  0
   -5.7332    1.7975    2.8965 H   0  0  0  0  0  0  0  0  0  0  0  0
   -7.6965    1.1685    0.1184 H   0  0  0  0  0  0  0  0  0  0  0  0
   -8.7306    0.0419    1.0864 H   0  0  0  0  0  0  0  0  0  0  0  0
   -8.0308    2.9299    1.8875 H   0  0  0  0  0  0  0  0  0  0  0  0
   -9.1039    1.7388    2.7738 H   0  0  0  0  0  0  0  0  0  0  0  0
   -9.5218    2.1295    0.0314 H   0  0  0  0  0  0  0  0  0  0  0  0
   -7.4830   -1.4296    0.9806 H   0  0  0  0  0  0  0  0  0  0  0  0
   -6.0460   -1.6049    2.0904 H   0  0  0  0  0  0  0  0  0  0  0  0
   -6.1415   -0.0315   -0.5170 H   0  0  0  0  0  0  0  0  0  0  0  0
   -5.5699   -1.7176   -0.4045 H   0  0  0  0  0  0  0  0  0  0  0  0
  1  2  1  0
  2  3  2  0
  3  4  1  0
  4  5  1  0
  5  6  1  0
  6  7  2  0
  7  8  1  0
  8  9  2  0
  9 10  1  0
 10 11  2  0
 10 12  1  0
 12 13  1  0
 13 14  2  0
 14 15  1  0
 14 16  1  0
 16 17  2  0
 17 18  1  0
 18 19  2  0
 19 20  1  0
  9 21  1  0
  4 22  2  0
 22 23  1  0
 23 24  1  0
 24 25  1  0
 25 26  1  0
 26 27  1  0
 27 28  1  0
 28 29  1  0
 29 30  1  0
 27 31  1  0
 31 32  1  0
 23 33  2  0
 33  2  1  0
 21  6  1  0
 32 24  1  0
 19 13  1  0
  1 34  1  0
  1 35  1  0
  1 36  1  0
  5 37  1  0
  8 38  1  0
 12 39  1  0
 15 40  1  0
 15 41  1  0
 15 42  1  0
 16 43  1  0
 17 44  1  0
 18 45  1  0
 22 46  1  0
 25 47  1  0
 25 48  1  0
 26 49  1  0
 26 50  1  0
 28 51  1  0
 28 52  1  0
 29 53  1  0
 29 54  1  0
 30 55  1  0
 31 56  1  0
 31 57  1  0
 32 58  1  0
 32 59  1  0
M  END
$$$$
