@<TRIPOS>MOLECULE
*****
 49 53 0 0 0
SMALL
GASTEIGER

@<TRIPOS>ATOM
      1 O           4.9142   -0.9244    1.1237 O.2     1  UNL1       -0.2696
      2 C           5.4748   -0.5059    0.0919 C.2     1  UNL1        0.2508
      3 N           4.7663   -0.3852   -1.1270 N.am    1  UNL1       -0.3073
      4 C           3.3835   -0.7072   -1.3170 C.3     1  UNL1        0.0510
      5 C           2.4055    0.0806   -0.5120 C.3     1  UNL1        0.1421
      6 O           2.5395   -0.0266    0.8626 O.3     1  UNL1       -0.4431
      7 C           1.3049   -0.0657    1.4939 C.2     1  UNL1        0.4081
      8 O           1.0333   -0.0003    2.7198 O.2     1  UNL1       -0.2259
      9 N           0.3122   -0.2015    0.4685 N.am    1  UNL1       -0.2239
     10 C          -1.1018   -0.1133    0.4470 C.ar    1  UNL1        0.0817
     11 C          -1.8099   -0.3265    1.6179 C.ar    1  UNL1       -0.0348
     12 C          -3.1816   -0.2328    1.5601 C.ar    1  UNL1       -0.0383
     13 C          -3.8762    0.0612    0.3995 C.ar    1  UNL1        0.0400
     14 N          -5.3050    0.1465    0.3968 N.am    1  UNL1       -0.2672
     15 C          -6.1522   -0.9887    0.1375 C.3     1  UNL1        0.0433
     16 C          -7.5796   -0.6223    0.4578 C.3     1  UNL1        0.0644
     17 O          -7.9754    0.5434   -0.2118 O.3     1  UNL1       -0.3690
     18 C          -7.3257    1.6590    0.2606 C.3     1  UNL1        0.1242
     19 C          -5.9213    1.3979    0.6595 C.2     1  UNL1        0.2456
     20 O          -5.2817    2.2970    1.2331 O.2     1  UNL1       -0.2727
     21 C          -3.1312    0.2661   -0.7432 C.ar    1  UNL1        0.0034
     22 C          -1.7361    0.1824   -0.7375 C.ar    1  UNL1        0.1438
     23 O          -0.9701    0.3836   -1.8688 O.3     1  UNL1       -0.4881
     24 C           0.3831    0.0704   -1.9866 C.3     1  UNL1        0.1122
     25 C           1.0120   -0.4884   -0.7549 C.3     1  UNL1        0.1067
     26 C           6.8962   -0.1300    0.1370 C.ar    1  UNL1        0.0752
     27 C           7.7736   -0.1517    1.1502 C.ar    1  UNL1       -0.0411
     28 C           9.0373    0.2378    0.9750 C.ar    1  UNL1       -0.0355
     29 C           9.3899    0.6601   -0.2918 C.ar    1  UNL1        0.0787
     30 CL         10.9542    1.2562   -0.9507 Cl      1  UNL1       -0.0758
     31 S           7.8429    0.4799   -1.2294 S.2     1  UNL1       -0.0722
     32 H           5.3510   -0.0195   -1.9477 H       1  UNL1        0.1492
     33 H           3.1712   -1.7899   -1.1620 H       1  UNL1        0.0499
     34 H           3.1299   -0.5261   -2.3909 H       1  UNL1        0.0499
     35 H           2.3958    1.1619   -0.7740 H       1  UNL1        0.0770
     36 H          -1.2773   -0.5574    2.5341 H       1  UNL1        0.0638
     37 H          -3.7892   -0.3933    2.4618 H       1  UNL1        0.0637
     38 H          -5.9025   -1.8728    0.7661 H       1  UNL1        0.0491
     39 H          -6.1272   -1.2721   -0.9528 H       1  UNL1        0.0491
     40 H          -8.2328   -1.4399    0.0436 H       1  UNL1        0.0576
     41 H          -7.7894   -0.5807    1.5407 H       1  UNL1        0.0576
     42 H          -7.8523    2.1382    1.1261 H       1  UNL1        0.0657
     43 H          -7.3094    2.4392   -0.5432 H       1  UNL1        0.0657
     44 H          -3.6317    0.4955   -1.6599 H       1  UNL1        0.0673
     45 H           0.9504    0.9515   -2.3727 H       1  UNL1        0.0717
     46 H           0.4844   -0.7048   -2.7958 H       1  UNL1        0.0717
     47 H           1.1259   -1.6112   -0.7977 H       1  UNL1        0.0577
     48 H           7.4184   -0.5084    2.1593 H       1  UNL1        0.0631
     49 H           9.8090    0.2381    1.7908 H       1  UNL1        0.0638
@<TRIPOS>BOND
     1     1     2    2
     2     2     3   am
     3     3     4    1
     4     4     5    1
     5     5     6    1
     6     6     7    1
     7     7     8    2
     8     7     9   am
     9     9    10    1
    10    10    11   ar
    11    11    12   ar
    12    12    13   ar
    13    13    14    1
    14    14    15    1
    15    15    16    1
    16    16    17    1
    17    17    18    1
    18    18    19    1
    19    19    20    2
    20    13    21   ar
    21    21    22   ar
    22    22    23    1
    23    23    24    1
    24    24    25    1
    25     2    26    1
    26    26    27   ar
    27    27    28   ar
    28    28    29   ar
    29    29    30    1
    30    29    31   ar
    31    25     5    1
    32    31    26   ar
    33    25     9    1
    34    22    10   ar
    35    19    14   am
    36     3    32    1
    37     4    33    1
    38     4    34    1
    39     5    35    1
    40    11    36    1
    41    12    37    1
    42    15    38    1
    43    15    39    1
    44    16    40    1
    45    16    41    1
    46    18    42    1
    47    18    43    1
    48    21    44    1
    49    24    45    1
    50    24    46    1
    51    25    47    1
    52    27    48    1
    53    28    49    1
