
     RDKit          3D

 49 53  0  0  0  0  0  0  0  0999 V2000
    4.9142   -0.9244    1.1237 O   0  0  0  0  0  0  0  0  0  0  0  0
    5.4748   -0.5059    0.0919 C   0  0  0  0  0  0  0  0  0  0  0  0
    4.7663   -0.3852   -1.1270 N   0  0  0  0  0  0  0  0  0  0  0  0
    3.3835   -0.7072   -1.3170 C   0  0  0  0  0  0  0  0  0  0  0  0
    2.4055    0.0806   -0.5120 C   0  0  2  0  0  0  0  0  0  0  0  0
    2.5395   -0.0266    0.8626 O   0  0  0  0  0  0  0  0  0  0  0  0
    1.3049   -0.0657    1.4939 C   0  0  0  0  0  0  0  0  0  0  0  0
    1.0333   -0.0003    2.7198 O   0  0  0  0  0  0  0  0  0  0  0  0
    0.3122   -0.2015    0.4685 N   0  0  0  0  0  0  0  0  0  0  0  0
   -1.1018   -0.1133    0.4470 C   0  0  0  0  0  0  0  0  0  0  0  0
   -1.8099   -0.3265    1.6179 C   0  0  0  0  0  0  0  0  0  0  0  0
   -3.1816   -0.2328    1.5601 C   0  0  0  0  0  0  0  0  0  0  0  0
   -3.8762    0.0612    0.3995 C   0  0  0  0  0  0  0  0  0  0  0  0
   -5.3050    0.1465    0.3968 N   0  0  0  0  0  0  0  0  0  0  0  0
   -6.1522   -0.9887    0.1375 C   0  0  0  0  0  0  0  0  0  0  0  0
   -7.5796   -0.6223    0.4578 C   0  0  0  0  0  0  0  0  0  0  0  0
   -7.9754    0.5434   -0.2118 O   0  0  0  0  0  0  0  0  0  0  0  0
   -7.3257    1.6590    0.2606 C   0  0  0  0  0  0  0  0  0  0  0  0
   -5.9213    1.3979    0.6595 C   0  0  0  0  0  0  0  0  0  0  0  0
   -5.2817    2.2970    1.2331 O   0  0  0  0  0  0  0  0  0  0  0  0
   -3.1312    0.2661   -0.7432 C   0  0  0  0  0  0  0  0  0  0  0  0
   -1.7361    0.1824   -0.7375 C   0  0  0  0  0  0  0  0  0  0  0  0
   -0.9701    0.3836   -1.8688 O   0  0  0  0  0  0  0  0  0  0  0  0
    0.3831    0.0704   -1.9866 C   0  0  0  0  0  0  0  0  0  0  0  0
    1.0120   -0.4884   -0.7549 C   0  0  1  0  0  0  0  0  0  0  0  0
    6.8962   -0.1300    0.1370 C   0  0  0  0  0  0  0  0  0  0  0  0
    7.7736   -0.1517    1.1502 C   0  0  0  0  0  0  0  0  0  0  0  0
    9.0373    0.2378    0.9750 C   0  0  0  0  0  0  0  0  0  0  0  0
    9.3899    0.6601   -0.2918 C   0  0  0  0  0  0  0  0  0  0  0  0
   10.9542    1.2562   -0.9507 Cl  0  0  0  0  0  0  0  0  0  0  0  0
    7.8429    0.4799   -1.2294 S   0  0  0  0  0  0  0  0  0  0  0  0
    5.3510   -0.0195   -1.9477 H   0  0  0  0  0  0  0  0  0  0  0  0
    3.1712   -1.7899   -1.1620 H   0  0  0  0  0  0  0  0  0  0  0  0
    3.1299   -0.5261   -2.3909 H   0  0  0  0  0  0  0  0  0  0  0  0
    2.3958    1.1619   -0.7740 H   0  0  0  0  0  0  0  0  0  0  0  0
   -1.2773   -0.5574    2.5341 H   0  0  0  0  0  0  0  0  0  0  0  0
   -3.7892   -0.3933    2.4618 H   0  0  0  0  0  0  0  0  0  0  0  0
   -5.9025   -1.8728    0.7661 H   0  0  0  0  0  0  0  0  0  0  0  0
   -6.1272   -1.2721   -0.9528 H   0  0  0  0  0  0  0  0  0  0  0  0
   -8.2328   -1.4399    0.0436 H   0  0  0  0  0  0  0  0  0  0  0  0
   -7.7894   -0.5807    1.5407 H   0  0  0  0  0  0  0  0  0  0  0  0
   -7.8523    2.1382    1.1261 H   0  0  0  0  0  0  0  0  0  0  0  0
   -7.3094    2.4392   -0.5432 H   0  0  0  0  0  0  0  0  0  0  0  0
   -3.6317    0.4955   -1.6599 H   0  0  0  0  0  0  0  0  0  0  0  0
    0.9504    0.9515   -2.3727 H   0  0  0  0  0  0  0  0  0  0  0  0
    0.4844   -0.7048   -2.7958 H   0  0  0  0  0  0  0  0  0  0  0  0
    1.1259   -1.6112   -0.7977 H   0  0  0  0  0  0  0  0  0  0  0  0
    7.4184   -0.5084    2.1593 H   0  0  0  0  0  0  0  0  0  0  0  0
    9.8090    0.2381    1.7908 H   0  0  0  0  0  0  0  0  0  0  0  0
  1  2  2  0
  2  3  1  0
  3  4  1  0
  4  5  1  0
  5  6  1  0
  6  7  1  0
  7  8  2  0
  7  9  1  0
  9 10  1  0
 10 11  2  0
 11 12  1  0
 12 13  2  0
 13 14  1  0
 14 15  1  0
 15 16  1  0
 16 17  1  0
 17 18  1  0
 18 19  1  0
 19 20  2  0
 13 21  1  0
 21 22  2  0
 22 23  1  0
 23 24  1  0
 24 25  1  0
  2 26  1  0
 26 27  2  0
 27 28  1  0
 28 29  2  0
 29 30  1  0
 29 31  1  0
 25  5  1  0
 31 26  1  0
 25  9  1  0
 22 10  1  0
 19 14  1  0
  3 32  1  0
  4 33  1  0
  4 34  1  0
  5 35  1  6
 11 36  1  0
 12 37  1  0
 15 38  1  0
 15 39  1  0
 16 40  1  0
 16 41  1  0
 18 42  1  0
 18 43  1  0
 21 44  1  0
 24 45  1  0
 24 46  1  0
 25 47  1  6
 27 48  1  0
 28 49  1  0
M  END
$$$$
