@<TRIPOS>MOLECULE
*****
 48 52 0 0 0
SMALL
GASTEIGER

@<TRIPOS>ATOM
      1 C          -2.6297   -4.6494   -1.3946 C.3     1  UNL1       -0.0223
      2 C          -2.6726   -3.5223   -0.4359 C.ar    1  UNL1        0.0390
      3 C          -3.7365   -3.3864    0.4390 C.ar    1  UNL1       -0.0406
      4 C          -3.8105   -2.3427    1.3511 C.ar    1  UNL1       -0.0580
      5 C          -2.7944   -1.4128    1.3879 C.ar    1  UNL1       -0.0342
      6 C          -1.7424   -1.5630    0.5099 C.ar    1  UNL1        0.0895
      7 C          -0.6804   -0.5558    0.5769 C.ar    1  UNL1        0.0926
      8 N           0.6213   -0.7973    0.9104 N.ar    1  UNL1       -0.3389
      9 C           1.2721    0.3732    0.8578 C.ar    1  UNL1        0.1254
     10 C           2.7175    0.5625    1.1503 C.3     1  UNL1        0.0673
     11 N           3.4811    0.4018   -0.0686 N.pl3   1  UNL1       -0.3345
     12 C           4.8889    0.5430   -0.0286 C.ar    1  UNL1        0.0631
     13 C           5.5549    0.8323    1.1523 C.ar    1  UNL1       -0.0380
     14 C           6.9271    0.9663    1.1700 C.ar    1  UNL1       -0.0598
     15 C           7.6973    0.8203    0.0238 C.ar    1  UNL1       -0.0589
     16 C           7.0325    0.5334   -1.1447 C.ar    1  UNL1       -0.0246
     17 C           5.6610    0.3998   -1.1612 C.ar    1  UNL1        0.1441
     18 F           5.0226    0.1163   -2.3258 F       1  UNL1       -0.2036
     19 N           0.4001    1.3371    0.4980 N.ar    1  UNL1       -0.2302
     20 C          -0.8319    0.7902    0.3141 C.ar    1  UNL1        0.0998
     21 C          -2.0352    1.5138   -0.0801 C.ar    1  UNL1        0.0208
     22 C          -2.4988    2.5170    0.7645 C.ar    1  UNL1       -0.0475
     23 C          -3.6338    3.2063    0.4012 C.ar    1  UNL1       -0.0167
     24 C          -4.3168    2.9330   -0.7642 C.ar    1  UNL1        0.1557
     25 N          -5.4294    3.4438   -1.3481 N.ar    1  UNL1       -0.2149
     26 C          -5.6461    2.7974   -2.4885 C.ar    1  UNL1        0.1390
     27 N          -4.6685    1.8863   -2.6116 N.ar    1  UNL1       -0.1535
     28 N          -3.8403    1.9540   -1.5606 N.ar    1  UNL1       -0.2198
     29 C          -2.7327    1.2623   -1.2321 C.ar    1  UNL1        0.0407
     30 N          -1.6995   -2.5941   -0.3696 N.ar    1  UNL1       -0.2503
     31 H          -1.7030   -4.6197   -1.9801 H       1  UNL1        0.0292
     32 H          -3.5021   -4.6245   -2.0877 H       1  UNL1        0.0292
     33 H          -2.6606   -5.6403   -0.8794 H       1  UNL1        0.0292
     34 H          -4.5260   -4.1196    0.4013 H       1  UNL1        0.0635
     35 H          -4.6347   -2.2216    2.0421 H       1  UNL1        0.0619
     36 H          -2.8256   -0.5901    2.0878 H       1  UNL1        0.0639
     37 H           1.0220   -1.7339    1.1596 H       1  UNL1        0.1672
     38 H           2.8297    1.5596    1.5925 H       1  UNL1        0.0541
     39 H           3.0807   -0.2295    1.8569 H       1  UNL1        0.0541
     40 H           3.0134    0.1865   -0.9630 H       1  UNL1        0.1466
     41 H           4.9809    0.9534    2.0699 H       1  UNL1        0.0637
     42 H           7.4369    1.1915    2.0923 H       1  UNL1        0.0618
     43 H           8.7715    0.9318    0.0720 H       1  UNL1        0.0618
     44 H           7.5991    0.4122   -2.0623 H       1  UNL1        0.0647
     45 H          -1.9514    2.7279    1.6867 H       1  UNL1        0.0626
     46 H          -3.9857    3.9846    1.0655 H       1  UNL1        0.0655
     47 H          -6.4717    2.9893   -3.1797 H       1  UNL1        0.1066
     48 H          -2.3500    0.4760   -1.8719 H       1  UNL1        0.0837
@<TRIPOS>BOND
     1     1     2    1
     2     2     3   ar
     3     3     4   ar
     4     4     5   ar
     5     5     6   ar
     6     6     7    1
     7     7     8   ar
     8     8     9   ar
     9     9    10    1
    10    10    11    1
    11    11    12    1
    12    12    13   ar
    13    13    14   ar
    14    14    15   ar
    15    15    16   ar
    16    16    17   ar
    17    17    18    1
    18     9    19   ar
    19    19    20   ar
    20    20    21    1
    21    21    22   ar
    22    22    23   ar
    23    23    24   ar
    24    24    25   ar
    25    25    26   ar
    26    26    27   ar
    27    27    28   ar
    28    28    29   ar
    29     6    30   ar
    30    30     2   ar
    31    20     7   ar
    32    29    21   ar
    33    17    12   ar
    34    28    24   ar
    35     1    31    1
    36     1    32    1
    37     1    33    1
    38     3    34    1
    39     4    35    1
    40     5    36    1
    41     8    37    1
    42    10    38    1
    43    10    39    1
    44    11    40    1
    45    13    41    1
    46    14    42    1
    47    15    43    1
    48    16    44    1
    49    22    45    1
    50    23    46    1
    51    26    47    1
    52    29    48    1
