
     RDKit          3D

 48 52  0  0  0  0  0  0  0  0999 V2000
   -2.6297   -4.6494   -1.3946 C   0  0  0  0  0  0  0  0  0  0  0  0
   -2.6726   -3.5223   -0.4359 C   0  0  0  0  0  0  0  0  0  0  0  0
   -3.7365   -3.3864    0.4390 C   0  0  0  0  0  0  0  0  0  0  0  0
   -3.8105   -2.3427    1.3511 C   0  0  0  0  0  0  0  0  0  0  0  0
   -2.7944   -1.4128    1.3879 C   0  0  0  0  0  0  0  0  0  0  0  0
   -1.7424   -1.5630    0.5099 C   0  0  0  0  0  0  0  0  0  0  0  0
   -0.6804   -0.5558    0.5769 C   0  0  0  0  0  0  0  0  0  0  0  0
    0.6213   -0.7973    0.9104 N   0  0  0  0  0  0  0  0  0  0  0  0
    1.2721    0.3732    0.8578 C   0  0  0  0  0  0  0  0  0  0  0  0
    2.7175    0.5625    1.1503 C   0  0  0  0  0  0  0  0  0  0  0  0
    3.4811    0.4018   -0.0686 N   0  0  0  0  0  0  0  0  0  0  0  0
    4.8889    0.5430   -0.0286 C   0  0  0  0  0  0  0  0  0  0  0  0
    5.5549    0.8323    1.1523 C   0  0  0  0  0  0  0  0  0  0  0  0
    6.9271    0.9663    1.1700 C   0  0  0  0  0  0  0  0  0  0  0  0
    7.6973    0.8203    0.0238 C   0  0  0  0  0  0  0  0  0  0  0  0
    7.0325    0.5334   -1.1447 C   0  0  0  0  0  0  0  0  0  0  0  0
    5.6610    0.3998   -1.1612 C   0  0  0  0  0  0  0  0  0  0  0  0
    5.0226    0.1163   -2.3258 F   0  0  0  0  0  0  0  0  0  0  0  0
    0.4001    1.3371    0.4980 N   0  0  0  0  0  0  0  0  0  0  0  0
   -0.8319    0.7902    0.3141 C   0  0  0  0  0  0  0  0  0  0  0  0
   -2.0352    1.5138   -0.0801 C   0  0  0  0  0  0  0  0  0  0  0  0
   -2.4988    2.5170    0.7645 C   0  0  0  0  0  0  0  0  0  0  0  0
   -3.6338    3.2063    0.4012 C   0  0  0  0  0  0  0  0  0  0  0  0
   -4.3168    2.9330   -0.7642 C   0  0  0  0  0  0  0  0  0  0  0  0
   -5.4294    3.4438   -1.3481 N   0  0  0  0  0  0  0  0  0  0  0  0
   -5.6461    2.7974   -2.4885 C   0  0  0  0  0  0  0  0  0  0  0  0
   -4.6685    1.8863   -2.6116 N   0  0  0  0  0  0  0  0  0  0  0  0
   -3.8403    1.9540   -1.5606 N   0  0  0  0  0  0  0  0  0  0  0  0
   -2.7327    1.2623   -1.2321 C   0  0  0  0  0  0  0  0  0  0  0  0
   -1.6995   -2.5941   -0.3696 N   0  0  0  0  0  0  0  0  0  0  0  0
   -1.7030   -4.6197   -1.9801 H   0  0  0  0  0  0  0  0  0  0  0  0
   -3.5021   -4.6245   -2.0877 H   0  0  0  0  0  0  0  0  0  0  0  0
   -2.6606   -5.6403   -0.8794 H   0  0  0  0  0  0  0  0  0  0  0  0
   -4.5260   -4.1196    0.4013 H   0  0  0  0  0  0  0  0  0  0  0  0
   -4.6347   -2.2216    2.0421 H   0  0  0  0  0  0  0  0  0  0  0  0
   -2.8256   -0.5901    2.0878 H   0  0  0  0  0  0  0  0  0  0  0  0
    1.0220   -1.7339    1.1596 H   0  0  0  0  0  0  0  0  0  0  0  0
    2.8297    1.5596    1.5925 H   0  0  0  0  0  0  0  0  0  0  0  0
    3.0807   -0.2295    1.8569 H   0  0  0  0  0  0  0  0  0  0  0  0
    3.0134    0.1865   -0.9630 H   0  0  0  0  0  0  0  0  0  0  0  0
    4.9809    0.9534    2.0699 H   0  0  0  0  0  0  0  0  0  0  0  0
    7.4369    1.1915    2.0923 H   0  0  0  0  0  0  0  0  0  0  0  0
    8.7715    0.9318    0.0720 H   0  0  0  0  0  0  0  0  0  0  0  0
    7.5991    0.4122   -2.0623 H   0  0  0  0  0  0  0  0  0  0  0  0
   -1.9514    2.7279    1.6867 H   0  0  0  0  0  0  0  0  0  0  0  0
   -3.9857    3.9846    1.0655 H   0  0  0  0  0  0  0  0  0  0  0  0
   -6.4717    2.9893   -3.1797 H   0  0  0  0  0  0  0  0  0  0  0  0
   -2.3500    0.4760   -1.8719 H   0  0  0  0  0  0  0  0  0  0  0  0
  1  2  1  0
  2  3  2  0
  3  4  1  0
  4  5  2  0
  5  6  1  0
  6  7  1  0
  7  8  1  0
  8  9  1  0
  9 10  1  0
 10 11  1  0
 11 12  1  0
 12 13  2  0
 13 14  1  0
 14 15  2  0
 15 16  1  0
 16 17  2  0
 17 18  1  0
  9 19  2  0
 19 20  1  0
 20 21  1  0
 21 22  1  0
 22 23  2  0
 23 24  1  0
 24 25  2  0
 25 26  1  0
 26 27  2  0
 27 28  1  0
 28 29  1  0
  6 30  2  0
 30  2  1  0
 20  7  2  0
 29 21  2  0
 17 12  1  0
 28 24  1  0
  1 31  1  0
  1 32  1  0
  1 33  1  0
  3 34  1  0
  4 35  1  0
  5 36  1  0
  8 37  1  0
 10 38  1  0
 10 39  1  0
 11 40  1  0
 13 41  1  0
 14 42  1  0
 15 43  1  0
 16 44  1  0
 22 45  1  0
 23 46  1  0
 26 47  1  0
 29 48  1  0
M  END
$$$$
