
     RDKit          3D

 40 41  0  0  0  0  0  0  0  0999 V2000
    4.5015    0.7822   -1.0470 C   0  0  2  0  0  0  0  0  0  0  0  0
    5.1961   -0.0331   -1.9075 O   0  0  0  0  0  0  0  0  0  0  0  0
    5.4008    1.6751   -0.2198 C   0  0  0  0  0  0  0  0  0  0  0  0
    6.1643    2.5072   -1.0233 O   0  0  0  0  0  0  0  0  0  0  0  0
    3.5566    0.0357   -0.1370 C   0  0  0  0  0  0  0  0  0  0  0  0
    2.6564   -0.6237   -0.9480 O   0  0  0  0  0  0  0  0  0  0  0  0
    1.7702   -1.3203   -0.2114 N   0  0  0  0  0  0  0  0  0  0  0  0
    0.5352   -0.7850    0.2484 C   0  0  0  0  0  0  0  0  0  0  0  0
    0.4426    0.3797   -0.1405 O   0  0  0  0  0  0  0  0  0  0  0  0
   -0.3593   -1.6136    1.0390 C   0  0  0  0  0  0  0  0  0  0  0  0
   -0.0427   -2.8799    1.4351 C   0  0  0  0  0  0  0  0  0  0  0  0
   -0.9526   -3.5823    2.2232 C   0  0  0  0  0  0  0  0  0  0  0  0
   -2.1736   -3.0398    2.6218 C   0  0  0  0  0  0  0  0  0  0  0  0
   -3.0000   -3.7770    3.3824 F   0  0  0  0  0  0  0  0  0  0  0  0
   -2.4555   -1.7380    2.1910 C   0  0  0  0  0  0  0  0  0  0  0  0
   -3.6612   -1.2987    2.6275 F   0  0  0  0  0  0  0  0  0  0  0  0
   -1.5493   -1.0281    1.4008 C   0  0  0  0  0  0  0  0  0  0  0  0
   -2.0692    0.2359    1.0645 N   0  0  0  0  0  0  0  0  0  0  0  0
   -3.0672    0.8189    0.2384 C   0  0  0  0  0  0  0  0  0  0  0  0
   -3.9228    1.5439    1.0806 C   0  0  0  0  0  0  0  0  0  0  0  0
   -5.0240    2.2350    0.5610 C   0  0  0  0  0  0  0  0  0  0  0  0
   -5.2211    2.1677   -0.7981 C   0  0  0  0  0  0  0  0  0  0  0  0
   -6.8489    3.1705   -1.6944 I   0  0  0  0  0  0  0  0  0  0  0  0
   -4.4030    1.4681   -1.6443 C   0  0  0  0  0  0  0  0  0  0  0  0
   -3.3331    0.8022   -1.1003 C   0  0  0  0  0  0  0  0  0  0  0  0
   -2.2070   -0.1444   -2.0180 Cl  0  0  0  0  0  0  0  0  0  0  0  0
    3.8784    1.4592   -1.6715 H   0  0  0  0  0  0  0  0  0  0  0  0
    5.9751   -0.4684   -1.4825 H   0  0  0  0  0  0  0  0  0  0  0  0
    6.0360    1.0979    0.4700 H   0  0  0  0  0  0  0  0  0  0  0  0
    4.7570    2.3277    0.3980 H   0  0  0  0  0  0  0  0  0  0  0  0
    5.5473    3.0059   -1.6285 H   0  0  0  0  0  0  0  0  0  0  0  0
    3.0160    0.8156    0.4595 H   0  0  0  0  0  0  0  0  0  0  0  0
    4.0778   -0.6444    0.5542 H   0  0  0  0  0  0  0  0  0  0  0  0
    2.1223   -2.3052   -0.0298 H   0  0  0  0  0  0  0  0  0  0  0  0
    0.8824   -3.3549    1.1617 H   0  0  0  0  0  0  0  0  0  0  0  0
   -0.6679   -4.5919    2.5220 H   0  0  0  0  0  0  0  0  0  0  0  0
   -1.4417    0.8275    1.6776 H   0  0  0  0  0  0  0  0  0  0  0  0
   -3.8866    1.6835    2.1733 H   0  0  0  0  0  0  0  0  0  0  0  0
   -5.7283    2.8138    1.1344 H   0  0  0  0  0  0  0  0  0  0  0  0
   -4.5008    1.3755   -2.7115 H   0  0  0  0  0  0  0  0  0  0  0  0
  1  2  1  0
  1  3  1  0
  3  4  1  0
  1  5  1  0
  5  6  1  0
  6  7  1  0
  7  8  1  0
  8  9  2  0
  8 10  1  0
 10 11  2  0
 11 12  1  0
 12 13  2  0
 13 14  1  0
 13 15  1  0
 15 16  1  0
 15 17  2  0
 17 18  1  0
 18 19  1  0
 19 20  2  0
 20 21  1  0
 21 22  2  0
 22 23  1  0
 22 24  1  0
 24 25  2  0
 25 26  1  0
 17 10  1  0
 25 19  1  0
  1 27  1  6
  2 28  1  0
  3 29  1  0
  3 30  1  0
  4 31  1  0
  5 32  1  0
  5 33  1  0
  7 34  1  0
 11 35  1  0
 12 36  1  0
 18 37  1  0
 20 38  1  0
 21 39  1  0
 24 40  1  0
M  END
$$$$
