@<TRIPOS>MOLECULE
*****
 57 59 0 0 0
SMALL
GASTEIGER

@<TRIPOS>ATOM
      1 C          -5.3403   -0.1445   -0.3207 C.3     1  UNL1       -0.0612
      2 C          -4.3636   -0.3000    0.7864 C.3     1  UNL1       -0.0294
      3 C          -2.9738    0.1059    0.5004 C.2     1  UNL1       -0.0322
      4 C          -1.9274   -0.7597    0.5191 C.2     1  UNL1       -0.0070
      5 C          -2.1364   -2.1617    0.8321 C.ar    1  UNL1       -0.0170
      6 C          -3.1050   -2.9089    0.1429 C.ar    1  UNL1       -0.0540
      7 C          -3.4123   -4.2324    0.3504 C.ar    1  UNL1       -0.0612
      8 C          -2.7286   -4.9198    1.3150 C.ar    1  UNL1       -0.0617
      9 C          -1.7583   -4.2655    2.0430 C.ar    1  UNL1       -0.0612
     10 C          -1.5138   -2.9426    1.7713 C.ar    1  UNL1       -0.0540
     11 C          -0.6028   -0.2690    0.1321 C.ar    1  UNL1       -0.0168
     12 C          -0.6638    0.4343   -1.0581 C.ar    1  UNL1       -0.0506
     13 C           0.4421    1.0168   -1.6567 C.ar    1  UNL1       -0.0194
     14 C           1.7016    0.9171   -1.0691 C.ar    1  UNL1        0.1206
     15 O           2.7659    1.4943   -1.6704 O.3     1  UNL1       -0.4907
     16 C           4.1013    1.5472   -1.3362 C.3     1  UNL1        0.1022
     17 C           4.8516    0.2661   -1.2632 C.3     1  UNL1        0.0325
     18 N           6.2551    0.4147   -0.8980 N.3     1  UNL1       -0.3051
     19 C           6.3834    0.8737    0.4802 C.3     1  UNL1       -0.0129
     20 C           6.7678   -0.9717   -0.8547 C.3     1  UNL1       -0.0129
     21 C           1.7344    0.2169    0.1091 C.ar    1  UNL1       -0.0194
     22 C           0.6421   -0.3607    0.7031 C.ar    1  UNL1       -0.0506
     23 C          -2.7909    1.5358    0.2597 C.ar    1  UNL1       -0.0213
     24 C          -3.4541    2.4274   -0.5474 C.ar    1  UNL1       -0.0543
     25 C          -3.1615    3.7648   -0.6255 C.ar    1  UNL1       -0.0612
     26 C          -2.1412    4.2959    0.1388 C.ar    1  UNL1       -0.0617
     27 C          -1.4405    3.4265    0.9729 C.ar    1  UNL1       -0.0612
     28 C          -1.7702    2.0691    1.0240 C.ar    1  UNL1       -0.0543
     29 H          -6.0740   -1.0095   -0.2127 H       1  UNL1        0.0233
     30 H          -4.9561   -0.2584   -1.3409 H       1  UNL1        0.0233
     31 H          -6.0142    0.7484   -0.2024 H       1  UNL1        0.0233
     32 H          -4.7041    0.4325    1.5975 H       1  UNL1        0.0311
     33 H          -4.4496   -1.2747    1.2876 H       1  UNL1        0.0311
     34 H          -3.7077   -2.4696   -0.6511 H       1  UNL1        0.0624
     35 H          -4.1488   -4.7754   -0.1827 H       1  UNL1        0.0618
     36 H          -2.9215   -5.9498    1.5246 H       1  UNL1        0.0618
     37 H          -1.2198   -4.7987    2.8001 H       1  UNL1        0.0618
     38 H          -0.7525   -2.4982    2.3878 H       1  UNL1        0.0624
     39 H          -1.5691    0.6043   -1.6626 H       1  UNL1        0.0625
     40 H           0.3923    1.5727   -2.5992 H       1  UNL1        0.0654
     41 H           4.6318    2.3015   -1.9829 H       1  UNL1        0.0709
     42 H           4.1772    2.0206   -0.3068 H       1  UNL1        0.0709
     43 H           4.8943   -0.1254   -2.3270 H       1  UNL1        0.0460
     44 H           4.4066   -0.5372   -0.6930 H       1  UNL1        0.0460
     45 H           7.3419    0.4832    0.8701 H       1  UNL1        0.0391
     46 H           6.4860    1.9843    0.5340 H       1  UNL1        0.0391
     47 H           5.5987    0.4779    1.1425 H       1  UNL1        0.0391
     48 H           7.7956   -0.9345   -0.4687 H       1  UNL1        0.0391
     49 H           6.7532   -1.4265   -1.8516 H       1  UNL1        0.0391
     50 H           6.0866   -1.5644   -0.1878 H       1  UNL1        0.0391
     51 H           2.6408    0.0754    0.6753 H       1  UNL1        0.0654
     52 H           0.6730   -0.8988    1.6287 H       1  UNL1        0.0625
     53 H          -4.2381    1.9838   -1.1347 H       1  UNL1        0.0624
     54 H          -3.7712    4.3351   -1.3095 H       1  UNL1        0.0618
     55 H          -1.9452    5.3528    0.0441 H       1  UNL1        0.0618
     56 H          -0.6691    3.9533    1.5196 H       1  UNL1        0.0618
     57 H          -1.0978    1.6251    1.7420 H       1  UNL1        0.0624
@<TRIPOS>BOND
     1     1     2    1
     2     2     3    1
     3     3     4    2
     4     4     5    1
     5     5     6   ar
     6     6     7   ar
     7     7     8   ar
     8     8     9   ar
     9     9    10   ar
    10     4    11    1
    11    11    12   ar
    12    12    13   ar
    13    13    14   ar
    14    14    15    1
    15    15    16    1
    16    16    17    1
    17    17    18    1
    18    18    19    1
    19    18    20    1
    20    14    21   ar
    21    21    22   ar
    22     3    23    1
    23    23    24   ar
    24    24    25   ar
    25    25    26   ar
    26    26    27   ar
    27    27    28   ar
    28    10     5   ar
    29    22    11   ar
    30    28    23   ar
    31     1    29    1
    32     1    30    1
    33     1    31    1
    34     2    32    1
    35     2    33    1
    36     6    34    1
    37     7    35    1
    38     8    36    1
    39     9    37    1
    40    10    38    1
    41    12    39    1
    42    13    40    1
    43    16    41    1
    44    16    42    1
    45    17    43    1
    46    17    44    1
    47    19    45    1
    48    19    46    1
    49    19    47    1
    50    20    48    1
    51    20    49    1
    52    20    50    1
    53    21    51    1
    54    22    52    1
    55    24    53    1
    56    25    54    1
    57    26    55    1
    58    27    56    1
    59    28    57    1
