@<TRIPOS>MOLECULE
*****
 66 69 0 0 0
SMALL
GASTEIGER

@<TRIPOS>ATOM
      1 CD1        -3.0316   -4.2164    0.7821 C.3     2  LEU2       -0.0626
      2 CG         -1.7798   -3.6201    0.1193 C.3     2  LEU2       -0.0446
      3 CD2        -1.9558   -3.7815   -1.3660 C.3     2  LEU2       -0.0626
      4 CB         -1.7457   -2.1681    0.5530 C.3     2  LEU2       -0.0234
      5 CA         -0.5882   -1.4294   -0.0040 C.3     2  LEU2        0.1035
      6 C           0.7091   -1.9994    0.4862 C.2     2  LEU2        0.2342
      7 O           0.7530   -2.9453    1.3421 O.2     2  LEU2       -0.2738
      8 N           1.8967   -1.4439   -0.0384 N.am    1  UNK1       -0.3022
      9 C           2.0019   -0.0506   -0.4171 C.3     1  UNK1        0.1030
     10 C           3.2114    0.5115    0.2881 C.3     1  UNK1       -0.0061
     11 C           3.4508    1.9528   -0.0076 C.3     1  UNK1       -0.0221
     12 C           4.9333    2.0643    0.0182 C.ar    1  UNK1       -0.0438
     13 C           5.8006    3.1273    0.1784 C.ar    1  UNK1       -0.0583
     14 C           7.1724    2.9757    0.1652 C.ar    1  UNK1       -0.0615
     15 C           7.7103    1.7325   -0.0123 C.ar    1  UNK1       -0.0615
     16 C           6.8778    0.6492   -0.1753 C.ar    1  UNK1       -0.0583
     17 C           5.5036    0.8195   -0.1593 C.ar    1  UNK1       -0.0438
     18 C           4.4295   -0.1657   -0.3096 C.3     1  UNK1       -0.0221
     19 C           0.7578    0.6116    0.0403 C.2     1  UNK1        0.2377
     20 O           0.8635    1.7836    0.4740 O.2     1  UNK1       -0.2735
     21 N          -0.5368   -0.0344    0.0001 N.am    2  LEU2       -0.2727
     22 C          -1.6879    0.9046   -0.0992 C.3     0  UNK0        0.1310
     23 C          -2.3632    0.6323   -1.3873 C.2     0  UNK0        0.2403
     24 O          -2.3195   -0.5018   -1.8837 O.2     0  UNK0       -0.2732
     25 N          -3.0626    1.6405   -2.0833 N.am    0  UNK0       -0.3058
     26 C          -3.1879    3.0224   -1.7069 C.3     0  UNK0        0.0029
     27 C          -3.7463    1.2630   -3.3304 C.3     0  UNK0        0.0029
     28 C          -2.5224    0.7883    1.1005 C.ar    0  UNK0        0.0172
     29 C          -3.8733    1.0457    1.0806 C.ar    0  UNK0       -0.0509
     30 C          -4.6733    0.8930    2.2198 C.ar    0  UNK0       -0.0259
     31 C          -4.0930    0.4727    3.3943 C.ar    0  UNK0        0.1261
     32 F          -4.8560    0.3206    4.5038 F       0  UNK0       -0.2054
     33 C          -2.7391    0.2134    3.4180 C.ar    0  UNK0        0.0091
     34 C          -1.9879    0.3759    2.2788 C.ar    0  UNK0        0.1315
     35 F          -0.6740    0.1219    2.3927 F       0  UNK0       -0.2050
     36 HD11       -2.9341   -5.3128    0.8825 H       2  LEU2        0.0232
     37 HD12       -3.8835   -4.0486    0.0758 H       2  LEU2        0.0232
     38 HD13       -3.2743   -3.7019    1.7221 H       2  LEU2        0.0232
     39 HG         -0.9465   -4.2085    0.5242 H       2  LEU2        0.0296
     40 HD21       -2.7835   -3.2040   -1.7745 H       2  LEU2        0.0232
     41 HD22       -2.1698   -4.8489   -1.6203 H       2  LEU2        0.0232
     42 HD23       -1.0089   -3.5492   -1.9204 H       2  LEU2        0.0232
     43 HB1        -2.7041   -1.7190    0.4125 H       2  LEU2        0.0290
     44 HB2        -1.6475   -2.2844    1.6970 H       2  LEU2        0.0290
     45 HA         -0.5568   -1.7305   -1.1210 H       2  LEU2        0.0597
     46 H           2.7423   -2.0901   -0.1456 H       1  UNK1        0.1495
     47 H           2.1183    0.0950   -1.4983 H       1  UNK1        0.0597
     48 H           3.1862    0.3336    1.3663 H       1  UNK1        0.0330
     49 H           3.0097    2.3006   -0.9509 H       1  UNK1        0.0317
     50 H           3.0810    2.5448    0.8768 H       1  UNK1        0.0317
     51 H           5.4129    4.1136    0.3195 H       1  UNK1        0.0620
     52 H           7.8351    3.8324    0.2941 H       1  UNK1        0.0618
     53 H           8.7852    1.6058   -0.0239 H       1  UNK1        0.0618
     54 H           7.3232   -0.3310   -0.3151 H       1  UNK1        0.0620
     55 H           4.2034   -0.3299   -1.3870 H       1  UNK1        0.0317
     56 H           4.6521   -1.1336    0.2032 H       1  UNK1        0.0317
     57 H          -1.3286    1.9476   -0.1311 H       0  UNK0        0.0649
     58 H          -3.0848    3.6327   -2.6506 H       0  UNK0        0.0428
     59 H          -4.2139    3.2490   -1.3102 H       0  UNK0        0.0428
     60 H          -2.4362    3.4011   -1.0190 H       0  UNK0        0.0428
     61 H          -4.0849    0.2151   -3.3002 H       0  UNK0        0.0428
     62 H          -4.5950    1.9381   -3.5460 H       0  UNK0        0.0428
     63 H          -2.9944    1.3620   -4.1592 H       0  UNK0        0.0428
     64 H          -4.3374    1.3603    0.1632 H       0  UNK0        0.0623
     65 H          -5.7309    1.1175    2.1201 H       0  UNK0        0.0646
     66 H          -2.2813   -0.1228    4.3608 H       0  UNK0        0.0675
@<TRIPOS>BOND
     1     1     2    1
     2     2     3    1
     3     2     4    1
     4     4     5    1
     5     5     6    1
     6     6     7    2
     7     6     8   am
     8     8     9    1
     9     9    10    1
    10    10    11    1
    11    11    12    1
    12    12    13   ar
    13    13    14   ar
    14    14    15   ar
    15    15    16   ar
    16    16    17   ar
    17    17    18    1
    18     9    19    1
    19    19    20    2
    20    19    21   am
    21    21    22    1
    22    22    23    1
    23    23    24    2
    24    23    25   am
    25    25    26    1
    26    25    27    1
    27    22    28    1
    28    28    29   ar
    29    29    30   ar
    30    30    31   ar
    31    31    32    1
    32    31    33   ar
    33    33    34   ar
    34    34    35    1
    35    21     5    1
    36    34    28   ar
    37    18    10    1
    38    17    12   ar
    39     1    36    1
    40     1    37    1
    41     1    38    1
    42     2    39    1
    43     3    40    1
    44     3    41    1
    45     3    42    1
    46     4    43    1
    47     4    44    1
    48     5    45    1
    49     8    46    1
    50     9    47    1
    51    10    48    1
    52    11    49    1
    53    11    50    1
    54    13    51    1
    55    14    52    1
    56    15    53    1
    57    16    54    1
    58    18    55    1
    59    18    56    1
    60    22    57    1
    61    26    58    1
    62    26    59    1
    63    26    60    1
    64    27    61    1
    65    27    62    1
    66    27    63    1
    67    29    64    1
    68    30    65    1
    69    33    66    1
