@<TRIPOS>MOLECULE
*****
 55 59 0 0 0
SMALL
GASTEIGER

@<TRIPOS>ATOM
      1 C          -3.4183   -1.6971    2.3339 C.3     1  UNL1       -0.0448
      2 C          -2.1218   -1.1925    1.7929 C.3     1  UNL1        0.0406
      3 C          -1.1043   -0.8760    2.8743 C.3     1  UNL1        0.0601
      4 N           0.1090   -0.4131    2.2630 N.ar    1  UNL1       -0.2647
      5 N           1.4020   -0.5856    2.5721 N.ar    1  UNL1       -0.1790
      6 C           2.1718    0.0657    1.6700 C.ar    1  UNL1        0.0531
      7 C           1.3425    0.6743    0.7547 C.ar    1  UNL1       -0.0020
      8 C           1.7781    1.4941   -0.4052 C.3     1  UNL1       -0.0102
      9 C           1.9612    0.6336   -1.5972 C.3     1  UNL1       -0.0316
     10 C           3.3442    0.1945   -1.8919 C.3     1  UNL1        0.0207
     11 N           4.2523    0.5476   -0.8553 N.3     1  UNL1       -0.1813
     12 S           5.8370   -0.0573   -1.0786 S.O2    1  UNL1        0.0290
     13 C           5.7592   -1.8311   -1.0996 C.3     1  UNL1        0.0707
     14 O           6.7728    0.4314   -0.0333 O.2     1  UNL1       -0.1583
     15 O           6.3528    0.4658   -2.4095 O.2     1  UNL1       -0.1583
     16 C           4.2175    1.9930   -0.7299 C.3     1  UNL1        0.0207
     17 C           2.9460    2.3156    0.0053 C.3     1  UNL1       -0.0316
     18 C           0.0606    0.3458    1.1677 C.ar    1  UNL1        0.0599
     19 C          -1.2081    0.7716    0.4941 C.3     1  UNL1        0.0547
     20 N          -2.3211   -0.0446    0.9528 N.pl3   1  UNL1       -0.3189
     21 C          -3.6261    0.3115    0.5454 C.ar    1  UNL1        0.0440
     22 C          -4.5250    0.8379    1.4785 C.ar    1  UNL1       -0.0030
     23 C          -5.7681    1.1937    1.0614 C.ar    1  UNL1        0.1333
     24 CL         -6.9086    1.8549    2.2145 Cl      1  UNL1       -0.0619
     25 N          -6.1469    1.0516   -0.2153 N.ar    1  UNL1       -0.2177
     26 C          -5.3045    0.5486   -1.1338 C.ar    1  UNL1        0.1416
     27 N          -5.5198    0.3381   -2.4379 N.ar    1  UNL1       -0.3457
     28 C          -4.3878   -0.1771   -2.9215 C.ar    1  UNL1        0.0042
     29 C          -3.4414   -0.2964   -1.9170 C.ar    1  UNL1       -0.0333
     30 C          -4.0279    0.1691   -0.7693 C.ar    1  UNL1        0.0398
     31 H          -3.7166   -1.2437    3.3039 H       1  UNL1        0.0248
     32 H          -3.2869   -2.7997    2.5177 H       1  UNL1        0.0248
     33 H          -4.2037   -1.5868    1.5566 H       1  UNL1        0.0248
     34 H          -1.6854   -1.9998    1.1608 H       1  UNL1        0.0515
     35 H          -0.9550   -1.8260    3.4437 H       1  UNL1        0.0527
     36 H          -1.4998   -0.0705    3.5456 H       1  UNL1        0.0527
     37 H           3.2515    0.0697    1.7150 H       1  UNL1        0.0851
     38 H           0.9236    2.2072   -0.6020 H       1  UNL1        0.0351
     39 H           1.5528    1.1533   -2.4922 H       1  UNL1        0.0284
     40 H           1.3247   -0.2932   -1.4953 H       1  UNL1        0.0284
     41 H           3.7138    0.6311   -2.8624 H       1  UNL1        0.0444
     42 H           3.4183   -0.9212   -2.0467 H       1  UNL1        0.0444
     43 H           4.7166   -2.2070   -1.1402 H       1  UNL1        0.0479
     44 H           6.1984   -2.2409   -0.1662 H       1  UNL1        0.0479
     45 H           6.2719   -2.2322   -1.9975 H       1  UNL1        0.0479
     46 H           5.0777    2.3651   -0.1455 H       1  UNL1        0.0444
     47 H           4.2360    2.4944   -1.7223 H       1  UNL1        0.0444
     48 H           2.7651    3.4142   -0.1187 H       1  UNL1        0.0284
     49 H           3.1834    2.1971    1.1026 H       1  UNL1        0.0284
     50 H          -1.1409    0.7454   -0.6035 H       1  UNL1        0.0528
     51 H          -1.3648    1.8488    0.7673 H       1  UNL1        0.0528
     52 H          -4.1970    0.9500    2.5174 H       1  UNL1        0.0666
     53 H          -6.4067    0.5362   -2.9893 H       1  UNL1        0.1668
     54 H          -4.2231   -0.4629   -3.9456 H       1  UNL1        0.0807
     55 H          -2.4313   -0.6799   -1.9881 H       1  UNL1        0.0640
@<TRIPOS>BOND
     1     1     2    1
     2     2     3    1
     3     3     4    1
     4     4     5   ar
     5     5     6   ar
     6     6     7   ar
     7     7     8    1
     8     8     9    1
     9     9    10    1
    10    10    11    1
    11    11    12    1
    12    12    13    1
    13    12    14    2
    14    12    15    2
    15    11    16    1
    16    16    17    1
    17     7    18   ar
    18    18    19    1
    19    19    20    1
    20    20    21    1
    21    21    22   ar
    22    22    23   ar
    23    23    24    1
    24    23    25   ar
    25    25    26   ar
    26    26    27   ar
    27    27    28   ar
    28    28    29   ar
    29    29    30   ar
    30    20     2    1
    31    30    21   ar
    32    18     4   ar
    33    30    26   ar
    34    17     8    1
    35     1    31    1
    36     1    32    1
    37     1    33    1
    38     2    34    1
    39     3    35    1
    40     3    36    1
    41     6    37    1
    42     8    38    1
    43     9    39    1
    44     9    40    1
    45    10    41    1
    46    10    42    1
    47    13    43    1
    48    13    44    1
    49    13    45    1
    50    16    46    1
    51    16    47    1
    52    17    48    1
    53    17    49    1
    54    19    50    1
    55    19    51    1
    56    22    52    1
    57    27    53    1
    58    28    54    1
    59    29    55    1
