@<TRIPOS>MOLECULE
*****
 46 49 0 0 0
SMALL
GASTEIGER

@<TRIPOS>ATOM
      1 C           4.0809    1.0794   -1.7325 C.3     1  UNL1        0.0814
      2 O           4.2757    1.9569   -0.6586 O.3     1  UNL1       -0.3894
      3 C           5.4600    0.5301   -2.0577 C.3     1  UNL1        0.0702
      4 O           6.2616    1.6269   -2.3954 O.3     1  UNL1       -0.3925
      5 C           3.2116   -0.0761   -1.2792 C.3     1  UNL1        0.0122
      6 C           1.8666    0.3980   -0.7977 C.3     1  UNL1        0.1203
      7 O           1.0414   -0.6579   -0.3714 O.2     1  UNL1       -0.3932
      8 N          -0.2025   -0.3712    0.0906 N.2     1  UNL1       -0.0826
      9 C          -1.0412   -1.0226    0.6978 C.2     1  UNL1        0.1333
     10 C          -2.3544   -0.7698    1.2030 C.2     1  UNL1        0.0738
     11 N          -2.7422   -1.9910    1.8058 N.pl3   1  UNL1       -0.3116
     12 C          -1.7497   -3.0060    1.7123 C.ar    1  UNL1        0.0408
     13 C          -1.7652   -4.3034    2.1734 C.ar    1  UNL1       -0.0399
     14 C          -0.6291   -5.0348    1.9158 C.ar    1  UNL1       -0.0600
     15 C           0.4679   -4.5426    1.2475 C.ar    1  UNL1       -0.0610
     16 C           0.3939   -3.2379    0.8244 C.ar    1  UNL1       -0.0506
     17 C          -0.6985   -2.3892    1.0212 C.ar    1  UNL1        0.0265
     18 C          -3.0699    0.3069    1.1497 C.2     1  UNL1        0.0692
     19 C          -4.3940    0.4807    1.6875 C.2     1  UNL1        0.2508
     20 O          -5.1039   -0.3331    2.2932 O.2     1  UNL1       -0.2698
     21 N          -4.8225    1.8089    1.4163 N.am    1  UNL1       -0.2809
     22 C          -3.7175    2.4076    0.7072 C.ar    1  UNL1        0.0416
     23 C          -2.6748    1.5361    0.5408 C.ar    1  UNL1        0.0102
     24 C          -1.6320    2.0650   -0.1157 C.ar    1  UNL1       -0.0520
     25 C          -1.5587    3.3482   -0.5979 C.ar    1  UNL1       -0.0611
     26 C          -2.6351    4.2137   -0.4142 C.ar    1  UNL1       -0.0600
     27 C          -3.7368    3.7308    0.2528 C.ar    1  UNL1       -0.0399
     28 H           3.7142    1.5869   -2.6232 H       1  UNL1        0.0617
     29 H           4.2754    1.4493    0.1737 H       1  UNL1        0.2099
     30 H           5.4501   -0.1485   -2.9251 H       1  UNL1        0.0583
     31 H           5.9199    0.0315   -1.1905 H       1  UNL1        0.0583
     32 H           6.4411    2.2239   -1.6271 H       1  UNL1        0.2095
     33 H           3.1162   -0.8185   -2.0872 H       1  UNL1        0.0325
     34 H           3.7829   -0.5856   -0.4589 H       1  UNL1        0.0325
     35 H           2.0718    1.1424    0.0234 H       1  UNL1        0.0724
     36 H           1.4092    0.9992   -1.6051 H       1  UNL1        0.0724
     37 H          -3.6619   -2.1296    2.2701 H       1  UNL1        0.1522
     38 H          -2.6193   -4.6986    2.6979 H       1  UNL1        0.0636
     39 H          -0.6057   -6.0562    2.2627 H       1  UNL1        0.0618
     40 H           1.3390   -5.1463    1.0650 H       1  UNL1        0.0618
     41 H           1.2578   -2.8667    0.3039 H       1  UNL1        0.0625
     42 H          -5.7448    2.2209    1.6891 H       1  UNL1        0.1552
     43 H          -0.7408    1.5855   -0.3508 H       1  UNL1        0.0624
     44 H          -0.7317    3.8241   -1.1384 H       1  UNL1        0.0618
     45 H          -2.6396    5.2304   -0.7680 H       1  UNL1        0.0618
     46 H          -4.5655    4.4024    0.3925 H       1  UNL1        0.0636
@<TRIPOS>BOND
     1     1     2    1
     2     1     3    1
     3     3     4    1
     4     1     5    1
     5     5     6    1
     6     6     7    1
     7     7     8    1
     8     8     9    2
     9     9    10    1
    10    10    11    1
    11    11    12    1
    12    12    13   ar
    13    13    14   ar
    14    14    15   ar
    15    15    16   ar
    16    16    17   ar
    17    10    18    2
    18    18    19    1
    19    19    20    2
    20    19    21   am
    21    21    22    1
    22    22    23   ar
    23    23    24   ar
    24    24    25   ar
    25    25    26   ar
    26    26    27   ar
    27    17     9    1
    28    23    18    1
    29    17    12   ar
    30    27    22   ar
    31     1    28    1
    32     2    29    1
    33     3    30    1
    34     3    31    1
    35     4    32    1
    36     5    33    1
    37     5    34    1
    38     6    35    1
    39     6    36    1
    40    11    37    1
    41    13    38    1
    42    14    39    1
    43    15    40    1
    44    16    41    1
    45    21    42    1
    46    24    43    1
    47    25    44    1
    48    26    45    1
    49    27    46    1
