
     RDKit          3D

 46 49  0  0  0  0  0  0  0  0999 V2000
    4.0809    1.0794   -1.7325 C   0  0  1  0  0  0  0  0  0  0  0  0
    4.2757    1.9569   -0.6586 O   0  0  0  0  0  0  0  0  0  0  0  0
    5.4600    0.5301   -2.0577 C   0  0  0  0  0  0  0  0  0  0  0  0
    6.2616    1.6269   -2.3954 O   0  0  0  0  0  0  0  0  0  0  0  0
    3.2116   -0.0761   -1.2792 C   0  0  0  0  0  0  0  0  0  0  0  0
    1.8666    0.3980   -0.7977 C   0  0  0  0  0  0  0  0  0  0  0  0
    1.0414   -0.6579   -0.3714 O   0  0  0  0  0  0  0  0  0  0  0  0
   -0.2025   -0.3712    0.0906 N   0  0  0  0  0  0  0  0  0  0  0  0
   -1.0412   -1.0226    0.6978 C   0  0  0  0  0  0  0  0  0  0  0  0
   -2.3544   -0.7698    1.2030 C   0  0  0  0  0  0  0  0  0  0  0  0
   -2.7422   -1.9910    1.8058 N   0  0  0  0  0  0  0  0  0  0  0  0
   -1.7497   -3.0060    1.7123 C   0  0  0  0  0  0  0  0  0  0  0  0
   -1.7652   -4.3034    2.1734 C   0  0  0  0  0  0  0  0  0  0  0  0
   -0.6291   -5.0348    1.9158 C   0  0  0  0  0  0  0  0  0  0  0  0
    0.4679   -4.5426    1.2475 C   0  0  0  0  0  0  0  0  0  0  0  0
    0.3939   -3.2379    0.8244 C   0  0  0  0  0  0  0  0  0  0  0  0
   -0.6985   -2.3892    1.0212 C   0  0  0  0  0  0  0  0  0  0  0  0
   -3.0699    0.3069    1.1497 C   0  0  0  0  0  0  0  0  0  0  0  0
   -4.3940    0.4807    1.6875 C   0  0  0  0  0  0  0  0  0  0  0  0
   -5.1039   -0.3331    2.2932 O   0  0  0  0  0  0  0  0  0  0  0  0
   -4.8225    1.8089    1.4163 N   0  0  0  0  0  0  0  0  0  0  0  0
   -3.7175    2.4076    0.7072 C   0  0  0  0  0  0  0  0  0  0  0  0
   -2.6748    1.5361    0.5408 C   0  0  0  0  0  0  0  0  0  0  0  0
   -1.6320    2.0650   -0.1157 C   0  0  0  0  0  0  0  0  0  0  0  0
   -1.5587    3.3482   -0.5979 C   0  0  0  0  0  0  0  0  0  0  0  0
   -2.6351    4.2137   -0.4142 C   0  0  0  0  0  0  0  0  0  0  0  0
   -3.7368    3.7308    0.2528 C   0  0  0  0  0  0  0  0  0  0  0  0
    3.7142    1.5869   -2.6232 H   0  0  0  0  0  0  0  0  0  0  0  0
    4.2754    1.4493    0.1737 H   0  0  0  0  0  0  0  0  0  0  0  0
    5.4501   -0.1485   -2.9251 H   0  0  0  0  0  0  0  0  0  0  0  0
    5.9199    0.0315   -1.1905 H   0  0  0  0  0  0  0  0  0  0  0  0
    6.4411    2.2239   -1.6271 H   0  0  0  0  0  0  0  0  0  0  0  0
    3.1162   -0.8185   -2.0872 H   0  0  0  0  0  0  0  0  0  0  0  0
    3.7829   -0.5856   -0.4589 H   0  0  0  0  0  0  0  0  0  0  0  0
    2.0718    1.1424    0.0234 H   0  0  0  0  0  0  0  0  0  0  0  0
    1.4092    0.9992   -1.6051 H   0  0  0  0  0  0  0  0  0  0  0  0
   -3.6619   -2.1296    2.2701 H   0  0  0  0  0  0  0  0  0  0  0  0
   -2.6193   -4.6986    2.6979 H   0  0  0  0  0  0  0  0  0  0  0  0
   -0.6057   -6.0562    2.2627 H   0  0  0  0  0  0  0  0  0  0  0  0
    1.3390   -5.1463    1.0650 H   0  0  0  0  0  0  0  0  0  0  0  0
    1.2578   -2.8667    0.3039 H   0  0  0  0  0  0  0  0  0  0  0  0
   -5.7448    2.2209    1.6891 H   0  0  0  0  0  0  0  0  0  0  0  0
   -0.7408    1.5855   -0.3508 H   0  0  0  0  0  0  0  0  0  0  0  0
   -0.7317    3.8241   -1.1384 H   0  0  0  0  0  0  0  0  0  0  0  0
   -2.6396    5.2304   -0.7680 H   0  0  0  0  0  0  0  0  0  0  0  0
   -4.5655    4.4024    0.3925 H   0  0  0  0  0  0  0  0  0  0  0  0
  1  2  1  0
  1  3  1  0
  3  4  1  0
  1  5  1  0
  5  6  1  0
  6  7  1  0
  7  8  1  0
  8  9  2  0
  9 10  1  0
 10 11  1  0
 11 12  1  0
 12 13  2  0
 13 14  1  0
 14 15  2  0
 15 16  1  0
 16 17  2  0
 10 18  2  0
 18 19  1  0
 19 20  2  0
 19 21  1  0
 21 22  1  0
 22 23  2  0
 23 24  1  0
 24 25  2  0
 25 26  1  0
 26 27  2  0
 17  9  1  0
 23 18  1  0
 17 12  1  0
 27 22  1  0
  1 28  1  6
  2 29  1  0
  3 30  1  0
  3 31  1  0
  4 32  1  0
  5 33  1  0
  5 34  1  0
  6 35  1  0
  6 36  1  0
 11 37  1  0
 13 38  1  0
 14 39  1  0
 15 40  1  0
 16 41  1  0
 21 42  1  0
 24 43  1  0
 25 44  1  0
 26 45  1  0
 27 46  1  0
M  END
$$$$
