@<TRIPOS>MOLECULE
*****
 65 68 0 0 0
SMALL
GASTEIGER

@<TRIPOS>ATOM
      1 C          11.3608   -1.1403    1.1477 C.3     1  UNL1       -0.0244
      2 C          10.0120   -0.5213    1.0416 C.ar    1  UNL1        0.0140
      3 C           8.8507   -1.1031    0.5793 C.ar    1  UNL1       -0.0308
      4 C           7.7906   -0.1894    0.6380 C.ar    1  UNL1        0.0387
      5 C           6.4617   -0.2567    0.3081 C.ar    1  UNL1        0.1746
      6 F           5.9449   -1.3946   -0.1900 F       1  UNL1       -0.2009
      7 C           5.6523    0.8332    0.4834 C.ar    1  UNL1        0.1662
      8 O           4.2962    0.8263    0.1673 O.3     1  UNL1       -0.4332
      9 C           3.4906   -0.0868    0.8221 C.ar    1  UNL1        0.2483
     10 N           3.9720   -0.9327    1.7214 N.ar    1  UNL1       -0.1975
     11 C           3.1322   -1.7859    2.3125 C.ar    1  UNL1        0.1405
     12 N           1.8394   -1.7898    2.0079 N.ar    1  UNL1       -0.1546
     13 N           1.3266   -0.9429    1.1002 N.ar    1  UNL1       -0.2294
     14 C           0.0842   -0.7614    0.6355 C.ar    1  UNL1        0.0719
     15 C           0.0924    0.2463   -0.2972 C.ar    1  UNL1        0.1438
     16 O          -1.0392    0.6818   -0.9713 O.3     1  UNL1       -0.4865
     17 C          -2.3186    0.1324   -0.7667 C.3     1  UNL1        0.1262
     18 C          -3.3763    0.7727   -1.6135 C.3     1  UNL1        0.1341
     19 C          -3.1257    0.6061   -3.0935 C.3     1  UNL1       -0.0244
     20 O          -4.6112    0.1483   -1.3301 O.3     1  UNL1       -0.4571
     21 C          -5.6769    0.9101   -0.8770 C.2     1  UNL1        0.3245
     22 O          -5.4754    2.1647   -0.7381 O.2     1  UNL1       -0.2491
     23 C          -7.0072    0.3042   -0.5612 C.3     1  UNL1        0.1037
     24 N          -7.8772    1.3563   -0.1232 N.3     1  UNL1       -0.3184
     25 C          -6.7748   -0.7455    0.5001 C.3     1  UNL1       -0.0250
     26 C          -8.0566   -1.4336    0.9049 C.3     1  UNL1       -0.0448
     27 C          -9.0623   -0.4490    1.4646 C.3     1  UNL1       -0.0626
     28 C          -8.6368   -2.1229   -0.2974 C.3     1  UNL1       -0.0626
     29 C           1.3864    0.6850   -0.3955 C.ar    1  UNL1        0.0233
     30 C           1.8801    1.7646   -1.2793 C.3     1  UNL1       -0.0340
     31 C           2.1334   -0.0671    0.4802 C.ar    1  UNL1        0.1336
     32 C           6.2047    1.9868    0.9951 C.ar    1  UNL1       -0.0144
     33 C           7.5415    2.0513    1.3259 C.ar    1  UNL1       -0.0341
     34 C           8.3752    0.9607    1.1561 C.ar    1  UNL1        0.0497
     35 N           9.6865    0.7371    1.3851 N.ar    1  UNL1       -0.3581
     36 H          11.3451   -2.0173    1.8516 H       1  UNL1        0.0292
     37 H          11.6124   -1.5254    0.1399 H       1  UNL1        0.0292
     38 H          12.0688   -0.4093    1.5338 H       1  UNL1        0.0292
     39 H           8.7621   -2.1136    0.2224 H       1  UNL1        0.0642
     40 H           3.5497   -2.4689    3.0455 H       1  UNL1        0.1066
     41 H          -0.7604   -1.3628    0.9918 H       1  UNL1        0.0868
     42 H          -2.6596    0.1928    0.2882 H       1  UNL1        0.0734
     43 H          -2.2421   -0.9521   -1.0039 H       1  UNL1        0.0734
     44 H          -3.4608    1.8443   -1.4151 H       1  UNL1        0.0765
     45 H          -4.0863    0.4685   -3.6363 H       1  UNL1        0.0266
     46 H          -2.5310   -0.3213   -3.3058 H       1  UNL1        0.0266
     47 H          -2.6472    1.5047   -3.5355 H       1  UNL1        0.0266
     48 H          -7.3781   -0.1352   -1.5112 H       1  UNL1        0.0574
     49 H          -8.1145    1.9313   -0.9730 H       1  UNL1        0.1190
     50 H          -7.3688    2.0138    0.5144 H       1  UNL1        0.1190
     51 H          -6.2590   -0.2655    1.3503 H       1  UNL1        0.0288
     52 H          -6.1146   -1.5111    0.0574 H       1  UNL1        0.0288
     53 H          -7.8005   -2.1639    1.6985 H       1  UNL1        0.0296
     54 H          -9.7135   -1.0068    2.1695 H       1  UNL1        0.0232
     55 H          -8.5591    0.3459    2.0396 H       1  UNL1        0.0232
     56 H          -9.7222   -0.0501    0.6674 H       1  UNL1        0.0232
     57 H          -7.9088   -2.8408   -0.7192 H       1  UNL1        0.0232
     58 H          -9.5325   -2.6943    0.0168 H       1  UNL1        0.0232
     59 H          -8.9304   -1.3872   -1.0549 H       1  UNL1        0.0232
     60 H           2.4138    1.3585   -2.1655 H       1  UNL1        0.0279
     61 H           2.6168    2.3737   -0.7125 H       1  UNL1        0.0279
     62 H           1.0627    2.4636   -1.5590 H       1  UNL1        0.0279
     63 H           5.5823    2.8640    1.1429 H       1  UNL1        0.0656
     64 H           7.9601    2.9667    1.7274 H       1  UNL1        0.0639
     65 H          10.3391    1.4527    1.7742 H       1  UNL1        0.1656
@<TRIPOS>BOND
     1     1     2    1
     2     2     3   ar
     3     3     4   ar
     4     4     5   ar
     5     5     6    1
     6     5     7   ar
     7     7     8    1
     8     8     9    1
     9     9    10   ar
    10    10    11   ar
    11    11    12   ar
    12    12    13   ar
    13    13    14   ar
    14    14    15   ar
    15    15    16    1
    16    16    17    1
    17    17    18    1
    18    18    19    1
    19    18    20    1
    20    20    21    1
    21    21    22    2
    22    21    23    1
    23    23    24    1
    24    23    25    1
    25    25    26    1
    26    26    27    1
    27    26    28    1
    28    15    29   ar
    29    29    30    1
    30    29    31   ar
    31     7    32   ar
    32    32    33   ar
    33    33    34   ar
    34    34    35   ar
    35    35     2   ar
    36    34     4   ar
    37    31     9   ar
    38    31    13   ar
    39     1    36    1
    40     1    37    1
    41     1    38    1
    42     3    39    1
    43    11    40    1
    44    14    41    1
    45    17    42    1
    46    17    43    1
    47    18    44    1
    48    19    45    1
    49    19    46    1
    50    19    47    1
    51    23    48    1
    52    24    49    1
    53    24    50    1
    54    25    51    1
    55    25    52    1
    56    26    53    1
    57    27    54    1
    58    27    55    1
    59    27    56    1
    60    28    57    1
    61    28    58    1
    62    28    59    1
    63    30    60    1
    64    30    61    1
    65    30    62    1
    66    32    63    1
    67    33    64    1
    68    35    65    1
