
     RDKit          3D

 38 40  0  0  0  0  0  0  0  0999 V2000
    1.6445   -0.8994    0.3242 C   0  0  1  0  0  0  0  0  0  0  0  0
    2.8656   -0.0691    0.1103 C   0  0  0  0  0  0  0  0  0  0  0  0
    2.8183    0.7182   -1.0233 O   0  0  0  0  0  0  0  0  0  0  0  0
    4.2791    1.5821   -1.0986 P   0  0  0  0  0  0  0  0  0  0  0  0
    5.5491    0.5099   -0.7556 O   0  0  0  0  0  0  0  0  0  0  0  0
    4.2918    2.7821    0.0894 O   0  0  0  0  0  0  0  0  0  0  0  0
    4.5146    2.1765   -2.4719 O   0  0  0  0  0  0  0  0  0  0  0  0
    0.4788   -0.1745    0.4600 O   0  0  0  0  0  0  0  0  0  0  0  0
   -0.5253   -1.1351    0.4183 C   0  0  1  0  0  0  0  0  0  0  0  0
   -1.7707   -0.6049   -0.0975 N   0  0  0  0  0  0  0  0  0  0  0  0
   -2.5427   -0.8690   -1.1680 C   0  0  0  0  0  0  0  0  0  0  0  0
   -3.6211   -0.0644   -1.1771 N   0  0  0  0  0  4  0  0  0  0  0  0
   -3.5233    0.7158   -0.0957 C   0  0  0  0  0  0  0  0  0  0  0  0
   -2.3720    0.3914    0.5911 C   0  0  0  0  0  0  0  0  0  0  0  0
   -2.1633    1.1226    1.7163 N   0  0  0  0  0  0  0  0  0  0  0  0
   -3.0251    2.0794    2.1065 C   0  0  0  0  0  0  0  0  0  0  0  0
   -2.7979    2.8139    3.2535 O   0  0  0  0  0  0  0  0  0  0  0  0
   -4.1402    2.3806    1.4249 N   0  0  0  0  0  0  0  0  0  0  0  0
   -4.4108    1.6977    0.3020 C   0  0  0  0  0  0  0  0  0  0  0  0
   -5.5594    1.9905   -0.4224 O   0  0  0  0  0  0  0  0  0  0  0  0
   -0.0224   -2.3239   -0.3458 C   0  0  2  0  0  0  0  0  0  0  0  0
    0.3305   -3.3353    0.5666 O   0  0  0  0  0  0  0  0  0  0  0  0
    1.3123   -1.7727   -0.8681 C   0  0  2  0  0  0  0  0  0  0  0  0
    2.2295   -2.7756   -1.0504 O   0  0  0  0  0  0  0  0  0  0  0  0
    1.7815   -1.5281    1.2056 H   0  0  0  0  0  0  0  0  0  0  0  0
    3.0339    0.5558    1.0026 H   0  0  0  0  0  0  0  0  0  0  0  0
    3.7204   -0.7629   -0.0302 H   0  0  0  0  0  0  0  0  0  0  0  0
    5.5049    0.2301    0.1951 H   0  0  0  0  0  0  0  0  0  0  0  0
    3.8821    2.4099    0.9154 H   0  0  0  0  0  0  0  0  0  0  0  0
   -0.7036   -1.4177    1.4864 H   0  0  0  0  0  0  0  0  0  0  0  0
   -2.2515   -1.6405   -1.8676 H   0  0  0  0  0  0  0  0  0  0  0  0
   -4.3196   -0.1521   -1.9541 H   0  0  0  0  0  0  0  0  0  0  0  0
   -2.6106    3.8011    3.2771 H   0  0  0  0  0  0  0  0  0  0  0  0
   -5.3928    2.4832   -1.3022 H   0  0  0  0  0  0  0  0  0  0  0  0
   -0.6698   -2.6992   -1.1335 H   0  0  0  0  0  0  0  0  0  0  0  0
    1.2903   -3.4862    0.6418 H   0  0  0  0  0  0  0  0  0  0  0  0
    1.1047   -1.1575   -1.7649 H   0  0  0  0  0  0  0  0  0  0  0  0
    1.7904   -3.5728   -1.4605 H   0  0  0  0  0  0  0  0  0  0  0  0
  1  2  1  0
  2  3  1  0
  3  4  1  0
  4  5  1  0
  4  6  1  0
  4  7  2  0
  1  8  1  0
  8  9  1  0
  9 10  1  0
 10 11  1  0
 11 12  2  0
 12 13  1  0
 13 14  2  0
 14 15  1  0
 15 16  2  0
 16 17  1  0
 16 18  1  0
 18 19  2  0
 19 20  1  0
  9 21  1  0
 21 22  1  0
 21 23  1  0
 23 24  1  0
 23  1  1  0
 14 10  1  0
 19 13  1  0
  1 25  1  1
  2 26  1  0
  2 27  1  0
  5 28  1  0
  6 29  1  0
  9 30  1  1
 11 31  1  0
 12 32  1  0
 17 33  1  0
 20 34  1  0
 21 35  1  6
 22 36  1  0
 23 37  1  6
 24 38  1  0
M  CHG  1  12   1
M  END
$$$$
