@<TRIPOS>MOLECULE
*****
 52 54 0 0 0
SMALL
GASTEIGER

@<TRIPOS>ATOM
      1 N           3.8191    0.2267   -5.9623 N.1     1  UNL1       -0.1908
      2 C           3.8190    0.9185   -4.9617 C.1     1  UNL1        0.0999
      3 C           3.8385    1.7041   -3.7999 C.ar    1  UNL1        0.0639
      4 C           4.8693    2.5387   -3.4400 C.ar    1  UNL1       -0.0436
      5 C           4.8556    3.3230   -2.3057 C.ar    1  UNL1       -0.0605
      6 C           3.7245    3.2445   -1.5011 C.ar    1  UNL1       -0.0610
      7 C           2.7107    2.4202   -1.8587 C.ar    1  UNL1       -0.0484
      8 C           2.7181    1.6454   -2.9746 C.ar    1  UNL1        0.0542
      9 C           1.6226    0.7541   -3.2882 C.2     1  UNL1        0.2479
     10 O           0.7463    1.1388   -4.1463 O.2     1  UNL1       -0.2699
     11 N           1.4331   -0.5063   -2.7320 N.am    1  UNL1       -0.2975
     12 C           0.3418   -1.3707   -3.1244 C.3     1  UNL1        0.0155
     13 C          -0.6036   -1.4753   -1.8943 C.3     1  UNL1       -0.0302
     14 C          -0.0248   -0.5927   -0.8086 C.3     1  UNL1       -0.0125
     15 C          -0.8231   -0.5661    0.3761 C.ar    1  UNL1       -0.0325
     16 C          -0.7597   -1.6058    1.3326 C.ar    1  UNL1       -0.0570
     17 C          -1.5246   -1.5363    2.4656 C.ar    1  UNL1       -0.0479
     18 C          -2.3634   -0.4984    2.7277 C.ar    1  UNL1        0.0536
     19 C          -3.2182   -0.3834    3.9226 C.2     1  UNL1        0.3066
     20 O          -3.8227    0.6981    4.1378 O.2     1  UNL1       -0.2516
     21 N          -3.3737   -1.4576    4.8259 N.am    1  UNL1       -0.1709
     22 C          -4.1611   -1.4406    5.9894 C.2     1  UNL1        0.3751
     23 N          -4.8726   -0.3708    6.3498 N.pl3   1  UNL1       -0.1313
     24 N          -4.2559   -2.5583    6.8773 N.pl3   1  UNL1       -0.2906
     25 C          -2.4095    0.5178    1.7659 C.ar    1  UNL1       -0.0363
     26 C          -1.6641    0.5028    0.6114 C.ar    1  UNL1        0.0590
     27 C          -1.8230    1.6026   -0.3131 C.3     1  UNL1        0.4177
     28 F          -2.3127    1.1065   -1.5218 F       1  UNL1       -0.1659
     29 F          -2.8628    2.4352    0.1374 F       1  UNL1       -0.1659
     30 F          -0.7472    2.3573   -0.6098 F       1  UNL1       -0.1659
     31 C           1.3404   -1.2581   -0.4981 C.3     1  UNL1       -0.0302
     32 C           2.3001   -0.9600   -1.6584 C.3     1  UNL1        0.0155
     33 H           5.7522    2.5870   -4.0878 H       1  UNL1        0.0631
     34 H           5.6683    3.9677   -2.0344 H       1  UNL1        0.0618
     35 H           3.6634    3.8333   -0.6091 H       1  UNL1        0.0618
     36 H           1.8356    2.3761   -1.2026 H       1  UNL1        0.0625
     37 H           0.7080   -2.3720   -3.4093 H       1  UNL1        0.0465
     38 H          -0.2496   -0.9835   -3.9482 H       1  UNL1        0.0465
     39 H          -1.5899   -1.2608   -2.2392 H       1  UNL1        0.0286
     40 H          -0.5390   -2.5470   -1.5656 H       1  UNL1        0.0286
     41 H           0.2832    0.4014   -1.2040 H       1  UNL1        0.0350
     42 H          -0.0888   -2.4164    1.0960 H       1  UNL1        0.0621
     43 H          -1.4336   -2.3717    3.1686 H       1  UNL1        0.0626
     44 H          -2.8418   -2.3581    4.5891 H       1  UNL1        0.2545
     45 H          -4.7919    0.4075    5.7161 H       1  UNL1        0.3060
     46 H          -3.3916   -3.0537    7.1690 H       1  UNL1        0.2545
     47 H          -5.1610   -2.8958    7.2430 H       1  UNL1        0.2545
     48 H          -3.0829    1.3398    1.9963 H       1  UNL1        0.0631
     49 H           1.7107   -0.8270    0.4319 H       1  UNL1        0.0286
     50 H           1.2291   -2.3400   -0.4027 H       1  UNL1        0.0286
     51 H           2.8329   -1.8830   -1.8784 H       1  UNL1        0.0465
     52 H           2.9703   -0.1580   -1.2930 H       1  UNL1        0.0465
@<TRIPOS>BOND
     1     1     2    3
     2     2     3    1
     3     3     4   ar
     4     4     5   ar
     5     5     6   ar
     6     6     7   ar
     7     7     8   ar
     8     8     9    1
     9     9    10    2
    10     9    11   am
    11    11    12    1
    12    12    13    1
    13    13    14    1
    14    14    15    1
    15    15    16   ar
    16    16    17   ar
    17    17    18   ar
    18    18    19    1
    19    19    20    2
    20    19    21   am
    21    21    22    1
    22    22    23    2
    23    22    24    1
    24    18    25   ar
    25    25    26   ar
    26    26    27    1
    27    27    28    1
    28    27    29    1
    29    27    30    1
    30    14    31    1
    31    31    32    1
    32     8     3   ar
    33    32    11    1
    34    26    15   ar
    35     4    33    1
    36     5    34    1
    37     6    35    1
    38     7    36    1
    39    12    37    1
    40    12    38    1
    41    13    39    1
    42    13    40    1
    43    14    41    1
    44    16    42    1
    45    17    43    1
    46    21    44    1
    47    23    45    1
    48    24    46    1
    49    24    47    1
    50    25    48    1
    51    31    49    1
    52    31    50    1
    53    32    51    1
    54    32    52    1
