
     RDKit          3D

 58 60  0  0  0  0  0  0  0  0999 V2000
    3.6368    1.4952   -0.3144 N   0  0  0  0  0  0  0  0  0  0  0  0
    3.8413    0.0977   -0.1221 C   0  0  0  0  0  0  0  0  0  0  0  0
    2.8266   -0.8397   -0.1563 C   0  0  0  0  0  0  0  0  0  0  0  0
    1.3956   -0.5686   -0.3981 C   0  0  0  0  0  0  0  0  0  0  0  0
    0.9874    0.5807   -0.6081 O   0  0  0  0  0  0  0  0  0  0  0  0
    0.4948   -1.6553   -0.3850 N   0  0  0  0  0  0  0  0  0  0  0  0
   -0.9169   -1.6615   -0.5560 C   0  0  0  0  0  0  0  0  0  0  0  0
   -1.7980   -1.1165    0.4681 C   0  0  0  0  0  0  0  0  0  0  0  0
   -1.4266   -1.8999    1.6784 O   0  0  0  0  0  0  0  0  0  0  0  0
   -3.2556   -1.4601    0.3114 C   0  0  0  0  0  0  0  0  0  0  0  0
   -4.0460   -1.0241   -0.7503 N   0  0  0  0  0  0  0  0  0  0  0  0
   -4.3006   -1.9877   -1.8644 C   0  0  0  0  0  0  0  0  0  0  0  0
   -3.4243   -1.7768   -3.0321 C   0  0  0  0  0  0  0  0  0  0  0  0
   -3.5030   -0.4970   -3.5635 F   0  0  0  0  0  0  0  0  0  0  0  0
   -4.7996    0.1640   -0.9041 C   0  0  0  0  0  0  0  0  0  0  0  0
   -5.4127    0.3244   -2.0190 O   0  0  0  0  0  0  0  0  0  0  0  0
   -4.9843    1.2327    0.0267 C   0  0  0  0  0  0  0  0  0  0  0  0
   -4.5174    2.5065   -0.2189 C   0  0  0  0  0  0  0  0  0  0  0  0
   -3.8315    2.7799   -1.3809 F   0  0  0  0  0  0  0  0  0  0  0  0
   -4.7083    3.5483    0.6629 C   0  0  0  0  0  0  0  0  0  0  0  0
   -5.3887    3.3446    1.8462 C   0  0  0  0  0  0  0  0  0  0  0  0
   -5.8739    2.0625    2.1210 C   0  0  0  0  0  0  0  0  0  0  0  0
   -5.6621    1.0525    1.2159 C   0  0  0  0  0  0  0  0  0  0  0  0
   -6.1550   -0.1579    1.5218 F   0  0  0  0  0  0  0  0  0  0  0  0
   -1.6232    0.2720    0.9757 C   0  0  0  0  0  0  0  0  0  0  0  0
   -2.6609    0.4300    1.9470 F   0  0  0  0  0  0  0  0  0  0  0  0
   -1.6989    1.2757    0.0861 F   0  0  0  0  0  0  0  0  0  0  0  0
   -0.4796    0.3463    1.7972 F   0  0  0  0  0  0  0  0  0  0  0  0
    3.4365   -2.0453    0.0748 C   0  0  0  0  0  0  0  0  0  0  0  0
    4.7615   -1.8188    0.2377 N   0  0  0  0  0  0  0  0  0  0  0  0
    5.0147   -0.5103    0.1183 N   0  0  0  0  0  0  0  0  0  0  0  0
    6.3053    0.0766    0.2318 C   0  0  0  0  0  0  0  0  0  0  0  0
    6.6471    1.1571   -0.5548 C   0  0  0  0  0  0  0  0  0  0  0  0
    7.9058    1.7494   -0.4625 C   0  0  0  0  0  0  0  0  0  0  0  0
    8.8405    1.2755    0.4123 C   0  0  0  0  0  0  0  0  0  0  0  0
   10.0783    1.8138    0.5426 F   0  0  0  0  0  0  0  0  0  0  0  0
    8.5207    0.1965    1.2083 C   0  0  0  0  0  0  0  0  0  0  0  0
    7.2568   -0.3981    1.1155 C   0  0  0  0  0  0  0  0  0  0  0  0
    4.1852    2.1848    0.2543 H   0  0  0  0  0  0  0  0  0  0  0  0
    2.9412    1.8504   -1.0205 H   0  0  0  0  0  0  0  0  0  0  0  0
    0.9199   -2.6391   -0.2192 H   0  0  0  0  0  0  0  0  0  0  0  0
   -1.2441   -2.7061   -0.8009 H   0  0  0  0  0  0  0  0  0  0  0  0
   -1.0981   -1.0200   -1.5102 H   0  0  0  0  0  0  0  0  0  0  0  0
   -1.4147   -2.8514    1.3587 H   0  0  0  0  0  0  0  0  0  0  0  0
   -3.7248   -1.2319    1.3323 H   0  0  0  0  0  0  0  0  0  0  0  0
   -3.2844   -2.6028    0.3302 H   0  0  0  0  0  0  0  0  0  0  0  0
   -4.1054   -3.0355   -1.4915 H   0  0  0  0  0  0  0  0  0  0  0  0
   -5.3615   -1.9303   -2.1867 H   0  0  0  0  0  0  0  0  0  0  0  0
   -2.3985   -2.1262   -2.9326 H   0  0  0  0  0  0  0  0  0  0  0  0
   -3.8781   -2.4929   -3.8405 H   0  0  0  0  0  0  0  0  0  0  0  0
   -4.3170    4.5222    0.4123 H   0  0  0  0  0  0  0  0  0  0  0  0
   -5.5633    4.1262    2.5680 H   0  0  0  0  0  0  0  0  0  0  0  0
   -6.4155    1.8603    3.0434 H   0  0  0  0  0  0  0  0  0  0  0  0
    2.9081   -2.9911    0.1117 H   0  0  0  0  0  0  0  0  0  0  0  0
    5.9389    1.5558   -1.2537 H   0  0  0  0  0  0  0  0  0  0  0  0
    8.1656    2.5983   -1.0833 H   0  0  0  0  0  0  0  0  0  0  0  0
    9.2606   -0.1911    1.9113 H   0  0  0  0  0  0  0  0  0  0  0  0
    7.0034   -1.2439    1.7386 H   0  0  0  0  0  0  0  0  0  0  0  0
  1  2  1  0
  2  3  2  0
  3  4  1  0
  4  5  2  0
  4  6  1  0
  6  7  1  0
  7  8  1  0
  8  9  1  0
  8 10  1  0
 10 11  1  0
 11 12  1  0
 12 13  1  0
 13 14  1  0
 11 15  1  0
 15 16  2  0
 15 17  1  0
 17 18  2  0
 18 19  1  0
 18 20  1  0
 20 21  2  0
 21 22  1  0
 22 23  2  0
 23 24  1  0
  8 25  1  0
 25 26  1  0
 25 27  1  0
 25 28  1  0
  3 29  1  0
 29 30  2  0
 30 31  1  0
 31 32  1  0
 32 33  2  0
 33 34  1  0
 34 35  2  0
 35 36  1  0
 35 37  1  0
 37 38  2  0
 31  2  1  0
 38 32  1  0
 23 17  1  0
  1 39  1  0
  1 40  1  0
  6 41  1  0
  7 42  1  0
  7 43  1  0
  9 44  1  0
 10 45  1  0
 10 46  1  0
 12 47  1  0
 12 48  1  0
 13 49  1  0
 13 50  1  0
 20 51  1  0
 21 52  1  0
 22 53  1  0
 29 54  1  0
 33 55  1  0
 34 56  1  0
 37 57  1  0
 38 58  1  0
M  END
$$$$
