@<TRIPOS>MOLECULE
*****
 58 60 0 0 0
SMALL
GASTEIGER

@<TRIPOS>ATOM
      1 N           3.6368    1.4952   -0.3144 N.pl3   1  UNL1       -0.3424
      2 C           3.8413    0.0977   -0.1221 C.ar    1  UNL1        0.1320
      3 C           2.8266   -0.8397   -0.1563 C.ar    1  UNL1        0.0958
      4 C           1.3956   -0.5686   -0.3981 C.2     1  UNL1        0.2490
      5 O           0.9874    0.5807   -0.6081 O.2     1  UNL1       -0.2700
      6 N           0.4948   -1.6553   -0.3850 N.am    1  UNL1       -0.3081
      7 C          -0.9169   -1.6615   -0.5560 C.3     1  UNL1        0.0508
      8 C          -1.7980   -1.1165    0.4681 C.3     1  UNL1        0.1917
      9 O          -1.4266   -1.8999    1.6784 O.3     1  UNL1       -0.3774
     10 C          -3.2556   -1.4601    0.3114 C.3     1  UNL1        0.0540
     11 N          -4.0460   -1.0241   -0.7503 N.am    1  UNL1       -0.2918
     12 C          -4.3006   -1.9877   -1.8644 C.3     1  UNL1        0.0434
     13 C          -3.4243   -1.7768   -3.0321 C.3     1  UNL1        0.1058
     14 F          -3.5030   -0.4970   -3.5635 F       1  UNL1       -0.2474
     15 C          -4.7996    0.1640   -0.9041 C.2     1  UNL1        0.2523
     16 O          -5.4127    0.3244   -2.0190 O.2     1  UNL1       -0.2698
     17 C          -4.9843    1.2327    0.0267 C.ar    1  UNL1        0.1070
     18 C          -4.5174    2.5065   -0.2189 C.ar    1  UNL1        0.1383
     19 F          -3.8315    2.7799   -1.3809 F       1  UNL1       -0.2046
     20 C          -4.7083    3.5483    0.6629 C.ar    1  UNL1       -0.0255
     21 C          -5.3887    3.3446    1.8462 C.ar    1  UNL1       -0.0563
     22 C          -5.8739    2.0625    2.1210 C.ar    1  UNL1       -0.0255
     23 C          -5.6621    1.0525    1.2159 C.ar    1  UNL1        0.1383
     24 F          -6.1550   -0.1579    1.5218 F       1  UNL1       -0.2046
     25 C          -1.6232    0.2720    0.9757 C.3     1  UNL1        0.4212
     26 F          -2.6609    0.4300    1.9470 F       1  UNL1       -0.1675
     27 F          -1.6989    1.2757    0.0861 F       1  UNL1       -0.1675
     28 F          -0.4796    0.3463    1.7972 F       1  UNL1       -0.1675
     29 C           3.4365   -2.0453    0.0748 C.ar    1  UNL1        0.0638
     30 N           4.7615   -1.8188    0.2377 N.ar    1  UNL1       -0.1723
     31 N           5.0147   -0.5103    0.1183 N.ar    1  UNL1       -0.2182
     32 C           6.3053    0.0766    0.2318 C.ar    1  UNL1        0.0676
     33 C           6.6471    1.1571   -0.5548 C.ar    1  UNL1       -0.0335
     34 C           7.9058    1.7494   -0.4625 C.ar    1  UNL1       -0.0244
     35 C           8.8405    1.2755    0.4123 C.ar    1  UNL1        0.1235
     36 F          10.0783    1.8138    0.5426 F       1  UNL1       -0.2055
     37 C           8.5207    0.1965    1.2083 C.ar    1  UNL1       -0.0244
     38 C           7.2568   -0.3981    1.1155 C.ar    1  UNL1       -0.0335
     39 H           4.1852    2.1848    0.2543 H       1  UNL1        0.1437
     40 H           2.9412    1.8504   -1.0205 H       1  UNL1        0.1437
     41 H           0.9199   -2.6391   -0.2192 H       1  UNL1        0.1491
     42 H          -1.2441   -2.7061   -0.8009 H       1  UNL1        0.0494
     43 H          -1.0981   -1.0200   -1.5102 H       1  UNL1        0.0494
     44 H          -1.4147   -2.8514    1.3587 H       1  UNL1        0.2106
     45 H          -3.7248   -1.2319    1.3323 H       1  UNL1        0.0496
     46 H          -3.2844   -2.6028    0.3302 H       1  UNL1        0.0496
     47 H          -4.1054   -3.0355   -1.4915 H       1  UNL1        0.0490
     48 H          -5.3615   -1.9303   -2.1867 H       1  UNL1        0.0490
     49 H          -2.3985   -2.1262   -2.9326 H       1  UNL1        0.0630
     50 H          -3.8781   -2.4929   -3.8405 H       1  UNL1        0.0630
     51 H          -4.3170    4.5222    0.4123 H       1  UNL1        0.0646
     52 H          -5.5633    4.1262    2.5680 H       1  UNL1        0.0619
     53 H          -6.4155    1.8603    3.0434 H       1  UNL1        0.0646
     54 H           2.9081   -2.9911    0.1117 H       1  UNL1        0.0856
     55 H           5.9389    1.5558   -1.2537 H       1  UNL1        0.0640
     56 H           8.1656    2.5983   -1.0833 H       1  UNL1        0.0647
     57 H           9.2606   -0.1911    1.9113 H       1  UNL1        0.0647
     58 H           7.0034   -1.2439    1.7386 H       1  UNL1        0.0640
@<TRIPOS>BOND
     1     1     2    1
     2     2     3   ar
     3     3     4    1
     4     4     5    2
     5     4     6   am
     6     6     7    1
     7     7     8    1
     8     8     9    1
     9     8    10    1
    10    10    11    1
    11    11    12    1
    12    12    13    1
    13    13    14    1
    14    11    15   am
    15    15    16    2
    16    15    17    1
    17    17    18   ar
    18    18    19    1
    19    18    20   ar
    20    20    21   ar
    21    21    22   ar
    22    22    23   ar
    23    23    24    1
    24     8    25    1
    25    25    26    1
    26    25    27    1
    27    25    28    1
    28     3    29   ar
    29    29    30   ar
    30    30    31   ar
    31    31    32    1
    32    32    33   ar
    33    33    34   ar
    34    34    35   ar
    35    35    36    1
    36    35    37   ar
    37    37    38   ar
    38    31     2   ar
    39    38    32   ar
    40    23    17   ar
    41     1    39    1
    42     1    40    1
    43     6    41    1
    44     7    42    1
    45     7    43    1
    46     9    44    1
    47    10    45    1
    48    10    46    1
    49    12    47    1
    50    12    48    1
    51    13    49    1
    52    13    50    1
    53    20    51    1
    54    21    52    1
    55    22    53    1
    56    29    54    1
    57    33    55    1
    58    34    56    1
    59    37    57    1
    60    38    58    1
