@<TRIPOS>MOLECULE
*****
 47 50 0 0 0
SMALL
GASTEIGER

@<TRIPOS>ATOM
      1 N          -2.6108   -1.7793   -0.2619 N.3     1  UNL1       -0.3282
      2 C          -3.0457   -0.9487    0.8406 C.3     1  UNL1        0.0119
      3 C          -2.4585    0.4291    0.6445 C.3     1  UNL1        0.0397
      4 C          -2.9289    1.0239   -0.6409 C.3     1  UNL1       -0.0079
      5 C          -4.3986    1.1736   -0.7074 C.ar    1  UNL1       -0.0429
      6 C          -4.9973    2.3348   -0.2428 C.ar    1  UNL1       -0.0583
      7 C          -6.3632    2.5127   -0.2914 C.ar    1  UNL1       -0.0588
      8 C          -7.1853    1.5347   -0.8074 C.ar    1  UNL1       -0.0264
      9 C          -6.6097    0.3741   -1.2740 C.ar    1  UNL1        0.1237
     10 F          -7.3862   -0.6310   -1.7979 F       1  UNL1       -0.2055
     11 C          -5.2215    0.2016   -1.2209 C.ar    1  UNL1       -0.0232
     12 N          -1.0100    0.2892    0.6737 N.am    1  UNL1       -0.3065
     13 C          -0.2107    0.8972    1.6722 C.2     1  UNL1        0.2510
     14 O          -0.6970    1.5780    2.5712 O.2     1  UNL1       -0.2696
     15 C           1.2565    0.7278    1.6621 C.ar    1  UNL1        0.0755
     16 C           2.1906    1.1972    2.4834 C.ar    1  UNL1       -0.0279
     17 C           3.4933    0.8937    2.2548 C.ar    1  UNL1        0.0334
     18 BR          4.8985    1.5721    3.4369 Br      1  UNL1       -0.0491
     19 C           3.7934    0.1139    1.1847 C.ar    1  UNL1        0.0347
     20 C           5.0211   -0.4116    0.6176 C.ar    1  UNL1        0.0019
     21 C           6.2549   -0.2173    1.1680 C.ar    1  UNL1       -0.0346
     22 C           7.4271   -0.7425    0.5754 C.ar    1  UNL1        0.0305
     23 N           7.3265   -1.4470   -0.5515 N.ar    1  UNL1       -0.2375
     24 C           6.1334   -1.6617   -1.1259 C.ar    1  UNL1        0.1387
     25 N           5.8704   -2.3442   -2.2523 N.ar    1  UNL1       -0.3458
     26 C           4.5597   -2.3000   -2.4446 C.ar    1  UNL1        0.0041
     27 C           3.9646   -1.5672   -1.4104 C.ar    1  UNL1       -0.0345
     28 C           4.9549   -1.1534   -0.5613 C.ar    1  UNL1        0.0269
     29 S           2.1673   -0.1753    0.5118 S.2     1  UNL1       -0.0825
     30 H          -3.1959   -2.6629   -0.3206 H       1  UNL1        0.1183
     31 H          -1.6148   -1.9904   -0.1373 H       1  UNL1        0.1183
     32 H          -4.1689   -0.8680    0.8757 H       1  UNL1        0.0440
     33 H          -2.6454   -1.3240    1.8133 H       1  UNL1        0.0440
     34 H          -2.8254    1.0523    1.4799 H       1  UNL1        0.0514
     35 H          -2.6359    0.3739   -1.5139 H       1  UNL1        0.0332
     36 H          -2.4453    1.9968   -0.8263 H       1  UNL1        0.0332
     37 H          -4.3783    3.1137    0.1647 H       1  UNL1        0.0620
     38 H          -6.7563    3.4475    0.0909 H       1  UNL1        0.0619
     39 H          -8.2623    1.6905   -0.8387 H       1  UNL1        0.0646
     40 H          -4.8048   -0.7314   -1.6032 H       1  UNL1        0.0649
     41 H          -0.5165   -0.2722   -0.0529 H       1  UNL1        0.1494
     42 H           1.8825    1.8390    3.3547 H       1  UNL1        0.0642
     43 H           6.3644    0.3454    2.0819 H       1  UNL1        0.0639
     44 H           8.3716   -0.5547    1.0581 H       1  UNL1        0.0830
     45 H           6.5574   -2.8216   -2.8663 H       1  UNL1        0.1668
     46 H           3.9670   -2.7401   -3.2554 H       1  UNL1        0.0807
     47 H           2.9182   -1.3682   -1.3079 H       1  UNL1        0.0639
@<TRIPOS>BOND
     1     1     2    1
     2     2     3    1
     3     3     4    1
     4     4     5    1
     5     5     6   ar
     6     6     7   ar
     7     7     8   ar
     8     8     9   ar
     9     9    10    1
    10     9    11   ar
    11     3    12    1
    12    12    13   am
    13    13    14    2
    14    13    15    1
    15    15    16   ar
    16    16    17   ar
    17    17    18    1
    18    17    19   ar
    19    19    20    1
    20    20    21   ar
    21    21    22   ar
    22    22    23   ar
    23    23    24   ar
    24    24    25   ar
    25    25    26   ar
    26    26    27   ar
    27    27    28   ar
    28    19    29   ar
    29    11     5   ar
    30    29    15   ar
    31    28    20   ar
    32    28    24   ar
    33     1    30    1
    34     1    31    1
    35     2    32    1
    36     2    33    1
    37     3    34    1
    38     4    35    1
    39     4    36    1
    40     6    37    1
    41     7    38    1
    42     8    39    1
    43    11    40    1
    44    12    41    1
    45    16    42    1
    46    21    43    1
    47    22    44    1
    48    25    45    1
    49    26    46    1
    50    27    47    1
