@<TRIPOS>MOLECULE
*****
 74 78 0 0 0
SMALL
GASTEIGER

@<TRIPOS>ATOM
      1 N          -7.8008   -5.0349   -0.1058 N.3     1  UNL1       -0.2080
      2 S          -6.1520   -5.1662   -0.5202 S.O2    1  UNL1        0.0284
      3 O          -6.0021   -5.2315   -1.9914 O.2     1  UNL1       -0.1584
      4 O          -5.6105   -6.4323    0.0946 O.2     1  UNL1       -0.1584
      5 C          -5.2021   -3.7894    0.1355 C.3     1  UNL1        0.0969
      6 C          -5.7367   -2.4994   -0.4270 C.3     1  UNL1        0.0325
      7 N          -5.0325   -1.3472    0.0364 N.am    1  UNL1       -0.3118
      8 C          -4.9947   -1.0159    1.4068 C.2     1  UNL1        0.2439
      9 O          -5.6172   -1.7751    2.2273 O.2     1  UNL1       -0.2733
     10 C          -4.2864    0.1420    1.9536 C.3     1  UNL1        0.2003
     11 C          -2.8209    0.0972    1.5996 C.ar    1  UNL1        0.1126
     12 N          -1.7529   -0.0955    2.0562 N.ar    1  UNL1       -0.2416
     13 C          -0.5820   -0.0650    1.4849 C.ar    1  UNL1        0.0786
     14 C           0.6799   -0.3020    2.0461 C.ar    1  UNL1       -0.0346
     15 C           1.8130   -0.2294    1.2855 C.ar    1  UNL1       -0.0519
     16 C           1.8110    0.0728   -0.0520 C.ar    1  UNL1       -0.0138
     17 C           3.0523    0.1269   -0.8043 C.ar    1  UNL1        0.0196
     18 C           3.3276    0.9494   -1.8993 C.ar    1  UNL1        0.0571
     19 N           4.5773    0.6657   -2.2774 N.ar    1  UNL1       -0.1790
     20 N           5.1083   -0.2637   -1.5135 N.ar    1  UNL1       -0.2696
     21 C           6.4711   -0.8156   -1.6510 C.3     1  UNL1        0.0542
     22 C           7.4328    0.0012   -0.8146 C.3     1  UNL1        0.0186
     23 N           8.7505   -0.5225   -0.9383 N.3     1  UNL1       -0.2963
     24 C           8.9917   -1.7998   -0.3663 C.3     1  UNL1        0.0225
     25 C           9.5235   -1.5870    1.0567 C.3     1  UNL1        0.0604
     26 O          10.7377   -0.9510    0.9294 O.3     1  UNL1       -0.3772
     27 C          10.5995    0.3435    0.4444 C.3     1  UNL1        0.0604
     28 C           9.7999    0.4250   -0.8287 C.3     1  UNL1        0.0225
     29 C           4.1963   -0.6105   -0.6043 C.ar    1  UNL1        0.0332
     30 C           0.5648    0.3137   -0.6353 C.ar    1  UNL1       -0.0381
     31 C          -0.5723    0.2379    0.1398 C.ar    1  UNL1        0.0398
     32 S          -2.3147    0.4580   -0.1864 S.2     1  UNL1       -0.0697
     33 S          -5.0254    1.6957    1.6251 S.O2    1  UNL1       -0.0096
     34 O          -4.1358    2.7741    2.2340 O.2     1  UNL1       -0.1729
     35 O          -6.3524    1.8403    2.3206 O.2     1  UNL1       -0.1729
     36 C          -5.1654    2.0491   -0.0851 C.3     1  UNL1        0.0920
     37 C          -5.8053    3.3953   -0.2630 C.ar    1  UNL1       -0.0263
     38 C          -5.0852    4.5498   -0.3343 C.ar    1  UNL1       -0.0543
     39 C          -5.7017    5.7739   -0.4986 C.ar    1  UNL1       -0.0261
     40 C          -7.0683    5.8219   -0.5913 C.ar    1  UNL1        0.1234
     41 F          -7.6659    7.0339   -0.7536 F       1  UNL1       -0.2055
     42 C          -7.8078    4.6602   -0.5206 C.ar    1  UNL1       -0.0261
     43 C          -7.1729    3.4439   -0.3559 C.ar    1  UNL1       -0.0543
     44 H          -7.9310   -5.0292    0.9280 H       1  UNL1        0.1438
     45 H          -8.3167   -4.3128   -0.6186 H       1  UNL1        0.1438
     46 H          -5.2252   -3.7796    1.2258 H       1  UNL1        0.0531
     47 H          -4.1344   -3.9339   -0.1544 H       1  UNL1        0.0531
     48 H          -5.6723   -2.5244   -1.5525 H       1  UNL1        0.0478
     49 H          -6.8297   -2.4154   -0.2088 H       1  UNL1        0.0478
     50 H          -4.5148   -0.7062   -0.6303 H       1  UNL1        0.1488
     51 H          -4.2817    0.0312    3.0873 H       1  UNL1        0.0705
     52 H           0.8148   -0.5501    3.0910 H       1  UNL1        0.0639
     53 H           2.7982   -0.4215    1.7529 H       1  UNL1        0.0624
     54 H           2.6285    1.6645   -2.3243 H       1  UNL1        0.0854
     55 H           6.7417   -0.8131   -2.7147 H       1  UNL1        0.0521
     56 H           6.4419   -1.8633   -1.3279 H       1  UNL1        0.0521
     57 H           7.0933    0.0799    0.2280 H       1  UNL1        0.0445
     58 H           7.4343    1.0214   -1.2591 H       1  UNL1        0.0445
     59 H           8.0729   -2.3713   -0.2532 H       1  UNL1        0.0449
     60 H           9.7871   -2.3341   -0.9302 H       1  UNL1        0.0449
     61 H           9.6754   -2.5816    1.5153 H       1  UNL1        0.0572
     62 H           8.7629   -0.9929    1.5814 H       1  UNL1        0.0572
     63 H          11.6353    0.6916    0.1973 H       1  UNL1        0.0572
     64 H          10.2374    0.9820    1.2497 H       1  UNL1        0.0572
     65 H          10.4677    0.3310   -1.7101 H       1  UNL1        0.0449
     66 H           9.3803    1.4512   -0.8840 H       1  UNL1        0.0449
     67 H           4.3303   -1.3586    0.1752 H       1  UNL1        0.0832
     68 H           0.4693    0.5585   -1.6794 H       1  UNL1        0.0635
     69 H          -4.1983    2.0952   -0.5829 H       1  UNL1        0.0550
     70 H          -5.8209    1.2768   -0.5430 H       1  UNL1        0.0550
     71 H          -4.0082    4.5303   -0.2634 H       1  UNL1        0.0622
     72 H          -5.1206    6.6866   -0.5538 H       1  UNL1        0.0646
     73 H          -8.8802    4.6949   -0.5934 H       1  UNL1        0.0646
     74 H          -7.8108    2.5556   -0.3063 H       1  UNL1        0.0622
@<TRIPOS>BOND
     1     1     2    1
     2     2     3    2
     3     2     4    2
     4     2     5    1
     5     5     6    1
     6     6     7    1
     7     7     8   am
     8     8     9    2
     9     8    10    1
    10    10    11    1
    11    11    12   ar
    12    12    13   ar
    13    13    14   ar
    14    14    15   ar
    15    15    16   ar
    16    16    17    1
    17    17    18   ar
    18    18    19   ar
    19    19    20   ar
    20    20    21    1
    21    21    22    1
    22    22    23    1
    23    23    24    1
    24    24    25    1
    25    25    26    1
    26    26    27    1
    27    27    28    1
    28    20    29   ar
    29    16    30   ar
    30    30    31   ar
    31    31    32   ar
    32    10    33    1
    33    33    34    2
    34    33    35    2
    35    33    36    1
    36    36    37    1
    37    37    38   ar
    38    38    39   ar
    39    39    40   ar
    40    40    41    1
    41    40    42   ar
    42    42    43   ar
    43    32    11   ar
    44    43    37   ar
    45    31    13   ar
    46    29    17   ar
    47    28    23    1
    48     1    44    1
    49     1    45    1
    50     5    46    1
    51     5    47    1
    52     6    48    1
    53     6    49    1
    54     7    50    1
    55    10    51    1
    56    14    52    1
    57    15    53    1
    58    18    54    1
    59    21    55    1
    60    21    56    1
    61    22    57    1
    62    22    58    1
    63    24    59    1
    64    24    60    1
    65    25    61    1
    66    25    62    1
    67    27    63    1
    68    27    64    1
    69    28    65    1
    70    28    66    1
    71    29    67    1
    72    30    68    1
    73    36    69    1
    74    36    70    1
    75    38    71    1
    76    39    72    1
    77    42    73    1
    78    43    74    1
