
     RDKit          3D

 74 78  0  0  0  0  0  0  0  0999 V2000
   -7.8008   -5.0349   -0.1058 N   0  0  0  0  0  0  0  0  0  0  0  0
   -6.1520   -5.1662   -0.5202 S   0  0  0  0  0  6  0  0  0  0  0  0
   -6.0021   -5.2315   -1.9914 O   0  0  0  0  0  0  0  0  0  0  0  0
   -5.6105   -6.4323    0.0946 O   0  0  0  0  0  0  0  0  0  0  0  0
   -5.2021   -3.7894    0.1355 C   0  0  0  0  0  0  0  0  0  0  0  0
   -5.7367   -2.4994   -0.4270 C   0  0  0  0  0  0  0  0  0  0  0  0
   -5.0325   -1.3472    0.0364 N   0  0  0  0  0  0  0  0  0  0  0  0
   -4.9947   -1.0159    1.4068 C   0  0  0  0  0  0  0  0  0  0  0  0
   -5.6172   -1.7751    2.2273 O   0  0  0  0  0  0  0  0  0  0  0  0
   -4.2864    0.1420    1.9536 C   0  0  0  0  0  0  0  0  0  0  0  0
   -2.8209    0.0972    1.5996 C   0  0  0  0  0  0  0  0  0  0  0  0
   -1.7529   -0.0955    2.0562 N   0  0  0  0  0  0  0  0  0  0  0  0
   -0.5820   -0.0650    1.4849 C   0  0  0  0  0  0  0  0  0  0  0  0
    0.6799   -0.3020    2.0461 C   0  0  0  0  0  0  0  0  0  0  0  0
    1.8130   -0.2294    1.2855 C   0  0  0  0  0  0  0  0  0  0  0  0
    1.8110    0.0728   -0.0520 C   0  0  0  0  0  0  0  0  0  0  0  0
    3.0523    0.1269   -0.8043 C   0  0  0  0  0  0  0  0  0  0  0  0
    3.3276    0.9494   -1.8993 C   0  0  0  0  0  0  0  0  0  0  0  0
    4.5773    0.6657   -2.2774 N   0  0  0  0  0  0  0  0  0  0  0  0
    5.1083   -0.2637   -1.5135 N   0  0  0  0  0  0  0  0  0  0  0  0
    6.4711   -0.8156   -1.6510 C   0  0  0  0  0  0  0  0  0  0  0  0
    7.4328    0.0012   -0.8146 C   0  0  0  0  0  0  0  0  0  0  0  0
    8.7505   -0.5225   -0.9383 N   0  0  0  0  0  0  0  0  0  0  0  0
    8.9917   -1.7998   -0.3663 C   0  0  0  0  0  0  0  0  0  0  0  0
    9.5235   -1.5870    1.0567 C   0  0  0  0  0  0  0  0  0  0  0  0
   10.7377   -0.9510    0.9294 O   0  0  0  0  0  0  0  0  0  0  0  0
   10.5995    0.3435    0.4444 C   0  0  0  0  0  0  0  0  0  0  0  0
    9.7999    0.4250   -0.8287 C   0  0  0  0  0  0  0  0  0  0  0  0
    4.1963   -0.6105   -0.6043 C   0  0  0  0  0  0  0  0  0  0  0  0
    0.5648    0.3137   -0.6353 C   0  0  0  0  0  0  0  0  0  0  0  0
   -0.5723    0.2379    0.1398 C   0  0  0  0  0  0  0  0  0  0  0  0
   -2.3147    0.4580   -0.1864 S   0  0  0  0  0  0  0  0  0  0  0  0
   -5.0254    1.6957    1.6251 S   0  0  0  0  0  6  0  0  0  0  0  0
   -4.1358    2.7741    2.2340 O   0  0  0  0  0  0  0  0  0  0  0  0
   -6.3524    1.8403    2.3206 O   0  0  0  0  0  0  0  0  0  0  0  0
   -5.1654    2.0491   -0.0851 C   0  0  0  0  0  0  0  0  0  0  0  0
   -5.8053    3.3953   -0.2630 C   0  0  0  0  0  0  0  0  0  0  0  0
   -5.0852    4.5498   -0.3343 C   0  0  0  0  0  0  0  0  0  0  0  0
   -5.7017    5.7739   -0.4986 C   0  0  0  0  0  0  0  0  0  0  0  0
   -7.0683    5.8219   -0.5913 C   0  0  0  0  0  0  0  0  0  0  0  0
   -7.6659    7.0339   -0.7536 F   0  0  0  0  0  0  0  0  0  0  0  0
   -7.8078    4.6602   -0.5206 C   0  0  0  0  0  0  0  0  0  0  0  0
   -7.1729    3.4439   -0.3559 C   0  0  0  0  0  0  0  0  0  0  0  0
   -7.9310   -5.0292    0.9280 H   0  0  0  0  0  0  0  0  0  0  0  0
   -8.3167   -4.3128   -0.6186 H   0  0  0  0  0  0  0  0  0  0  0  0
   -5.2252   -3.7796    1.2258 H   0  0  0  0  0  0  0  0  0  0  0  0
   -4.1344   -3.9339   -0.1544 H   0  0  0  0  0  0  0  0  0  0  0  0
   -5.6723   -2.5244   -1.5525 H   0  0  0  0  0  0  0  0  0  0  0  0
   -6.8297   -2.4154   -0.2088 H   0  0  0  0  0  0  0  0  0  0  0  0
   -4.5148   -0.7062   -0.6303 H   0  0  0  0  0  0  0  0  0  0  0  0
   -4.2817    0.0312    3.0873 H   0  0  0  0  0  0  0  0  0  0  0  0
    0.8148   -0.5501    3.0910 H   0  0  0  0  0  0  0  0  0  0  0  0
    2.7982   -0.4215    1.7529 H   0  0  0  0  0  0  0  0  0  0  0  0
    2.6285    1.6645   -2.3243 H   0  0  0  0  0  0  0  0  0  0  0  0
    6.7417   -0.8131   -2.7147 H   0  0  0  0  0  0  0  0  0  0  0  0
    6.4419   -1.8633   -1.3279 H   0  0  0  0  0  0  0  0  0  0  0  0
    7.0933    0.0799    0.2280 H   0  0  0  0  0  0  0  0  0  0  0  0
    7.4343    1.0214   -1.2591 H   0  0  0  0  0  0  0  0  0  0  0  0
    8.0729   -2.3713   -0.2532 H   0  0  0  0  0  0  0  0  0  0  0  0
    9.7871   -2.3341   -0.9302 H   0  0  0  0  0  0  0  0  0  0  0  0
    9.6754   -2.5816    1.5153 H   0  0  0  0  0  0  0  0  0  0  0  0
    8.7629   -0.9929    1.5814 H   0  0  0  0  0  0  0  0  0  0  0  0
   11.6353    0.6916    0.1973 H   0  0  0  0  0  0  0  0  0  0  0  0
   10.2374    0.9820    1.2497 H   0  0  0  0  0  0  0  0  0  0  0  0
   10.4677    0.3310   -1.7101 H   0  0  0  0  0  0  0  0  0  0  0  0
    9.3803    1.4512   -0.8840 H   0  0  0  0  0  0  0  0  0  0  0  0
    4.3303   -1.3586    0.1752 H   0  0  0  0  0  0  0  0  0  0  0  0
    0.4693    0.5585   -1.6794 H   0  0  0  0  0  0  0  0  0  0  0  0
   -4.1983    2.0952   -0.5829 H   0  0  0  0  0  0  0  0  0  0  0  0
   -5.8209    1.2768   -0.5430 H   0  0  0  0  0  0  0  0  0  0  0  0
   -4.0082    4.5303   -0.2634 H   0  0  0  0  0  0  0  0  0  0  0  0
   -5.1206    6.6866   -0.5538 H   0  0  0  0  0  0  0  0  0  0  0  0
   -8.8802    4.6949   -0.5934 H   0  0  0  0  0  0  0  0  0  0  0  0
   -7.8108    2.5556   -0.3063 H   0  0  0  0  0  0  0  0  0  0  0  0
  1  2  1  0
  2  3  2  0
  2  4  2  0
  2  5  1  0
  5  6  1  0
  6  7  1  0
  7  8  1  0
  8  9  2  0
  8 10  1  0
 10 11  1  0
 11 12  2  0
 12 13  1  0
 13 14  2  0
 14 15  1  0
 15 16  2  0
 16 17  1  0
 17 18  1  0
 18 19  2  0
 19 20  1  0
 20 21  1  0
 21 22  1  0
 22 23  1  0
 23 24  1  0
 24 25  1  0
 25 26  1  0
 26 27  1  0
 27 28  1  0
 20 29  1  0
 16 30  1  0
 30 31  2  0
 31 32  1  0
 10 33  1  0
 33 34  2  0
 33 35  2  0
 33 36  1  0
 36 37  1  0
 37 38  2  0
 38 39  1  0
 39 40  2  0
 40 41  1  0
 40 42  1  0
 42 43  2  0
 32 11  1  0
 43 37  1  0
 31 13  1  0
 29 17  2  0
 28 23  1  0
  1 44  1  0
  1 45  1  0
  5 46  1  0
  5 47  1  0
  6 48  1  0
  6 49  1  0
  7 50  1  0
 10 51  1  0
 14 52  1  0
 15 53  1  0
 18 54  1  0
 21 55  1  0
 21 56  1  0
 22 57  1  0
 22 58  1  0
 24 59  1  0
 24 60  1  0
 25 61  1  0
 25 62  1  0
 27 63  1  0
 27 64  1  0
 28 65  1  0
 28 66  1  0
 29 67  1  0
 30 68  1  0
 36 69  1  0
 36 70  1  0
 38 71  1  0
 39 72  1  0
 42 73  1  0
 43 74  1  0
M  END
$$$$
