@<TRIPOS>MOLECULE
*****
 76 80 0 0 0
SMALL
GASTEIGER

@<TRIPOS>ATOM
      1 C          -4.6270   -4.7638   -3.0797 C.3     1  UNL1       -0.0397
      2 C          -4.7029   -3.5344   -2.2242 C.ar    1  UNL1       -0.0503
      3 C          -4.6615   -2.2723   -2.7643 C.ar    1  UNL1       -0.0568
      4 C          -4.7304   -1.1263   -1.9846 C.ar    1  UNL1       -0.0359
      5 C          -4.8453   -1.2424   -0.6065 C.ar    1  UNL1        0.0674
      6 N          -4.9110   -0.0373    0.1504 N.ar    1  UNL1       -0.2181
      7 N          -5.7867    0.9454    0.0337 N.ar    1  UNL1       -0.1691
      8 C          -5.5010    1.9219    0.9445 C.ar    1  UNL1        0.0706
      9 C          -6.2232    3.1931    1.1555 C.3     1  UNL1        0.0063
     10 C          -5.5700    4.2357    0.2620 C.3     1  UNL1       -0.0546
     11 C          -6.1338    3.6365    2.5790 C.3     1  UNL1       -0.0546
     12 C          -7.6811    3.0035    0.7944 C.3     1  UNL1       -0.0546
     13 C          -4.4022    1.4841    1.6261 C.ar    1  UNL1        0.0021
     14 C          -4.0331    0.2531    1.1258 C.ar    1  UNL1        0.1299
     15 N          -2.9202   -0.4885    1.6103 N.am    1  UNL1       -0.2538
     16 C          -1.6218   -0.3614    1.0533 C.2     1  UNL1        0.3092
     17 O          -1.4919    0.4515    0.0864 O.2     1  UNL1       -0.2521
     18 N          -0.4822   -1.0952    1.5269 N.am    1  UNL1       -0.2686
     19 C           0.7634   -0.8694    0.8670 C.ar    1  UNL1        0.0427
     20 C           1.1352   -1.6439   -0.2149 C.ar    1  UNL1       -0.0364
     21 C           2.3442   -1.4061   -0.8472 C.ar    1  UNL1       -0.0176
     22 C           3.2118   -0.4142   -0.4410 C.ar    1  UNL1        0.1283
     23 O           4.4082   -0.1592   -1.0475 O.3     1  UNL1       -0.4901
     24 C           4.9490   -0.8381   -2.1505 C.3     1  UNL1        0.1023
     25 C           6.2963   -0.1600   -2.4351 C.3     1  UNL1        0.0333
     26 N           7.0912   -0.3013   -1.2651 N.3     1  UNL1       -0.2948
     27 C           7.5214   -1.6054   -0.9379 C.3     1  UNL1        0.0225
     28 C           8.9078   -1.7588   -0.4264 C.3     1  UNL1        0.0604
     29 O           9.5270   -0.6160    0.0107 O.3     1  UNL1       -0.3772
     30 C           8.6402    0.3891    0.3867 C.3     1  UNL1        0.0604
     31 C           7.9256    0.7876   -0.9125 C.3     1  UNL1        0.0225
     32 C           2.8379    0.3568    0.6392 C.ar    1  UNL1        0.0256
     33 C           3.6869    1.3548    1.0667 C.ar    1  UNL1       -0.0505
     34 C           3.3248    2.1221    2.1354 C.ar    1  UNL1       -0.0611
     35 C           2.1196    1.9151    2.7971 C.ar    1  UNL1       -0.0611
     36 C           1.2720    0.9173    2.3689 C.ar    1  UNL1       -0.0521
     37 C           1.6176    0.1234    1.2844 C.ar    1  UNL1        0.0069
     38 C          -4.8880   -2.5005   -0.0508 C.ar    1  UNL1       -0.0359
     39 C          -4.8175   -3.6429   -0.8524 C.ar    1  UNL1       -0.0568
     40 H          -5.6405   -5.1758   -3.2106 H       1  UNL1        0.0278
     41 H          -3.9354   -5.5149   -2.6439 H       1  UNL1        0.0278
     42 H          -4.2651   -4.4392   -4.0694 H       1  UNL1        0.0278
     43 H          -4.5714   -2.1983   -3.8446 H       1  UNL1        0.0621
     44 H          -4.6934   -0.1499   -2.4632 H       1  UNL1        0.0639
     45 H          -4.4784    4.0398    0.2932 H       1  UNL1        0.0239
     46 H          -5.9330    4.0503   -0.7692 H       1  UNL1        0.0239
     47 H          -5.7487    5.2625    0.6152 H       1  UNL1        0.0239
     48 H          -6.8795    4.4687    2.7033 H       1  UNL1        0.0239
     49 H          -6.4132    2.8556    3.3014 H       1  UNL1        0.0239
     50 H          -5.1529    4.0888    2.8250 H       1  UNL1        0.0239
     51 H          -7.7587    2.4527   -0.1528 H       1  UNL1        0.0239
     52 H          -8.1485    2.4096    1.5864 H       1  UNL1        0.0239
     53 H          -8.1572    4.0098    0.7260 H       1  UNL1        0.0239
     54 H          -3.9224    2.0315    2.4203 H       1  UNL1        0.0671
     55 H          -3.0719   -1.1451    2.4053 H       1  UNL1        0.1578
     56 H          -0.6027   -1.7572    2.3239 H       1  UNL1        0.1564
     57 H           0.4772   -2.4213   -0.5492 H       1  UNL1        0.0637
     58 H           2.5972   -2.0346   -1.6899 H       1  UNL1        0.0655
     59 H           4.3051   -0.8683   -3.0323 H       1  UNL1        0.0709
     60 H           5.1843   -1.8878   -1.8044 H       1  UNL1        0.0709
     61 H           6.0865    0.8822   -2.7119 H       1  UNL1        0.0460
     62 H           6.7189   -0.6611   -3.3307 H       1  UNL1        0.0460
     63 H           7.4146   -2.2931   -1.8148 H       1  UNL1        0.0449
     64 H           6.7830   -2.0213   -0.1897 H       1  UNL1        0.0449
     65 H           9.5817   -2.3032   -1.1454 H       1  UNL1        0.0572
     66 H           8.8725   -2.4527    0.4652 H       1  UNL1        0.0572
     67 H           9.1825    1.2363    0.8032 H       1  UNL1        0.0572
     68 H           7.8468    0.0218    1.0634 H       1  UNL1        0.0572
     69 H           8.6211    1.1356   -1.6751 H       1  UNL1        0.0449
     70 H           7.2543    1.6539   -0.6407 H       1  UNL1        0.0449
     71 H           4.6280    1.5319    0.5666 H       1  UNL1        0.0625
     72 H           3.9516    2.9268    2.5229 H       1  UNL1        0.0618
     73 H           1.8329    2.5278    3.6492 H       1  UNL1        0.0618
     74 H           0.3112    0.7288    2.8715 H       1  UNL1        0.0624
     75 H          -4.9764   -2.6027    1.0092 H       1  UNL1        0.0639
     76 H          -4.8497   -4.6418   -0.4292 H       1  UNL1        0.0621
@<TRIPOS>BOND
     1     1     2    1
     2     2     3   ar
     3     3     4   ar
     4     4     5   ar
     5     5     6    1
     6     6     7   ar
     7     7     8   ar
     8     8     9    1
     9     9    10    1
    10     9    11    1
    11     9    12    1
    12     8    13   ar
    13    13    14   ar
    14    14    15    1
    15    15    16   am
    16    16    17    2
    17    16    18   am
    18    18    19    1
    19    19    20   ar
    20    20    21   ar
    21    21    22   ar
    22    22    23    1
    23    23    24    1
    24    24    25    1
    25    25    26    1
    26    26    27    1
    27    27    28    1
    28    28    29    1
    29    29    30    1
    30    30    31    1
    31    22    32   ar
    32    32    33   ar
    33    33    34   ar
    34    34    35   ar
    35    35    36   ar
    36    36    37   ar
    37     5    38   ar
    38    38    39   ar
    39    39     2   ar
    40    14     6   ar
    41    37    19   ar
    42    31    26    1
    43    37    32   ar
    44     1    40    1
    45     1    41    1
    46     1    42    1
    47     3    43    1
    48     4    44    1
    49    10    45    1
    50    10    46    1
    51    10    47    1
    52    11    48    1
    53    11    49    1
    54    11    50    1
    55    12    51    1
    56    12    52    1
    57    12    53    1
    58    13    54    1
    59    15    55    1
    60    18    56    1
    61    20    57    1
    62    21    58    1
    63    24    59    1
    64    24    60    1
    65    25    61    1
    66    25    62    1
    67    27    63    1
    68    27    64    1
    69    28    65    1
    70    28    66    1
    71    30    67    1
    72    30    68    1
    73    31    69    1
    74    31    70    1
    75    33    71    1
    76    34    72    1
    77    35    73    1
    78    36    74    1
    79    38    75    1
    80    39    76    1
