
     RDKit          3D

 76 80  0  0  0  0  0  0  0  0999 V2000
   -4.6270   -4.7638   -3.0797 C   0  0  0  0  0  0  0  0  0  0  0  0
   -4.7029   -3.5344   -2.2242 C   0  0  0  0  0  0  0  0  0  0  0  0
   -4.6615   -2.2723   -2.7643 C   0  0  0  0  0  0  0  0  0  0  0  0
   -4.7304   -1.1263   -1.9846 C   0  0  0  0  0  0  0  0  0  0  0  0
   -4.8453   -1.2424   -0.6065 C   0  0  0  0  0  0  0  0  0  0  0  0
   -4.9110   -0.0373    0.1504 N   0  0  0  0  0  0  0  0  0  0  0  0
   -5.7867    0.9454    0.0337 N   0  0  0  0  0  0  0  0  0  0  0  0
   -5.5010    1.9219    0.9445 C   0  0  0  0  0  0  0  0  0  0  0  0
   -6.2232    3.1931    1.1555 C   0  0  0  0  0  0  0  0  0  0  0  0
   -5.5700    4.2357    0.2620 C   0  0  0  0  0  0  0  0  0  0  0  0
   -6.1338    3.6365    2.5790 C   0  0  0  0  0  0  0  0  0  0  0  0
   -7.6811    3.0035    0.7944 C   0  0  0  0  0  0  0  0  0  0  0  0
   -4.4022    1.4841    1.6261 C   0  0  0  0  0  0  0  0  0  0  0  0
   -4.0331    0.2531    1.1258 C   0  0  0  0  0  0  0  0  0  0  0  0
   -2.9202   -0.4885    1.6103 N   0  0  0  0  0  0  0  0  0  0  0  0
   -1.6218   -0.3614    1.0533 C   0  0  0  0  0  0  0  0  0  0  0  0
   -1.4919    0.4515    0.0864 O   0  0  0  0  0  0  0  0  0  0  0  0
   -0.4822   -1.0952    1.5269 N   0  0  0  0  0  0  0  0  0  0  0  0
    0.7634   -0.8694    0.8670 C   0  0  0  0  0  0  0  0  0  0  0  0
    1.1352   -1.6439   -0.2149 C   0  0  0  0  0  0  0  0  0  0  0  0
    2.3442   -1.4061   -0.8472 C   0  0  0  0  0  0  0  0  0  0  0  0
    3.2118   -0.4142   -0.4410 C   0  0  0  0  0  0  0  0  0  0  0  0
    4.4082   -0.1592   -1.0475 O   0  0  0  0  0  0  0  0  0  0  0  0
    4.9490   -0.8381   -2.1505 C   0  0  0  0  0  0  0  0  0  0  0  0
    6.2963   -0.1600   -2.4351 C   0  0  0  0  0  0  0  0  0  0  0  0
    7.0912   -0.3013   -1.2651 N   0  0  0  0  0  0  0  0  0  0  0  0
    7.5214   -1.6054   -0.9379 C   0  0  0  0  0  0  0  0  0  0  0  0
    8.9078   -1.7588   -0.4264 C   0  0  0  0  0  0  0  0  0  0  0  0
    9.5270   -0.6160    0.0107 O   0  0  0  0  0  0  0  0  0  0  0  0
    8.6402    0.3891    0.3867 C   0  0  0  0  0  0  0  0  0  0  0  0
    7.9256    0.7876   -0.9125 C   0  0  0  0  0  0  0  0  0  0  0  0
    2.8379    0.3568    0.6392 C   0  0  0  0  0  0  0  0  0  0  0  0
    3.6869    1.3548    1.0667 C   0  0  0  0  0  0  0  0  0  0  0  0
    3.3248    2.1221    2.1354 C   0  0  0  0  0  0  0  0  0  0  0  0
    2.1196    1.9151    2.7971 C   0  0  0  0  0  0  0  0  0  0  0  0
    1.2720    0.9173    2.3689 C   0  0  0  0  0  0  0  0  0  0  0  0
    1.6176    0.1234    1.2844 C   0  0  0  0  0  0  0  0  0  0  0  0
   -4.8880   -2.5005   -0.0508 C   0  0  0  0  0  0  0  0  0  0  0  0
   -4.8175   -3.6429   -0.8524 C   0  0  0  0  0  0  0  0  0  0  0  0
   -5.6405   -5.1758   -3.2106 H   0  0  0  0  0  0  0  0  0  0  0  0
   -3.9354   -5.5149   -2.6439 H   0  0  0  0  0  0  0  0  0  0  0  0
   -4.2651   -4.4392   -4.0694 H   0  0  0  0  0  0  0  0  0  0  0  0
   -4.5714   -2.1983   -3.8446 H   0  0  0  0  0  0  0  0  0  0  0  0
   -4.6934   -0.1499   -2.4632 H   0  0  0  0  0  0  0  0  0  0  0  0
   -4.4784    4.0398    0.2932 H   0  0  0  0  0  0  0  0  0  0  0  0
   -5.9330    4.0503   -0.7692 H   0  0  0  0  0  0  0  0  0  0  0  0
   -5.7487    5.2625    0.6152 H   0  0  0  0  0  0  0  0  0  0  0  0
   -6.8795    4.4687    2.7033 H   0  0  0  0  0  0  0  0  0  0  0  0
   -6.4132    2.8556    3.3014 H   0  0  0  0  0  0  0  0  0  0  0  0
   -5.1529    4.0888    2.8250 H   0  0  0  0  0  0  0  0  0  0  0  0
   -7.7587    2.4527   -0.1528 H   0  0  0  0  0  0  0  0  0  0  0  0
   -8.1485    2.4096    1.5864 H   0  0  0  0  0  0  0  0  0  0  0  0
   -8.1572    4.0098    0.7260 H   0  0  0  0  0  0  0  0  0  0  0  0
   -3.9224    2.0315    2.4203 H   0  0  0  0  0  0  0  0  0  0  0  0
   -3.0719   -1.1451    2.4053 H   0  0  0  0  0  0  0  0  0  0  0  0
   -0.6027   -1.7572    2.3239 H   0  0  0  0  0  0  0  0  0  0  0  0
    0.4772   -2.4213   -0.5492 H   0  0  0  0  0  0  0  0  0  0  0  0
    2.5972   -2.0346   -1.6899 H   0  0  0  0  0  0  0  0  0  0  0  0
    4.3051   -0.8683   -3.0323 H   0  0  0  0  0  0  0  0  0  0  0  0
    5.1843   -1.8878   -1.8044 H   0  0  0  0  0  0  0  0  0  0  0  0
    6.0865    0.8822   -2.7119 H   0  0  0  0  0  0  0  0  0  0  0  0
    6.7189   -0.6611   -3.3307 H   0  0  0  0  0  0  0  0  0  0  0  0
    7.4146   -2.2931   -1.8148 H   0  0  0  0  0  0  0  0  0  0  0  0
    6.7830   -2.0213   -0.1897 H   0  0  0  0  0  0  0  0  0  0  0  0
    9.5817   -2.3032   -1.1454 H   0  0  0  0  0  0  0  0  0  0  0  0
    8.8725   -2.4527    0.4652 H   0  0  0  0  0  0  0  0  0  0  0  0
    9.1825    1.2363    0.8032 H   0  0  0  0  0  0  0  0  0  0  0  0
    7.8468    0.0218    1.0634 H   0  0  0  0  0  0  0  0  0  0  0  0
    8.6211    1.1356   -1.6751 H   0  0  0  0  0  0  0  0  0  0  0  0
    7.2543    1.6539   -0.6407 H   0  0  0  0  0  0  0  0  0  0  0  0
    4.6280    1.5319    0.5666 H   0  0  0  0  0  0  0  0  0  0  0  0
    3.9516    2.9268    2.5229 H   0  0  0  0  0  0  0  0  0  0  0  0
    1.8329    2.5278    3.6492 H   0  0  0  0  0  0  0  0  0  0  0  0
    0.3112    0.7288    2.8715 H   0  0  0  0  0  0  0  0  0  0  0  0
   -4.9764   -2.6027    1.0092 H   0  0  0  0  0  0  0  0  0  0  0  0
   -4.8497   -4.6418   -0.4292 H   0  0  0  0  0  0  0  0  0  0  0  0
  1  2  1  0
  2  3  2  0
  3  4  1  0
  4  5  2  0
  5  6  1  0
  6  7  1  0
  7  8  2  0
  8  9  1  0
  9 10  1  0
  9 11  1  0
  9 12  1  0
  8 13  1  0
 13 14  2  0
 14 15  1  0
 15 16  1  0
 16 17  2  0
 16 18  1  0
 18 19  1  0
 19 20  2  0
 20 21  1  0
 21 22  2  0
 22 23  1  0
 23 24  1  0
 24 25  1  0
 25 26  1  0
 26 27  1  0
 27 28  1  0
 28 29  1  0
 29 30  1  0
 30 31  1  0
 22 32  1  0
 32 33  2  0
 33 34  1  0
 34 35  2  0
 35 36  1  0
 36 37  2  0
  5 38  1  0
 38 39  2  0
 39  2  1  0
 14  6  1  0
 37 19  1  0
 31 26  1  0
 37 32  1  0
  1 40  1  0
  1 41  1  0
  1 42  1  0
  3 43  1  0
  4 44  1  0
 10 45  1  0
 10 46  1  0
 10 47  1  0
 11 48  1  0
 11 49  1  0
 11 50  1  0
 12 51  1  0
 12 52  1  0
 12 53  1  0
 13 54  1  0
 15 55  1  0
 18 56  1  0
 20 57  1  0
 21 58  1  0
 24 59  1  0
 24 60  1  0
 25 61  1  0
 25 62  1  0
 27 63  1  0
 27 64  1  0
 28 65  1  0
 28 66  1  0
 30 67  1  0
 30 68  1  0
 31 69  1  0
 31 70  1  0
 33 71  1  0
 34 72  1  0
 35 73  1  0
 36 74  1  0
 38 75  1  0
 39 76  1  0
M  END
$$$$
