@<TRIPOS>MOLECULE
*****
 60 63 0 0 0
SMALL
GASTEIGER

@<TRIPOS>ATOM
      1 C           0.9419   -2.5813   -2.6962 C.3     1  UNL1       -0.0421
      2 C           0.7345   -2.1743   -1.2742 C.3     1  UNL1        0.0515
      3 C           1.9241   -1.4154   -0.7538 C.ar    1  UNL1       -0.0271
      4 C           2.0271   -0.0546   -0.8099 C.ar    1  UNL1       -0.0562
      5 C           3.1747    0.5844   -0.3105 C.ar    1  UNL1       -0.0536
      6 C           4.2256   -0.1056    0.2456 C.ar    1  UNL1       -0.0151
      7 C           5.4097    0.5989    0.7574 C.ar    1  UNL1        0.0175
      8 C           5.9762    1.6077    0.0064 C.ar    1  UNL1       -0.0486
      9 C           7.0859    2.3041    0.4322 C.ar    1  UNL1       -0.0257
     10 C           7.6479    1.9794    1.6517 C.ar    1  UNL1        0.1262
     11 F           8.7460    2.6518    2.0979 F       1  UNL1       -0.2054
     12 C           7.0745    0.9650    2.4017 C.ar    1  UNL1        0.0094
     13 C           5.9738    0.2811    1.9694 C.ar    1  UNL1        0.1338
     14 F           5.3902   -0.7191    2.6849 F       1  UNL1       -0.2048
     15 C           4.1206   -1.4794    0.3020 C.ar    1  UNL1       -0.0536
     16 C           2.9973   -2.1124   -0.1863 C.ar    1  UNL1       -0.0562
     17 N          -0.5186   -1.5677   -0.9777 N.am    1  UNL1       -0.2605
     18 C          -1.4119   -2.1396    0.0338 C.3     1  UNL1        0.0224
     19 C          -1.8392   -1.0938    1.0066 C.3     1  UNL1        0.0075
     20 C          -2.4270    0.1587    0.3237 C.3     1  UNL1        0.1415
     21 C          -2.2764    1.2574    1.3054 C.3     1  UNL1       -0.0064
     22 C          -2.7235    2.6194    0.8709 C.3     1  UNL1       -0.0258
     23 C          -4.1564    2.7536    0.4744 C.3     1  UNL1        0.0443
     24 O          -4.3411    4.1149    0.1273 O.3     1  UNL1       -0.3950
     25 C          -3.7987   -0.2379   -0.0212 C.ar    1  UNL1       -0.0041
     26 C          -4.8031   -0.2768    0.9135 C.ar    1  UNL1       -0.0548
     27 C          -6.0917   -0.6571    0.5481 C.ar    1  UNL1       -0.0614
     28 C          -6.3995   -1.0038   -0.7506 C.ar    1  UNL1       -0.0617
     29 C          -5.3893   -0.9634   -1.6849 C.ar    1  UNL1       -0.0614
     30 C          -4.0928   -0.5806   -1.3164 C.ar    1  UNL1       -0.0548
     31 O          -1.6834    0.5199   -0.8267 O.3     1  UNL1       -0.4388
     32 C          -0.9769   -0.3843   -1.6102 C.2     1  UNL1        0.4042
     33 O          -0.7231   -0.2182   -2.8352 O.2     1  UNL1       -0.2262
     34 H           0.0483   -3.0692   -3.0869 H       1  UNL1        0.0251
     35 H           1.3147   -1.7551   -3.3369 H       1  UNL1        0.0251
     36 H           1.7652   -3.3467   -2.7017 H       1  UNL1        0.0251
     37 H           0.7795   -3.1391   -0.6503 H       1  UNL1        0.0549
     38 H           1.2500    0.5536   -1.2248 H       1  UNL1        0.0621
     39 H           3.2586    1.6723   -0.3548 H       1  UNL1        0.0624
     40 H           5.5130    1.8436   -0.9517 H       1  UNL1        0.0625
     41 H           7.5377    3.0971   -0.1496 H       1  UNL1        0.0646
     42 H           7.5072    0.7022    3.3597 H       1  UNL1        0.0675
     43 H           4.9510   -2.0182    0.7410 H       1  UNL1        0.0624
     44 H           2.9166   -3.1944   -0.1411 H       1  UNL1        0.0621
     45 H          -2.2584   -2.5997   -0.4876 H       1  UNL1        0.0467
     46 H          -0.8874   -2.9248    0.6200 H       1  UNL1        0.0467
     47 H          -2.6246   -1.5332    1.6552 H       1  UNL1        0.0322
     48 H          -0.9897   -0.8115    1.6417 H       1  UNL1        0.0322
     49 H          -2.6417    0.9980    2.3272 H       1  UNL1        0.0308
     50 H          -1.1562    1.3570    1.4677 H       1  UNL1        0.0308
     51 H          -2.0348    3.0219    0.0637 H       1  UNL1        0.0289
     52 H          -2.5706    3.3783    1.7027 H       1  UNL1        0.0289
     53 H          -4.4356    2.1613   -0.4246 H       1  UNL1        0.0557
     54 H          -4.8695    2.5574    1.2748 H       1  UNL1        0.0557
     55 H          -4.3319    4.2141   -0.8441 H       1  UNL1        0.2094
     56 H          -4.5538   -0.0055    1.9206 H       1  UNL1        0.0622
     57 H          -6.8608   -0.6774    1.3091 H       1  UNL1        0.0618
     58 H          -7.4220   -1.3006   -1.0171 H       1  UNL1        0.0618
     59 H          -5.6357   -1.2357   -2.6997 H       1  UNL1        0.0618
     60 H          -3.3664   -0.5769   -2.1112 H       1  UNL1        0.0622
@<TRIPOS>BOND
     1     1     2    1
     2     2     3    1
     3     3     4   ar
     4     4     5   ar
     5     5     6   ar
     6     6     7    1
     7     7     8   ar
     8     8     9   ar
     9     9    10   ar
    10    10    11    1
    11    10    12   ar
    12    12    13   ar
    13    13    14    1
    14     6    15   ar
    15    15    16   ar
    16     2    17    1
    17    17    18    1
    18    18    19    1
    19    19    20    1
    20    20    21    1
    21    21    22    1
    22    22    23    1
    23    23    24    1
    24    20    25    1
    25    25    26   ar
    26    26    27   ar
    27    27    28   ar
    28    28    29   ar
    29    29    30   ar
    30    20    31    1
    31    31    32    1
    32    32    33    2
    33    16     3   ar
    34    32    17   am
    35    13     7   ar
    36    30    25   ar
    37     1    34    1
    38     1    35    1
    39     1    36    1
    40     2    37    1
    41     4    38    1
    42     5    39    1
    43     8    40    1
    44     9    41    1
    45    12    42    1
    46    15    43    1
    47    16    44    1
    48    18    45    1
    49    18    46    1
    50    19    47    1
    51    19    48    1
    52    21    49    1
    53    21    50    1
    54    22    51    1
    55    22    52    1
    56    23    53    1
    57    23    54    1
    58    24    55    1
    59    26    56    1
    60    27    57    1
    61    28    58    1
    62    29    59    1
    63    30    60    1
