
     RDKit          3D

 60 63  0  0  0  0  0  0  0  0999 V2000
    0.9419   -2.5813   -2.6962 C   0  0  0  0  0  0  0  0  0  0  0  0
    0.7345   -2.1743   -1.2742 C   0  0  1  0  0  0  0  0  0  0  0  0
    1.9241   -1.4154   -0.7538 C   0  0  0  0  0  0  0  0  0  0  0  0
    2.0271   -0.0546   -0.8099 C   0  0  0  0  0  0  0  0  0  0  0  0
    3.1747    0.5844   -0.3105 C   0  0  0  0  0  0  0  0  0  0  0  0
    4.2256   -0.1056    0.2456 C   0  0  0  0  0  0  0  0  0  0  0  0
    5.4097    0.5989    0.7574 C   0  0  0  0  0  0  0  0  0  0  0  0
    5.9762    1.6077    0.0064 C   0  0  0  0  0  0  0  0  0  0  0  0
    7.0859    2.3041    0.4322 C   0  0  0  0  0  0  0  0  0  0  0  0
    7.6479    1.9794    1.6517 C   0  0  0  0  0  0  0  0  0  0  0  0
    8.7460    2.6518    2.0979 F   0  0  0  0  0  0  0  0  0  0  0  0
    7.0745    0.9650    2.4017 C   0  0  0  0  0  0  0  0  0  0  0  0
    5.9738    0.2811    1.9694 C   0  0  0  0  0  0  0  0  0  0  0  0
    5.3902   -0.7191    2.6849 F   0  0  0  0  0  0  0  0  0  0  0  0
    4.1206   -1.4794    0.3020 C   0  0  0  0  0  0  0  0  0  0  0  0
    2.9973   -2.1124   -0.1863 C   0  0  0  0  0  0  0  0  0  0  0  0
   -0.5186   -1.5677   -0.9777 N   0  0  0  0  0  0  0  0  0  0  0  0
   -1.4119   -2.1396    0.0338 C   0  0  0  0  0  0  0  0  0  0  0  0
   -1.8392   -1.0938    1.0066 C   0  0  0  0  0  0  0  0  0  0  0  0
   -2.4270    0.1587    0.3237 C   0  0  2  0  0  0  0  0  0  0  0  0
   -2.2764    1.2574    1.3054 C   0  0  0  0  0  0  0  0  0  0  0  0
   -2.7235    2.6194    0.8709 C   0  0  0  0  0  0  0  0  0  0  0  0
   -4.1564    2.7536    0.4744 C   0  0  0  0  0  0  0  0  0  0  0  0
   -4.3411    4.1149    0.1273 O   0  0  0  0  0  0  0  0  0  0  0  0
   -3.7987   -0.2379   -0.0212 C   0  0  0  0  0  0  0  0  0  0  0  0
   -4.8031   -0.2768    0.9135 C   0  0  0  0  0  0  0  0  0  0  0  0
   -6.0917   -0.6571    0.5481 C   0  0  0  0  0  0  0  0  0  0  0  0
   -6.3995   -1.0038   -0.7506 C   0  0  0  0  0  0  0  0  0  0  0  0
   -5.3893   -0.9634   -1.6849 C   0  0  0  0  0  0  0  0  0  0  0  0
   -4.0928   -0.5806   -1.3164 C   0  0  0  0  0  0  0  0  0  0  0  0
   -1.6834    0.5199   -0.8267 O   0  0  0  0  0  0  0  0  0  0  0  0
   -0.9769   -0.3843   -1.6102 C   0  0  0  0  0  0  0  0  0  0  0  0
   -0.7231   -0.2182   -2.8352 O   0  0  0  0  0  0  0  0  0  0  0  0
    0.0483   -3.0692   -3.0869 H   0  0  0  0  0  0  0  0  0  0  0  0
    1.3147   -1.7551   -3.3369 H   0  0  0  0  0  0  0  0  0  0  0  0
    1.7652   -3.3467   -2.7017 H   0  0  0  0  0  0  0  0  0  0  0  0
    0.7795   -3.1391   -0.6503 H   0  0  0  0  0  0  0  0  0  0  0  0
    1.2500    0.5536   -1.2248 H   0  0  0  0  0  0  0  0  0  0  0  0
    3.2586    1.6723   -0.3548 H   0  0  0  0  0  0  0  0  0  0  0  0
    5.5130    1.8436   -0.9517 H   0  0  0  0  0  0  0  0  0  0  0  0
    7.5377    3.0971   -0.1496 H   0  0  0  0  0  0  0  0  0  0  0  0
    7.5072    0.7022    3.3597 H   0  0  0  0  0  0  0  0  0  0  0  0
    4.9510   -2.0182    0.7410 H   0  0  0  0  0  0  0  0  0  0  0  0
    2.9166   -3.1944   -0.1411 H   0  0  0  0  0  0  0  0  0  0  0  0
   -2.2584   -2.5997   -0.4876 H   0  0  0  0  0  0  0  0  0  0  0  0
   -0.8874   -2.9248    0.6200 H   0  0  0  0  0  0  0  0  0  0  0  0
   -2.6246   -1.5332    1.6552 H   0  0  0  0  0  0  0  0  0  0  0  0
   -0.9897   -0.8115    1.6417 H   0  0  0  0  0  0  0  0  0  0  0  0
   -2.6417    0.9980    2.3272 H   0  0  0  0  0  0  0  0  0  0  0  0
   -1.1562    1.3570    1.4677 H   0  0  0  0  0  0  0  0  0  0  0  0
   -2.0348    3.0219    0.0637 H   0  0  0  0  0  0  0  0  0  0  0  0
   -2.5706    3.3783    1.7027 H   0  0  0  0  0  0  0  0  0  0  0  0
   -4.4356    2.1613   -0.4246 H   0  0  0  0  0  0  0  0  0  0  0  0
   -4.8695    2.5574    1.2748 H   0  0  0  0  0  0  0  0  0  0  0  0
   -4.3319    4.2141   -0.8441 H   0  0  0  0  0  0  0  0  0  0  0  0
   -4.5538   -0.0055    1.9206 H   0  0  0  0  0  0  0  0  0  0  0  0
   -6.8608   -0.6774    1.3091 H   0  0  0  0  0  0  0  0  0  0  0  0
   -7.4220   -1.3006   -1.0171 H   0  0  0  0  0  0  0  0  0  0  0  0
   -5.6357   -1.2357   -2.6997 H   0  0  0  0  0  0  0  0  0  0  0  0
   -3.3664   -0.5769   -2.1112 H   0  0  0  0  0  0  0  0  0  0  0  0
  1  2  1  0
  2  3  1  0
  3  4  2  0
  4  5  1  0
  5  6  2  0
  6  7  1  0
  7  8  2  0
  8  9  1  0
  9 10  2  0
 10 11  1  0
 10 12  1  0
 12 13  2  0
 13 14  1  0
  6 15  1  0
 15 16  2  0
  2 17  1  0
 17 18  1  0
 18 19  1  0
 19 20  1  0
 20 21  1  1
 21 22  1  0
 22 23  1  0
 23 24  1  0
 20 25  1  0
 25 26  2  0
 26 27  1  0
 27 28  2  0
 28 29  1  0
 29 30  2  0
 20 31  1  0
 31 32  1  0
 32 33  2  0
 16  3  1  0
 32 17  1  0
 13  7  1  0
 30 25  1  0
  1 34  1  0
  1 35  1  0
  1 36  1  0
  2 37  1  1
  4 38  1  0
  5 39  1  0
  8 40  1  0
  9 41  1  0
 12 42  1  0
 15 43  1  0
 16 44  1  0
 18 45  1  0
 18 46  1  0
 19 47  1  0
 19 48  1  0
 21 49  1  0
 21 50  1  0
 22 51  1  0
 22 52  1  0
 23 53  1  0
 23 54  1  0
 24 55  1  0
 26 56  1  0
 27 57  1  0
 28 58  1  0
 29 59  1  0
 30 60  1  0
M  END
$$$$
