
     RDKit          3D

 76 80  0  0  0  0  0  0  0  0999 V2000
   -5.9905   -1.8309    1.7227 C   0  0  0  0  0  0  0  0  0  0  0  0
   -4.4503   -1.8578    1.5417 C   0  0  0  0  0  0  0  0  0  0  0  0
   -4.0195   -0.5026    1.2511 C   0  0  2  0  0  0  0  0  0  0  0  0
   -4.7891   -0.1394   -0.0270 N   0  0  0  0  0  0  0  0  0  0  0  0
   -5.6860    0.7806   -0.0999 C   0  0  0  0  0  0  0  0  0  0  0  0
   -6.0216    0.4709   -1.7367 N   0  0  0  0  0  0  0  0  0  0  0  0
   -6.8623    1.0832   -2.3803 C   0  0  0  0  0  0  0  0  0  0  0  0
   -7.0897    0.7537   -3.8212 N   0  0  0  0  0  0  0  0  0  0  0  0
   -7.7045    2.0937   -2.0442 N   0  0  0  0  0  0  0  0  0  0  0  0
   -7.4790    2.4521   -0.6259 C   0  0  0  0  0  0  0  0  0  0  0  0
   -8.3165    3.5047   -0.1407 N   0  0  0  0  0  0  0  0  0  0  0  0
   -6.6345    1.7535   -0.1773 C   0  0  0  0  0  0  0  0  0  0  0  0
   -5.7104    2.8443    0.7879 C   0  0  0  0  0  0  0  0  0  0  0  0
   -5.0611    3.5933    1.4696 N   0  0  0  0  0  0  0  0  0  0  0  0
   -2.6633   -0.1852    0.8781 C   0  0  0  0  0  0  0  0  0  0  0  0
   -2.4427    1.1698    0.7108 N   0  0  0  0  0  0  0  0  0  0  0  0
   -1.2866    1.6838    0.3713 C   0  0  0  0  0  0  0  0  0  0  0  0
   -1.0473    3.0545    0.2246 C   0  0  0  0  0  0  0  0  0  0  0  0
    0.1607    3.6154   -0.1002 C   0  0  0  0  0  0  0  0  0  0  0  0
    1.2137    2.7162   -0.2886 C   0  0  0  0  0  0  0  0  0  0  0  0
    1.0527    1.4606   -0.1786 C   0  0  0  0  0  0  0  0  0  0  0  0
    2.1291    0.4648   -0.2568 C   0  0  0  0  0  0  0  0  0  0  0  0
    3.0469   -0.3761   -0.3024 C   0  0  0  0  0  0  0  0  0  0  0  0
    4.1135   -1.3637   -0.3461 C   0  0  0  0  0  0  0  0  0  0  0  0
    5.0556   -1.2225   -1.5110 C   0  0  0  0  0  0  0  0  0  0  0  0
    5.6903    0.1141   -1.6267 C   0  0  0  0  0  0  0  0  0  0  0  0
    6.2850    0.5865   -0.3591 C   0  0  0  0  0  0  0  0  0  0  0  0
    5.4671    0.6179    0.6320 O   0  0  0  0  0  0  0  0  0  0  0  0
    7.6008    1.0066   -0.1416 N   0  0  0  0  0  0  0  0  0  0  0  0
    8.0015    1.5817    1.1846 C   0  0  0  0  0  0  0  0  0  0  0  0
    9.3188    0.8449    1.3758 C   0  0  0  0  0  0  0  0  0  0  0  0
    9.9815    1.1295    0.0337 C   0  0  0  0  0  0  0  0  0  0  0  0
    8.7886    0.9952   -0.9430 C   0  0  0  0  0  0  0  0  0  0  0  0
   -0.2182    0.8394    0.1691 C   0  0  0  0  0  0  0  0  0  0  0  0
   -0.3855   -0.4814    0.3083 C   0  0  0  0  0  0  0  0  0  0  0  0
    0.5646   -1.2775    0.1009 O   0  0  0  0  0  0  0  0  0  0  0  0
   -1.6381   -0.9745    0.6736 N   0  0  0  0  0  0  0  0  0  0  0  0
   -1.6914   -2.3636    0.7706 C   0  0  0  0  0  0  0  0  0  0  0  0
   -1.6514   -3.0134    1.9253 C   0  0  0  0  0  0  0  0  0  0  0  0
   -1.6779   -4.3895    1.9847 C   0  0  0  0  0  0  0  0  0  0  0  0
   -1.7410   -5.1258    0.8419 C   0  0  0  0  0  0  0  0  0  0  0  0
   -1.7658   -4.4461   -0.3525 C   0  0  0  0  0  0  0  0  0  0  0  0
   -1.7405   -3.0646   -0.4106 C   0  0  0  0  0  0  0  0  0  0  0  0
   -6.3031   -2.8157    2.1785 H   0  0  0  0  0  0  0  0  0  0  0  0
   -6.5085   -1.8584    0.7164 H   0  0  0  0  0  0  0  0  0  0  0  0
   -6.3286   -0.9266    2.2368 H   0  0  0  0  0  0  0  0  0  0  0  0
   -4.1444   -2.3230    2.5064 H   0  0  0  0  0  0  0  0  0  0  0  0
   -4.3177   -2.5297    0.6498 H   0  0  0  0  0  0  0  0  0  0  0  0
   -4.4033    0.2268    2.0189 H   0  0  0  0  0  0  0  0  0  0  0  0
   -4.3989   -0.7966   -0.7685 H   0  0  0  0  0  0  0  0  0  0  0  0
   -7.8797    0.1695   -4.0756 H   0  0  0  0  0  0  0  0  0  0  0  0
   -6.4067    1.1661   -4.4592 H   0  0  0  0  0  0  0  0  0  0  0  0
   -8.1285    4.4454   -0.5725 H   0  0  0  0  0  0  0  0  0  0  0  0
   -8.9995    3.3052    0.5818 H   0  0  0  0  0  0  0  0  0  0  0  0
   -1.8652    3.7309    0.4011 H   0  0  0  0  0  0  0  0  0  0  0  0
    0.3553    4.6502   -0.1795 H   0  0  0  0  0  0  0  0  0  0  0  0
    2.2037    3.1986   -0.5337 H   0  0  0  0  0  0  0  0  0  0  0  0
    3.6035   -2.4012   -0.5588 H   0  0  0  0  0  0  0  0  0  0  0  0
    4.5745   -1.5011    0.6372 H   0  0  0  0  0  0  0  0  0  0  0  0
    5.7962   -2.0615   -1.5481 H   0  0  0  0  0  0  0  0  0  0  0  0
    4.4273   -1.3564   -2.4514 H   0  0  0  0  0  0  0  0  0  0  0  0
    4.8311    0.8324   -1.8364 H   0  0  0  0  0  0  0  0  0  0  0  0
    6.3440    0.1382   -2.5005 H   0  0  0  0  0  0  0  0  0  0  0  0
    7.2704    1.4177    1.9574 H   0  0  0  0  0  0  0  0  0  0  0  0
    8.2034    2.6548    0.9750 H   0  0  0  0  0  0  0  0  0  0  0  0
    9.1637   -0.2248    1.4940 H   0  0  0  0  0  0  0  0  0  0  0  0
    9.9388    1.2600    2.2023 H   0  0  0  0  0  0  0  0  0  0  0  0
   10.4296    2.1049   -0.0524 H   0  0  0  0  0  0  0  0  0  0  0  0
   10.7009    0.2788   -0.1682 H   0  0  0  0  0  0  0  0  0  0  0  0
    8.9380    0.0368   -1.4690 H   0  0  0  0  0  0  0  0  0  0  0  0
    8.8256    1.7993   -1.7163 H   0  0  0  0  0  0  0  0  0  0  0  0
   -1.6021   -2.4559    2.9140 H   0  0  0  0  0  0  0  0  0  0  0  0
   -1.6634   -4.9081    2.9497 H   0  0  0  0  0  0  0  0  0  0  0  0
   -1.7920   -6.2423    0.8332 H   0  0  0  0  0  0  0  0  0  0  0  0
   -1.8033   -5.0490   -1.2738 H   0  0  0  0  0  0  0  0  0  0  0  0
   -1.7669   -2.5611   -1.3797 H   0  0  0  0  0  0  0  0  0  0  0  0
  1  2  1  0
  2  3  1  0
  3  4  1  0
  4  5  1  0
  5  6  2  0
  6  7  1  0
  7  8  1  0
  7  9  2  0
  9 10  1  0
 10 11  1  0
 10 12  2  0
 12 13  1  0
 13 14  3  0
  3 15  1  0
 15 16  2  0
 16 17  1  0
 17 18  2  0
 18 19  1  0
 19 20  2  0
 20 21  1  0
 21 22  1  0
 22 23  3  0
 23 24  1  0
 24 25  1  0
 25 26  1  0
 26 27  1  0
 27 28  2  0
 27 29  1  0
 29 30  1  0
 30 31  1  0
 31 32  1  0
 32 33  1  0
 21 34  2  0
 34 35  1  0
 35 36  2  0
 35 37  1  0
 37 38  1  0
 38 39  2  0
 39 40  1  0
 40 41  2  0
 41 42  1  0
 42 43  2  0
 12  5  1  0
 37 15  1  0
 43 38  1  0
 34 17  1  0
 33 29  1  0
  1 44  1  0
  1 45  1  0
  1 46  1  0
  2 47  1  0
  2 48  1  0
  3 49  1  1
  4 50  1  0
  8 51  1  0
  8 52  1  0
 11 53  1  0
 11 54  1  0
 18 55  1  0
 19 56  1  0
 20 57  1  0
 24 58  1  0
 24 59  1  0
 25 60  1  0
 25 61  1  0
 26 62  1  0
 26 63  1  0
 30 64  1  0
 30 65  1  0
 31 66  1  0
 31 67  1  0
 32 68  1  0
 32 69  1  0
 33 70  1  0
 33 71  1  0
 39 72  1  0
 40 73  1  0
 41 74  1  0
 42 75  1  0
 43 76  1  0
M  END
$$$$
