@<TRIPOS>MOLECULE
*****
 76 80 0 0 0
SMALL
GASTEIGER

@<TRIPOS>ATOM
      1 C          -5.9905   -1.8309    1.7227 C.3     1  UNL1       -0.0632
      2 C          -4.4503   -1.8578    1.5417 C.3     1  UNL1       -0.0303
      3 C          -4.0195   -0.5026    1.2511 C.3     1  UNL1        0.0802
      4 N          -4.7891   -0.1394   -0.0270 N.pl3   1  UNL1       -0.3181
      5 C          -5.6860    0.7806   -0.0999 C.ar    1  UNL1        0.1438
      6 N          -6.0216    0.4709   -1.7367 N.ar    1  UNL1       -0.1985
      7 C          -6.8623    1.0832   -2.3803 C.ar    1  UNL1        0.2160
      8 N          -7.0897    0.7537   -3.8212 N.pl3   1  UNL1       -0.3274
      9 N          -7.7045    2.0937   -2.0442 N.ar    1  UNL1       -0.1987
     10 C          -7.4790    2.4521   -0.6259 C.ar    1  UNL1        0.1407
     11 N          -8.3165    3.5047   -0.1407 N.pl3   1  UNL1       -0.3419
     12 C          -6.6345    1.7535   -0.1773 C.ar    1  UNL1        0.1308
     13 C          -5.7104    2.8443    0.7879 C.1     1  UNL1        0.1061
     14 N          -5.0611    3.5933    1.4696 N.1     1  UNL1       -0.1906
     15 C          -2.6633   -0.1852    0.8781 C.ar    1  UNL1        0.1378
     16 N          -2.4427    1.1698    0.7108 N.ar    1  UNL1       -0.2312
     17 C          -1.2866    1.6838    0.3713 C.ar    1  UNL1        0.0794
     18 C          -1.0473    3.0545    0.2246 C.ar    1  UNL1       -0.0354
     19 C           0.1607    3.6154   -0.1002 C.ar    1  UNL1       -0.0586
     20 C           1.2137    2.7162   -0.2886 C.ar    1  UNL1       -0.0455
     21 C           1.0527    1.4606   -0.1786 C.ar    1  UNL1        0.0393
     22 C           2.1291    0.4648   -0.2568 C.1     1  UNL1       -0.0655
     23 C           3.0469   -0.3761   -0.3024 C.1     1  UNL1       -0.0969
     24 C           4.1135   -1.3637   -0.3461 C.3     1  UNL1        0.0099
     25 C           5.0556   -1.2225   -1.5110 C.3     1  UNL1       -0.0339
     26 C           5.6903    0.1141   -1.6267 C.3     1  UNL1        0.0250
     27 C           6.2850    0.5865   -0.3591 C.2     1  UNL1        0.2156
     28 O           5.4671    0.6179    0.6320 O.2     1  UNL1       -0.2756
     29 N           7.6008    1.0066   -0.1416 N.am    1  UNL1       -0.3015
     30 C           8.0015    1.5817    1.1846 C.3     1  UNL1        0.0147
     31 C           9.3188    0.8449    1.3758 C.3     1  UNL1       -0.0357
     32 C           9.9815    1.1295    0.0337 C.3     1  UNL1       -0.0357
     33 C           8.7886    0.9952   -0.9430 C.3     1  UNL1        0.0147
     34 C          -0.2182    0.8394    0.1691 C.ar    1  UNL1        0.0806
     35 C          -0.3855   -0.4814    0.3083 C.ar    1  UNL1        0.2675
     36 O           0.5646   -1.2775    0.1009 O.2     1  UNL1       -0.2665
     37 N          -1.6381   -0.9745    0.6736 N.ar    1  UNL1       -0.2628
     38 C          -1.6914   -2.3636    0.7706 C.ar    1  UNL1        0.0512
     39 C          -1.6514   -3.0134    1.9253 C.ar    1  UNL1       -0.0377
     40 C          -1.6779   -4.3895    1.9847 C.ar    1  UNL1       -0.0598
     41 C          -1.7410   -5.1258    0.8419 C.ar    1  UNL1       -0.0616
     42 C          -1.7658   -4.4461   -0.3525 C.ar    1  UNL1       -0.0598
     43 C          -1.7405   -3.0646   -0.4106 C.ar    1  UNL1       -0.0377
     44 H          -6.3031   -2.8157    2.1785 H       1  UNL1        0.0230
     45 H          -6.5085   -1.8584    0.7164 H       1  UNL1        0.0230
     46 H          -6.3286   -0.9266    2.2368 H       1  UNL1        0.0230
     47 H          -4.1444   -2.3230    2.5064 H       1  UNL1        0.0285
     48 H          -4.3177   -2.5297    0.6498 H       1  UNL1        0.0285
     49 H          -4.4033    0.2268    2.0189 H       1  UNL1        0.0579
     50 H          -4.3989   -0.7966   -0.7685 H       1  UNL1        0.1482
     51 H          -7.8797    0.1695   -4.0756 H       1  UNL1        0.1452
     52 H          -6.4067    1.1661   -4.4592 H       1  UNL1        0.1452
     53 H          -8.1285    4.4454   -0.5725 H       1  UNL1        0.1437
     54 H          -8.9995    3.3052    0.5818 H       1  UNL1        0.1437
     55 H          -1.8652    3.7309    0.4011 H       1  UNL1        0.0639
     56 H           0.3553    4.6502   -0.1795 H       1  UNL1        0.0619
     57 H           2.2037    3.1986   -0.5337 H       1  UNL1        0.0630
     58 H           3.6035   -2.4012   -0.5588 H       1  UNL1        0.0398
     59 H           4.5745   -1.5011    0.6372 H       1  UNL1        0.0398
     60 H           5.7962   -2.0615   -1.5481 H       1  UNL1        0.0279
     61 H           4.4273   -1.3564   -2.4514 H       1  UNL1        0.0279
     62 H           4.8311    0.8324   -1.8364 H       1  UNL1        0.0359
     63 H           6.3440    0.1382   -2.5005 H       1  UNL1        0.0359
     64 H           7.2704    1.4177    1.9574 H       1  UNL1        0.0464
     65 H           8.2034    2.6548    0.9750 H       1  UNL1        0.0464
     66 H           9.1637   -0.2248    1.4940 H       1  UNL1        0.0281
     67 H           9.9388    1.2600    2.2023 H       1  UNL1        0.0281
     68 H          10.4296    2.1049   -0.0524 H       1  UNL1        0.0281
     69 H          10.7009    0.2788   -0.1682 H       1  UNL1        0.0281
     70 H           8.9380    0.0368   -1.4690 H       1  UNL1        0.0464
     71 H           8.8256    1.7993   -1.7163 H       1  UNL1        0.0464
     72 H          -1.6021   -2.4559    2.9140 H       1  UNL1        0.0638
     73 H          -1.6634   -4.9081    2.9497 H       1  UNL1        0.0618
     74 H          -1.7920   -6.2423    0.8332 H       1  UNL1        0.0618
     75 H          -1.8033   -5.0490   -1.2738 H       1  UNL1        0.0618
     76 H          -1.7669   -2.5611   -1.3797 H       1  UNL1        0.0638
@<TRIPOS>BOND
     1     1     2    1
     2     2     3    1
     3     3     4    1
     4     4     5    1
     5     5     6   ar
     6     6     7   ar
     7     7     8    1
     8     7     9   ar
     9     9    10   ar
    10    10    11    1
    11    10    12   ar
    12    12    13    1
    13    13    14    3
    14     3    15    1
    15    15    16   ar
    16    16    17   ar
    17    17    18   ar
    18    18    19   ar
    19    19    20   ar
    20    20    21   ar
    21    21    22    1
    22    22    23    3
    23    23    24    1
    24    24    25    1
    25    25    26    1
    26    26    27    1
    27    27    28    2
    28    27    29   am
    29    29    30    1
    30    30    31    1
    31    31    32    1
    32    32    33    1
    33    21    34   ar
    34    34    35   ar
    35    35    36    2
    36    35    37   ar
    37    37    38    1
    38    38    39   ar
    39    39    40   ar
    40    40    41   ar
    41    41    42   ar
    42    42    43   ar
    43    12     5   ar
    44    37    15   ar
    45    43    38   ar
    46    34    17   ar
    47    33    29    1
    48     1    44    1
    49     1    45    1
    50     1    46    1
    51     2    47    1
    52     2    48    1
    53     3    49    1
    54     4    50    1
    55     8    51    1
    56     8    52    1
    57    11    53    1
    58    11    54    1
    59    18    55    1
    60    19    56    1
    61    20    57    1
    62    24    58    1
    63    24    59    1
    64    25    60    1
    65    25    61    1
    66    26    62    1
    67    26    63    1
    68    30    64    1
    69    30    65    1
    70    31    66    1
    71    31    67    1
    72    32    68    1
    73    32    69    1
    74    33    70    1
    75    33    71    1
    76    39    72    1
    77    40    73    1
    78    41    74    1
    79    42    75    1
    80    43    76    1
