
     RDKit          3D

 89 90  0  0  0  0  0  0  0  0999 V2000
    9.9907    0.2584    0.9001 C   0  0  0  0  0  0  0  0  0  0  0  0
    9.2079   -0.2052   -0.2267 N   0  0  0  0  0  0  0  0  0  0  0  0
    7.7829   -0.1430   -0.1434 C   0  0  0  0  0  0  0  0  0  0  0  0
    7.2482    0.3069    0.8921 O   0  0  0  0  0  0  0  0  0  0  0  0
    6.9860   -0.5866   -1.2221 N   0  0  0  0  0  0  0  0  0  0  0  0
    5.5346   -0.5376   -1.1587 C   0  0  0  0  0  0  0  0  0  0  0  0
    4.8421   -1.0260   -2.3594 N   0  0  0  0  0  0  0  0  0  0  0  0
    4.9894   -0.1242   -0.1839 N   0  0  0  0  0  0  0  0  0  0  0  0
    4.4450    0.3494    0.9360 C   0  0  0  0  0  0  0  0  0  0  0  0
    2.8881    0.3276    0.9674 C   0  0  0  0  0  0  0  0  0  0  0  0
    2.3485    1.1610   -0.1494 C   0  0  0  0  0  0  0  0  0  0  0  0
    0.8496    1.2053   -0.2467 C   0  0  2  0  0  0  0  0  0  0  0  0
    0.3952    1.7841    1.0618 N   0  0  0  0  0  0  0  0  0  0  0  0
   -0.3553    2.9230    1.2191 C   0  0  0  0  0  0  0  0  0  0  0  0
   -0.5362    3.4200    0.0307 O   0  0  0  0  0  0  0  0  0  0  0  0
   -0.9916    3.7170    2.2840 C   0  0  1  0  0  0  0  0  0  0  0  0
   -0.1629    4.3687    3.2806 C   0  0  0  0  0  0  0  0  0  0  0  0
   -1.8280    4.7594    1.5895 N   0  0  0  0  0  0  0  0  0  0  0  0
   -2.9375    4.3178    0.9281 C   0  0  0  0  0  0  0  0  0  0  0  0
   -2.9060    2.9911    0.9609 O   0  0  0  0  0  0  0  0  0  0  0  0
   -4.1348    4.7615    0.1921 C   0  0  0  0  0  0  0  0  0  0  0  0
   -4.6826    3.5985   -0.6351 C   0  0  1  0  0  0  0  0  0  0  0  0
   -3.5602    3.3650   -1.6083 C   0  0  0  0  0  0  0  0  0  0  0  0
   -2.8169    2.4257   -1.7373 O   0  0  0  0  0  0  0  0  0  0  0  0
   -3.3843    4.4492   -2.4976 O   0  0  0  0  0  0  0  0  0  0  0  0
   -4.9491    2.4537    0.2181 N   0  0  0  0  0  0  0  0  0  0  0  0
   -5.0681    1.1606   -0.2520 C   0  0  0  0  0  0  0  0  0  0  0  0
   -4.9618    1.1970   -1.5528 O   0  0  0  0  0  0  0  0  0  0  0  0
   -5.2703   -0.2019    0.2826 C   0  0  0  0  0  0  0  0  0  0  0  0
   -4.7331   -1.2561   -0.6812 C   0  0  1  0  0  0  0  0  0  0  0  0
   -5.4433   -1.0916   -1.9589 C   0  0  0  0  0  0  0  0  0  0  0  0
   -6.6927   -1.1780   -1.9783 O   0  0  0  0  0  0  0  0  0  0  0  0
   -4.7848   -0.8448   -3.1497 O   0  0  0  0  0  0  0  0  0  0  0  0
   -3.2721   -1.0714   -0.8887 N   0  0  0  0  0  0  0  0  0  0  0  0
   -2.3093   -2.0471   -0.7772 C   0  0  0  0  0  0  0  0  0  0  0  0
   -2.9914   -3.1416   -0.4933 O   0  0  0  0  0  0  0  0  0  0  0  0
   -0.9144   -2.3366   -0.8480 C   0  0  2  0  0  0  0  0  0  0  0  0
   -0.4264   -3.0392    0.3883 C   0  0  0  0  0  0  0  0  0  0  0  0
   -1.0397   -4.3251    0.6936 C   0  0  0  0  0  0  0  0  0  0  0  0
   -0.6087   -5.5084    0.1024 C   0  0  0  0  0  0  0  0  0  0  0  0
   -1.1620   -6.7273    0.4198 C   0  0  0  0  0  0  0  0  0  0  0  0
   -2.1781   -6.8049    1.3507 C   0  0  0  0  0  0  0  0  0  0  0  0
   -2.6230   -5.6518    1.9498 C   0  0  0  0  0  0  0  0  0  0  0  0
   -2.0526   -4.4304    1.6173 C   0  0  0  0  0  0  0  0  0  0  0  0
    0.0488   -1.2386   -1.2044 N   0  0  0  0  0  0  0  0  0  0  0  0
    0.7401   -1.5762   -2.3841 C   0  0  0  0  0  0  0  0  0  0  0  0
    0.1728   -0.0903   -0.4381 C   0  0  0  0  0  0  0  0  0  0  0  0
   -0.7354   -0.3265    0.5103 O   0  0  0  0  0  0  0  0  0  0  0  0
   10.0123   -0.5115    1.7171 H   0  0  0  0  0  0  0  0  0  0  0  0
   11.0429    0.4109    0.5798 H   0  0  0  0  0  0  0  0  0  0  0  0
    9.5616    1.1847    1.2971 H   0  0  0  0  0  0  0  0  0  0  0  0
    9.6684   -0.5786   -1.0854 H   0  0  0  0  0  0  0  0  0  0  0  0
    7.4364   -0.9625   -2.0949 H   0  0  0  0  0  0  0  0  0  0  0  0
    4.2871   -1.9040   -2.2932 H   0  0  0  0  0  0  0  0  0  0  0  0
    4.9518   -0.4559   -3.2112 H   0  0  0  0  0  0  0  0  0  0  0  0
    4.7640   -0.2668    1.8450 H   0  0  0  0  0  0  0  0  0  0  0  0
    4.7161    1.4032    1.2600 H   0  0  0  0  0  0  0  0  0  0  0  0
    2.6594    0.6859    1.9838 H   0  0  0  0  0  0  0  0  0  0  0  0
    2.6286   -0.7454    0.8645 H   0  0  0  0  0  0  0  0  0  0  0  0
    2.7966    2.1736   -0.0785 H   0  0  0  0  0  0  0  0  0  0  0  0
    2.8112    0.7350   -1.0898 H   0  0  0  0  0  0  0  0  0  0  0  0
    0.6185    1.9598   -1.0465 H   0  0  0  0  0  0  0  0  0  0  0  0
    0.7528    1.1866    1.7825 H   0  0  0  0  0  0  0  0  0  0  0  0
   -1.7234    3.0053    2.7644 H   0  0  0  0  0  0  0  0  0  0  0  0
    0.7950    4.7214    2.7939 H   0  0  0  0  0  0  0  0  0  0  0  0
    0.1832    3.6338    4.0456 H   0  0  0  0  0  0  0  0  0  0  0  0
   -0.6469    5.2251    3.7823 H   0  0  0  0  0  0  0  0  0  0  0  0
   -1.4428    5.6546    1.7106 H   0  0  0  0  0  0  0  0  0  0  0  0
   -3.9065    5.5331   -0.5208 H   0  0  0  0  0  0  0  0  0  0  0  0
   -4.9018    5.0869    0.9018 H   0  0  0  0  0  0  0  0  0  0  0  0
   -5.5332    3.8542   -1.2159 H   0  0  0  0  0  0  0  0  0  0  0  0
   -2.7008    4.4307   -3.2286 H   0  0  0  0  0  0  0  0  0  0  0  0
   -5.0697    2.7879    1.1670 H   0  0  0  0  0  0  0  0  0  0  0  0
   -6.3763   -0.3644    0.2464 H   0  0  0  0  0  0  0  0  0  0  0  0
   -4.9957   -0.4298    1.3062 H   0  0  0  0  0  0  0  0  0  0  0  0
   -4.9806   -2.2676   -0.3230 H   0  0  0  0  0  0  0  0  0  0  0  0
   -5.2609   -0.7568   -4.0450 H   0  0  0  0  0  0  0  0  0  0  0  0
   -3.1037   -0.1064   -1.1274 H   0  0  0  0  0  0  0  0  0  0  0  0
   -0.7512   -3.1231   -1.6717 H   0  0  0  0  0  0  0  0  0  0  0  0
    0.6849   -3.1638    0.3845 H   0  0  0  0  0  0  0  0  0  0  0  0
   -0.5966   -2.3803    1.2948 H   0  0  0  0  0  0  0  0  0  0  0  0
    0.1880   -5.4770   -0.6315 H   0  0  0  0  0  0  0  0  0  0  0  0
   -0.7811   -7.6084   -0.0754 H   0  0  0  0  0  0  0  0  0  0  0  0
   -2.6164   -7.7687    1.6018 H   0  0  0  0  0  0  0  0  0  0  0  0
   -3.4205   -5.7436    2.6760 H   0  0  0  0  0  0  0  0  0  0  0  0
   -2.4601   -3.5770    2.1392 H   0  0  0  0  0  0  0  0  0  0  0  0
    0.3866   -2.5740   -2.8252 H   0  0  0  0  0  0  0  0  0  0  0  0
    1.8344   -1.7693   -2.2877 H   0  0  0  0  0  0  0  0  0  0  0  0
    0.5312   -0.9284   -3.2929 H   0  0  0  0  0  0  0  0  0  0  0  0
  1  2  1  0
  2  3  1  0
  3  4  2  0
  3  5  1  0
  5  6  1  0
  6  7  1  0
  6  8  2  3
  8  9  1  0
  9 10  1  0
 10 11  1  0
 11 12  1  0
 12 13  1  0
 13 14  1  0
 14 15  2  0
 14 16  1  0
 16 17  1  0
 16 18  1  0
 18 19  1  0
 19 20  2  0
 19 21  1  0
 21 22  1  0
 22 23  1  0
 23 24  2  0
 23 25  1  0
 22 26  1  0
 26 27  1  0
 27 28  2  0
 27 29  1  0
 29 30  1  0
 30 31  1  0
 31 32  2  0
 31 33  1  0
 30 34  1  0
 34 35  1  0
 35 36  2  0
 35 37  1  0
 37 38  1  0
 38 39  1  0
 39 40  2  0
 40 41  1  0
 41 42  2  0
 42 43  1  0
 43 44  2  0
 37 45  1  0
 45 46  1  0
 45 47  1  0
 47 48  2  0
 47 12  1  0
 44 39  1  0
  1 49  1  0
  1 50  1  0
  1 51  1  0
  2 52  1  0
  5 53  1  0
  7 54  1  0
  7 55  1  0
  9 56  1  0
  9 57  1  0
 10 58  1  0
 10 59  1  0
 11 60  1  0
 11 61  1  0
 12 62  1  6
 13 63  1  0
 16 64  1  1
 17 65  1  0
 17 66  1  0
 17 67  1  0
 18 68  1  0
 21 69  1  0
 21 70  1  0
 22 71  1  6
 25 72  1  0
 26 73  1  0
 29 74  1  0
 29 75  1  0
 30 76  1  1
 33 77  1  0
 34 78  1  0
 37 79  1  6
 38 80  1  0
 38 81  1  0
 40 82  1  0
 41 83  1  0
 42 84  1  0
 43 85  1  0
 44 86  1  0
 46 87  1  0
 46 88  1  0
 46 89  1  0
M  END
$$$$
