@<TRIPOS>MOLECULE
*****
 89 90 0 0 0
SMALL
GASTEIGER

@<TRIPOS>ATOM
      1 C           9.9907    0.2584    0.9001 C.3     1  UNK1        0.0028
      2 N           9.2079   -0.2052   -0.2267 N.am    1  UNK1       -0.2892
      3 C           7.7829   -0.1430   -0.1434 C.2     1  UNK1        0.3641
      4 O           7.2482    0.3069    0.8921 O.2     1  UNK1       -0.2336
      5 N           6.9860   -0.5866   -1.2221 N.am    1  UNK1       -0.1582
      6 C           5.5346   -0.5376   -1.1587 C.2     1  UNK1        0.3786
      7 N           4.8421   -1.0260   -2.3594 N.pl3   1  UNK1       -0.2905
      8 N           4.9894   -0.1242   -0.1839 N.pl3   1  UNK1       -0.1152
      9 C           4.4450    0.3494    0.9360 C.3     1  UNK1        0.1046
     10 C           2.8881    0.3276    0.9674 C.3     1  UNK1       -0.0165
     11 C           2.3485    1.1610   -0.1494 C.3     1  UNK1       -0.0230
     12 C           0.8496    1.2053   -0.2467 C.3     1  UNK1        0.0997
     13 N           0.3952    1.7841    1.0618 N.am    1  UNK1       -0.3025
     14 C          -0.3553    2.9230    1.2191 C.2     1  UNK1        0.2337
     15 O          -0.5362    3.4200    0.0307 O.2     1  UNK1       -0.2738
     16 C          -0.9916    3.7170    2.2840 C.3     1  UNK1        0.0966
     17 C          -0.1629    4.3687    3.2806 C.3     1  UNK1       -0.0381
     18 N          -1.8280    4.7594    1.5895 N.am    1  UNK1       -0.3042
     19 C          -2.9375    4.3178    0.9281 C.2     1  UNK1        0.2159
     20 O          -2.9060    2.9911    0.9609 O.2     1  UNK1       -0.2757
     21 C          -4.1348    4.7615    0.1921 C.3     1  UNK1        0.0527
     22 C          -4.6826    3.5985   -0.6351 C.3     1  UNK1        0.1285
     23 C          -3.5602    3.3650   -1.6083 C.2     1  UNK1        0.3257
     24 O          -2.8169    2.4257   -1.7373 O.2     1  UNK1       -0.2489
     25 O          -3.3843    4.4492   -2.4976 O.3     1  UNK1       -0.4793
     26 N          -4.9491    2.4537    0.2181 N.am    3  ASN3       -0.3019
     27 CG         -5.0681    1.1606   -0.2520 C.2     3  ASN3        0.2160
     28 OD1        -4.9618    1.1970   -1.5528 O.2     3  ASN3       -0.2757
     29 CB         -5.2703   -0.2019    0.2826 C.3     3  ASN3        0.0527
     30 CA         -4.7331   -1.2561   -0.6812 C.3     3  ASN3        0.1285
     31 C          -5.4433   -1.0916   -1.9589 C.2     3  ASN3        0.3257
     32 O          -6.6927   -1.1780   -1.9783 O.2     3  ASN3       -0.2489
     33 OXT        -4.7848   -0.8448   -3.1497 O.3     3  ASN3       -0.4793
     34 N          -3.2721   -1.0714   -0.8887 N.am    3  ASN3       -0.3004
     35 C          -2.3093   -2.0471   -0.7772 C.2     2  PHE2        0.2345
     36 O          -2.9914   -3.1416   -0.4933 O.2     2  PHE2       -0.2737
     37 CA         -0.9144   -2.3366   -0.8480 C.3     2  PHE2        0.1058
     38 CB         -0.4264   -3.0392    0.3883 C.3     2  PHE2       -0.0005
     39 CG         -1.0397   -4.3251    0.6936 C.ar    2  PHE2       -0.0451
     40 CD1        -0.6087   -5.5084    0.1024 C.ar    2  PHE2       -0.0585
     41 CE1        -1.1620   -6.7273    0.4198 C.ar    2  PHE2       -0.0615
     42 CZ         -2.1781   -6.8049    1.3507 C.ar    2  PHE2       -0.0617
     43 CE2        -2.6230   -5.6518    1.9498 C.ar    2  PHE2       -0.0615
     44 CD2        -2.0526   -4.4304    1.6173 C.ar    2  PHE2       -0.0585
     45 N           0.0488   -1.2386   -1.2044 N.am    2  PHE2       -0.2911
     46 C           0.7401   -1.5762   -2.3841 C.3     0  UNK0        0.0040
     47 C           0.1728   -0.0903   -0.4381 C.2     1  UNK1        0.2363
     48 O          -0.7354   -0.3265    0.5103 O.2     1  UNK1       -0.2736
     49 H          10.0123   -0.5115    1.7171 H       1  UNK1        0.0427
     50 H          11.0429    0.4109    0.5798 H       1  UNK1        0.0427
     51 H           9.5616    1.1847    1.2971 H       1  UNK1        0.0427
     52 H           9.6684   -0.5786   -1.0854 H       1  UNK1        0.1513
     53 H           7.4364   -0.9625   -2.0949 H       1  UNK1        0.2558
     54 H           4.2871   -1.9040   -2.2932 H       1  UNK1        0.2545
     55 H           4.9518   -0.4559   -3.2112 H       1  UNK1        0.2545
     56 H           4.7640   -0.2668    1.8450 H       1  UNK1        0.0693
     57 H           4.7161    1.4032    1.2600 H       1  UNK1        0.0693
     58 H           2.6594    0.6859    1.9838 H       1  UNK1        0.0298
     59 H           2.6286   -0.7454    0.8645 H       1  UNK1        0.0298
     60 H           2.7966    2.1736   -0.0785 H       1  UNK1        0.0289
     61 H           2.8112    0.7350   -1.0898 H       1  UNK1        0.0289
     62 H           0.6185    1.9598   -1.0465 H       1  UNK1        0.0594
     63 H           0.7528    1.1866    1.7825 H       1  UNK1        0.1495
     64 H          -1.7234    3.0053    2.7644 H       1  UNK1        0.0592
     65 H           0.7950    4.7214    2.7939 H       1  UNK1        0.0252
     66 H           0.1832    3.6338    4.0456 H       1  UNK1        0.0252
     67 H          -0.6469    5.2251    3.7823 H       1  UNK1        0.0252
     68 H          -1.4428    5.6546    1.7106 H       1  UNK1        0.1494
     69 H          -3.9065    5.5331   -0.5208 H       1  UNK1        0.0382
     70 H          -4.9018    5.0869    0.9018 H       1  UNK1        0.0382
     71 H          -5.5332    3.8542   -1.2159 H       1  UNK1        0.0619
     72 H          -2.7008    4.4307   -3.2286 H       1  UNK1        0.2951
     73 H          -5.0697    2.7879    1.1670 H       3  ASN3        0.1495
     74 HB1        -6.3763   -0.3644    0.2464 H       3  ASN3        0.0382
     75 HB2        -4.9957   -0.4298    1.3062 H       3  ASN3        0.0382
     76 HA         -4.9806   -2.2676   -0.3230 H       3  ASN3        0.0619
     77 HXT        -5.2609   -0.7568   -4.0450 H       3  ASN3        0.2951
     78 H          -3.1037   -0.1064   -1.1274 H       3  ASN3        0.1496
     79 HA         -0.7512   -3.1231   -1.6717 H       2  PHE2        0.0600
     80 HB1         0.6849   -3.1638    0.3845 H       2  PHE2        0.0336
     81 HB2        -0.5966   -2.3803    1.2948 H       2  PHE2        0.0336
     82 HD1         0.1880   -5.4770   -0.6315 H       2  PHE2        0.0620
     83 HE1        -0.7811   -7.6084   -0.0754 H       2  PHE2        0.0618
     84 HZ         -2.6164   -7.7687    1.6018 H       2  PHE2        0.0618
     85 HE2        -3.4205   -5.7436    2.6760 H       2  PHE2        0.0618
     86 HD2        -2.4601   -3.5770    2.1392 H       2  PHE2        0.0620
     87 H           0.3866   -2.5740   -2.8252 H       0  UNK0        0.0429
     88 H           1.8344   -1.7693   -2.2877 H       0  UNK0        0.0429
     89 H           0.5312   -0.9284   -3.2929 H       0  UNK0        0.0429
@<TRIPOS>BOND
     1     1     2    1
     2     2     3   am
     3     3     4    2
     4     3     5   am
     5     5     6    1
     6     6     7    1
     7     6     8    2
     8     8     9    1
     9     9    10    1
    10    10    11    1
    11    11    12    1
    12    12    13    1
    13    13    14   am
    14    14    15    2
    15    14    16    1
    16    16    17    1
    17    16    18    1
    18    18    19   am
    19    19    20    2
    20    19    21    1
    21    21    22    1
    22    22    23    1
    23    23    24    2
    24    23    25    1
    25    22    26    1
    26    26    27   am
    27    27    28    2
    28    27    29    1
    29    29    30    1
    30    30    31    1
    31    31    32    2
    32    31    33    1
    33    30    34    1
    34    34    35   am
    35    35    36    2
    36    35    37    1
    37    37    38    1
    38    38    39    1
    39    39    40   ar
    40    40    41   ar
    41    41    42   ar
    42    42    43   ar
    43    43    44   ar
    44    37    45    1
    45    45    46    1
    46    45    47   am
    47    47    48    2
    48    47    12    1
    49    44    39   ar
    50     1    49    1
    51     1    50    1
    52     1    51    1
    53     2    52    1
    54     5    53    1
    55     7    54    1
    56     7    55    1
    57     9    56    1
    58     9    57    1
    59    10    58    1
    60    10    59    1
    61    11    60    1
    62    11    61    1
    63    12    62    1
    64    13    63    1
    65    16    64    1
    66    17    65    1
    67    17    66    1
    68    17    67    1
    69    18    68    1
    70    21    69    1
    71    21    70    1
    72    22    71    1
    73    25    72    1
    74    26    73    1
    75    29    74    1
    76    29    75    1
    77    30    76    1
    78    33    77    1
    79    34    78    1
    80    37    79    1
    81    38    80    1
    82    38    81    1
    83    40    82    1
    84    41    83    1
    85    42    84    1
    86    43    85    1
    87    44    86    1
    88    46    87    1
    89    46    88    1
    90    46    89    1
