
     RDKit          3D

 14 13  0  0  0  0  0  0  0  0999 V2000
    2.2113   -0.5967   -0.0995 C   0  0  0  0  0  0  0  0  0  0  0  0
    0.9499    0.2595   -0.0134 C   0  0  0  0  0  0  0  0  0  0  0  0
   -0.0624   -0.5600    0.4377 O   0  0  0  0  0  0  0  0  0  0  0  0
   -1.5477    0.1881    0.6044 P   0  0  0  0  0  0  0  0  0  0  0  0
   -2.7342   -0.9199    0.1282 O   0  0  0  0  0  0  0  0  0  0  0  0
   -1.7113    1.5648   -0.3282 O   0  0  0  0  0  0  0  0  0  0  0  0
   -1.8317    0.5695    2.0546 O   0  0  0  0  0  0  0  0  0  0  0  0
    1.9767   -1.6783   -0.1931 H   0  0  0  0  0  0  0  0  0  0  0  0
    2.8097   -0.3377   -0.9936 H   0  0  0  0  0  0  0  0  0  0  0  0
    2.7990   -0.4374    0.8408 H   0  0  0  0  0  0  0  0  0  0  0  0
    1.1183    1.1641    0.6074 H   0  0  0  0  0  0  0  0  0  0  0  0
    0.7334    0.5583   -1.0613 H   0  0  0  0  0  0  0  0  0  0  0  0
   -2.5354   -1.1142   -0.8367 H   0  0  0  0  0  0  0  0  0  0  0  0
   -2.1756    1.3399   -1.1772 H   0  0  0  0  0  0  0  0  0  0  0  0
  1  2  1  0
  2  3  1  0
  3  4  1  0
  4  5  1  0
  4  6  1  0
  4  7  2  0
  1  8  1  0
  1  9  1  0
  1 10  1  0
  2 11  1  0
  2 12  1  0
  5 13  1  0
  6 14  1  0
M  END
$$$$
