@<TRIPOS>MOLECULE
*****
 14 13 0 0 0
SMALL
GASTEIGER

@<TRIPOS>ATOM
      1 C           2.2113   -0.5967   -0.0995 C.3     1  UNL1       -0.0410
      2 C           0.9499    0.2595   -0.0134 C.3     1  UNL1        0.0563
      3 O          -0.0624   -0.5600    0.4377 O.3     1  UNL1       -0.2871
      4 P          -1.5477    0.1881    0.6044 P.3     1  UNL1        0.4724
      5 O          -2.7342   -0.9199    0.1282 O.3     1  UNL1       -0.3026
      6 O          -1.7113    1.5648   -0.3282 O.3     1  UNL1       -0.3026
      7 O          -1.8317    0.5695    2.0546 O.2     1  UNL1       -0.2275
      8 H           1.9767   -1.6783   -0.1931 H       1  UNL1        0.0252
      9 H           2.8097   -0.3377   -0.9936 H       1  UNL1        0.0252
     10 H           2.7990   -0.4374    0.8408 H       1  UNL1        0.0252
     11 H           1.1183    1.1641    0.6074 H       1  UNL1        0.0563
     12 H           0.7334    0.5583   -1.0613 H       1  UNL1        0.0563
     13 H          -2.5354   -1.1142   -0.8367 H       1  UNL1        0.2220
     14 H          -2.1756    1.3399   -1.1772 H       1  UNL1        0.2220
@<TRIPOS>BOND
     1     1     2    1
     2     2     3    1
     3     3     4    1
     4     4     5    1
     5     4     6    1
     6     4     7    2
     7     1     8    1
     8     1     9    1
     9     1    10    1
    10     2    11    1
    11     2    12    1
    12     5    13    1
    13     6    14    1
