
     RDKit          3D

118125  0  0  0  0  0  0  0  0999 V2000
   12.5229    1.9952    0.6151 C   0  0  0  0  0  0  0  0  0  0  0  0
   12.0188    0.5601    0.5373 C   0  0  1  0  0  0  0  0  0  0  0  0
   10.8897    0.3651    1.2808 O   0  0  0  0  0  0  0  0  0  0  0  0
   10.1761   -0.7262    0.8704 C   0  0  1  0  0  0  0  0  0  0  0  0
    9.1321   -0.4010    0.0107 O   0  0  0  0  0  0  0  0  0  0  0  0
    7.8808   -0.6400    0.5202 C   0  0  1  0  0  0  0  0  0  0  0  0
    7.2577    0.7144    0.7937 C   0  0  1  0  0  0  0  0  0  0  0  0
    7.2471    1.4644   -0.3819 O   0  0  0  0  0  0  0  0  0  0  0  0
    5.8480    0.5398    1.2521 C   0  0  0  0  0  0  0  0  0  0  0  0
    5.1373   -0.2762    0.2088 C   0  0  2  0  0  0  0  0  0  0  0  0
    3.7882   -0.2917    0.4519 O   0  0  0  0  0  0  0  0  0  0  0  0
    2.9874    0.2534   -0.5358 C   0  0  1  0  0  0  0  0  0  0  0  0
    2.0917   -0.8447   -1.0281 C   0  0  1  0  0  0  0  0  0  0  0  0
    1.9457   -1.7778    0.0256 O   0  0  0  0  0  0  0  0  0  0  0  0
    0.6918   -0.4099   -1.3665 C   0  0  0  0  0  0  0  0  0  0  0  0
    0.2452    0.5531   -0.2883 C   0  0  2  0  0  0  0  0  0  0  0  0
   -1.1025    0.8211   -0.3313 O   0  0  0  0  0  0  0  0  0  0  0  0
   -1.7210    0.5128    0.9009 C   0  0  1  0  0  0  0  0  0  0  0  0
   -2.4402    1.7342    1.3677 C   0  0  0  0  0  0  0  0  0  0  0  0
   -3.9158    1.5660    1.4960 C   0  0  0  0  0  0  0  0  0  0  0  0
   -4.5756    0.9807    0.2645 C   0  0  2  0  0  0  0  0  0  0  0  0
   -4.6630    2.0916   -0.7650 C   0  0  0  0  0  0  0  0  0  0  0  0
   -5.9145    0.3997    0.5921 C   0  0  1  0  0  0  0  0  0  0  0  0
   -6.7201    1.2901    1.5133 C   0  0  0  0  0  0  0  0  0  0  0  0
   -8.0186    0.6007    1.8198 C   0  0  0  0  0  0  0  0  0  0  0  0
   -8.7975    0.3628    0.5614 C   0  0  2  0  0  0  0  0  0  0  0  0
   -9.1747    1.6566   -0.0545 C   0  0  0  0  0  0  0  0  0  0  0  0
   -9.9629   -0.5667    0.8727 C   0  0  1  0  0  0  0  0  0  0  0  0
  -10.9366   -0.7110   -0.2278 C   0  0  0  0  0  0  0  0  0  0  0  0
  -11.1140   -1.7801   -1.0148 C   0  0  0  0  0  0  0  0  0  0  0  0
  -12.1649   -1.5067   -1.9616 C   0  0  0  0  0  0  0  0  0  0  0  0
  -12.5531   -2.3351   -2.8318 O   0  0  0  0  0  0  0  0  0  0  0  0
  -12.6376   -0.2304   -1.7417 O   0  0  0  0  0  0  0  0  0  0  0  0
  -11.9731    0.2784   -0.6013 C   0  0  0  0  0  0  0  0  0  0  0  0
   -9.2272   -1.8881    1.1242 C   0  0  0  0  0  0  0  0  0  0  0  0
   -8.0133   -1.8638    0.2287 C   0  0  0  0  0  0  0  0  0  0  0  0
   -8.0170   -0.5085   -0.4015 C   0  0  1  0  0  0  0  0  0  0  0  0
   -8.7087   -0.5499   -1.6012 O   0  0  0  0  0  0  0  0  0  0  0  0
   -6.6374    0.0528   -0.6616 C   0  0  2  0  0  0  0  0  0  0  0  0
   -5.8213   -0.8932   -1.4762 C   0  0  0  0  0  0  0  0  0  0  0  0
   -4.5284   -1.2852   -0.8464 C   0  0  0  0  0  0  0  0  0  0  0  0
   -3.7243   -0.1026   -0.3594 C   0  0  2  0  0  0  0  0  0  0  0  0
   -2.7482   -0.5805    0.7046 C   0  0  0  0  0  0  0  0  0  0  0  0
    1.0364    1.7049   -0.4961 O   0  0  0  0  0  0  0  0  0  0  0  0
    2.2790    1.4382    0.0430 C   0  0  2  0  0  0  0  0  0  0  0  0
    3.1341    2.6597   -0.0814 C   0  0  0  0  0  0  0  0  0  0  0  0
    5.6827   -1.5398    0.0569 O   0  0  0  0  0  0  0  0  0  0  0  0
    7.0172   -1.5441   -0.2768 C   0  0  2  0  0  0  0  0  0  0  0  0
    7.5908   -2.9435   -0.3404 C   0  0  0  0  0  0  0  0  0  0  0  0
   11.0296   -1.8736    0.3687 C   0  0  0  0  0  0  0  0  0  0  0  0
   11.8082   -1.4226   -0.8642 C   0  0  2  0  0  0  0  0  0  0  0  0
   13.1172   -1.8526   -0.7342 O   0  0  0  0  0  0  0  0  0  0  0  0
   11.8362    0.1075   -0.8716 C   0  0  2  0  0  0  0  0  0  0  0  0
   12.8389    0.5911   -1.7203 O   0  0  0  0  0  0  0  0  0  0  0  0
   11.7537    2.7294    0.2882 H   0  0  0  0  0  0  0  0  0  0  0  0
   13.3967    2.0819   -0.0472 H   0  0  0  0  0  0  0  0  0  0  0  0
   12.8577    2.2133    1.6494 H   0  0  0  0  0  0  0  0  0  0  0  0
   12.8775   -0.0595    0.9462 H   0  0  0  0  0  0  0  0  0  0  0  0
    9.6699   -1.1262    1.8016 H   0  0  0  0  0  0  0  0  0  0  0  0
    8.0085   -1.0904    1.5386 H   0  0  0  0  0  0  0  0  0  0  0  0
    7.8837    1.2888    1.5291 H   0  0  0  0  0  0  0  0  0  0  0  0
    7.2494    2.4529   -0.1700 H   0  0  0  0  0  0  0  0  0  0  0  0
    5.7657    0.1037    2.2687 H   0  0  0  0  0  0  0  0  0  0  0  0
    5.3826    1.5315    1.3149 H   0  0  0  0  0  0  0  0  0  0  0  0
    5.2941    0.2254   -0.7703 H   0  0  0  0  0  0  0  0  0  0  0  0
    3.6057    0.6126   -1.3922 H   0  0  0  0  0  0  0  0  0  0  0  0
    2.5118   -1.3340   -1.9307 H   0  0  0  0  0  0  0  0  0  0  0  0
    1.9818   -2.6901   -0.3086 H   0  0  0  0  0  0  0  0  0  0  0  0
    0.6311    0.1010   -2.3715 H   0  0  0  0  0  0  0  0  0  0  0  0
    0.0579   -1.3145   -1.4070 H   0  0  0  0  0  0  0  0  0  0  0  0
    0.5785    0.1344    0.6879 H   0  0  0  0  0  0  0  0  0  0  0  0
   -0.9467    0.1445    1.6158 H   0  0  0  0  0  0  0  0  0  0  0  0
   -2.2352    2.6464    0.7453 H   0  0  0  0  0  0  0  0  0  0  0  0
   -2.0635    2.0287    2.3867 H   0  0  0  0  0  0  0  0  0  0  0  0
   -4.3609    2.5675    1.6606 H   0  0  0  0  0  0  0  0  0  0  0  0
   -4.1157    0.9763    2.4147 H   0  0  0  0  0  0  0  0  0  0  0  0
   -5.6052    2.6699   -0.7041 H   0  0  0  0  0  0  0  0  0  0  0  0
   -3.7900    2.7616   -0.5968 H   0  0  0  0  0  0  0  0  0  0  0  0
   -4.5107    1.6762   -1.8036 H   0  0  0  0  0  0  0  0  0  0  0  0
   -5.7257   -0.5451    1.1738 H   0  0  0  0  0  0  0  0  0  0  0  0
   -6.1500    1.2928    2.4851 H   0  0  0  0  0  0  0  0  0  0  0  0
   -6.7982    2.3282    1.1975 H   0  0  0  0  0  0  0  0  0  0  0  0
   -7.7191   -0.3926    2.2743 H   0  0  0  0  0  0  0  0  0  0  0  0
   -8.6448    1.1753    2.5380 H   0  0  0  0  0  0  0  0  0  0  0  0
   -8.2216    2.2679   -0.1284 H   0  0  0  0  0  0  0  0  0  0  0  0
   -9.4454    1.5267   -1.1383 H   0  0  0  0  0  0  0  0  0  0  0  0
   -9.9298    2.1947    0.5294 H   0  0  0  0  0  0  0  0  0  0  0  0
  -10.4379   -0.2742    1.8146 H   0  0  0  0  0  0  0  0  0  0  0  0
  -10.5149   -2.6889   -0.9079 H   0  0  0  0  0  0  0  0  0  0  0  0
  -11.6655    1.3061   -0.7059 H   0  0  0  0  0  0  0  0  0  0  0  0
  -12.7439    0.2017    0.2371 H   0  0  0  0  0  0  0  0  0  0  0  0
   -8.9035   -1.9786    2.1889 H   0  0  0  0  0  0  0  0  0  0  0  0
   -9.9331   -2.6929    0.9459 H   0  0  0  0  0  0  0  0  0  0  0  0
   -7.0964   -2.0611    0.8339 H   0  0  0  0  0  0  0  0  0  0  0  0
   -8.1466   -2.6832   -0.5215 H   0  0  0  0  0  0  0  0  0  0  0  0
   -8.3252    0.1472   -2.2001 H   0  0  0  0  0  0  0  0  0  0  0  0
   -6.7730    0.9809   -1.2614 H   0  0  0  0  0  0  0  0  0  0  0  0
   -5.6290   -0.5109   -2.5217 H   0  0  0  0  0  0  0  0  0  0  0  0
   -6.3938   -1.8461   -1.6611 H   0  0  0  0  0  0  0  0  0  0  0  0
   -3.9038   -1.7984   -1.6261 H   0  0  0  0  0  0  0  0  0  0  0  0
   -4.6701   -2.0548   -0.0568 H   0  0  0  0  0  0  0  0  0  0  0  0
   -3.0852    0.2810   -1.1997 H   0  0  0  0  0  0  0  0  0  0  0  0
   -3.2713   -0.7460    1.6613 H   0  0  0  0  0  0  0  0  0  0  0  0
   -2.2736   -1.5452    0.4281 H   0  0  0  0  0  0  0  0  0  0  0  0
    2.1047    1.2115    1.1274 H   0  0  0  0  0  0  0  0  0  0  0  0
    4.0056    2.4799   -0.7475 H   0  0  0  0  0  0  0  0  0  0  0  0
    2.5448    3.4848   -0.5186 H   0  0  0  0  0  0  0  0  0  0  0  0
    3.4534    2.9986    0.9276 H   0  0  0  0  0  0  0  0  0  0  0  0
    7.0569   -1.1609   -1.3422 H   0  0  0  0  0  0  0  0  0  0  0  0
    8.3652   -3.0471   -1.1501 H   0  0  0  0  0  0  0  0  0  0  0  0
    8.1056   -3.1411    0.5980 H   0  0  0  0  0  0  0  0  0  0  0  0
    6.8121   -3.6941   -0.6057 H   0  0  0  0  0  0  0  0  0  0  0  0
   11.7709   -2.1743    1.1268 H   0  0  0  0  0  0  0  0  0  0  0  0
   10.4567   -2.7688    0.0838 H   0  0  0  0  0  0  0  0  0  0  0  0
   11.4056   -1.7733   -1.8062 H   0  0  0  0  0  0  0  0  0  0  0  0
   13.6634   -1.3245   -1.3919 H   0  0  0  0  0  0  0  0  0  0  0  0
   10.8746    0.5086   -1.2460 H   0  0  0  0  0  0  0  0  0  0  0  0
   12.4841    1.2359   -2.3782 H   0  0  0  0  0  0  0  0  0  0  0  0
  1  2  1  0
  2  3  1  0
  3  4  1  0
  4  5  1  0
  5  6  1  0
  6  7  1  0
  7  8  1  0
  7  9  1  0
  9 10  1  0
 10 11  1  0
 11 12  1  0
 12 13  1  0
 13 14  1  0
 13 15  1  0
 15 16  1  0
 16 17  1  0
 17 18  1  0
 18 19  1  0
 19 20  1  0
 20 21  1  0
 21 22  1  6
 21 23  1  0
 23 24  1  0
 24 25  1  0
 25 26  1  0
 26 27  1  6
 26 28  1  0
 28 29  1  0
 29 30  2  0
 30 31  1  0
 31 32  2  0
 31 33  1  0
 33 34  1  0
 28 35  1  0
 35 36  1  0
 36 37  1  0
 37 38  1  6
 37 39  1  0
 39 40  1  0
 40 41  1  0
 41 42  1  0
 42 43  1  0
 16 44  1  0
 44 45  1  0
 45 46  1  0
 10 47  1  0
 47 48  1  0
 48 49  1  0
  4 50  1  0
 50 51  1  0
 51 52  1  0
 51 53  1  0
 53 54  1  0
 53  2  1  0
 48  6  1  0
 45 12  1  0
 43 18  1  0
 42 21  1  0
 39 23  1  0
 37 26  1  0
 34 29  1  0
  1 55  1  0
  1 56  1  0
  1 57  1  0
  2 58  1  1
  4 59  1  1
  6 60  1  1
  7 61  1  1
  8 62  1  0
  9 63  1  0
  9 64  1  0
 10 65  1  6
 12 66  1  6
 13 67  1  6
 14 68  1  0
 15 69  1  0
 15 70  1  0
 16 71  1  1
 18 72  1  1
 19 73  1  0
 19 74  1  0
 20 75  1  0
 20 76  1  0
 22 77  1  0
 22 78  1  0
 22 79  1  0
 23 80  1  1
 24 81  1  0
 24 82  1  0
 25 83  1  0
 25 84  1  0
 27 85  1  0
 27 86  1  0
 27 87  1  0
 28 88  1  1
 30 89  1  0
 34 90  1  0
 34 91  1  0
 35 92  1  0
 35 93  1  0
 36 94  1  0
 36 95  1  0
 38 96  1  0
 39 97  1  6
 40 98  1  0
 40 99  1  0
 41100  1  0
 41101  1  0
 42102  1  6
 43103  1  0
 43104  1  0
 45105  1  1
 46106  1  0
 46107  1  0
 46108  1  0
 48109  1  6
 49110  1  0
 49111  1  0
 49112  1  0
 50113  1  0
 50114  1  0
 51115  1  6
 52116  1  0
 53117  1  6
 54118  1  0
M  END
$$$$
