@<TRIPOS>MOLECULE
*****
 118 125 0 0 0
SMALL
GASTEIGER

@<TRIPOS>ATOM
      1 C          12.5229    1.9952    0.6151 C.3     1  UNL1       -0.0361
      2 C          12.0188    0.5601    0.5373 C.3     1  UNL1        0.0871
      3 O          10.8897    0.3651    1.2808 O.3     1  UNL1       -0.3456
      4 C          10.1761   -0.7262    0.8704 C.3     1  UNL1        0.1626
      5 O           9.1321   -0.4010    0.0107 O.3     1  UNL1       -0.3429
      6 C           7.8808   -0.6400    0.5202 C.3     1  UNL1        0.1134
      7 C           7.2577    0.7144    0.7937 C.3     1  UNL1        0.0884
      8 O           7.2471    1.4644   -0.3819 O.3     1  UNL1       -0.3890
      9 C           5.8480    0.5398    1.2521 C.3     1  UNL1        0.0270
     10 C           5.1373   -0.2762    0.2088 C.3     1  UNL1        0.1626
     11 O           3.7882   -0.2917    0.4519 O.3     1  UNL1       -0.3429
     12 C           2.9874    0.2534   -0.5358 C.3     1  UNL1        0.1134
     13 C           2.0917   -0.8447   -1.0281 C.3     1  UNL1        0.0884
     14 O           1.9457   -1.7778    0.0256 O.3     1  UNL1       -0.3890
     15 C           0.6918   -0.4099   -1.3665 C.3     1  UNL1        0.0270
     16 C           0.2452    0.5531   -0.2883 C.3     1  UNL1        0.1624
     17 O          -1.1025    0.8211   -0.3313 O.3     1  UNL1       -0.3480
     18 C          -1.7210    0.5128    0.9009 C.3     1  UNL1        0.0620
     19 C          -2.4402    1.7342    1.3677 C.3     1  UNL1       -0.0260
     20 C          -3.9158    1.5660    1.4960 C.3     1  UNL1       -0.0448
     21 C          -4.5756    0.9807    0.2645 C.3     1  UNL1       -0.0259
     22 C          -4.6630    2.0916   -0.7650 C.3     1  UNL1       -0.0590
     23 C          -5.9145    0.3997    0.5921 C.3     1  UNL1       -0.0299
     24 C          -6.7201    1.2901    1.5133 C.3     1  UNL1       -0.0488
     25 C          -8.0186    0.6007    1.8198 C.3     1  UNL1       -0.0442
     26 C          -8.7975    0.3628    0.5614 C.3     1  UNL1        0.0036
     27 C          -9.1747    1.6566   -0.0545 C.3     1  UNL1       -0.0564
     28 C          -9.9629   -0.5667    0.8727 C.3     1  UNL1       -0.0081
     29 C         -10.9366   -0.7110   -0.2278 C.2     1  UNL1       -0.0222
     30 C         -11.1140   -1.7801   -1.0148 C.2     1  UNL1        0.0252
     31 C         -12.1649   -1.5067   -1.9616 C.2     1  UNL1        0.3323
     32 O         -12.5531   -2.3351   -2.8318 O.2     1  UNL1       -0.2456
     33 O         -12.6376   -0.2304   -1.7417 O.3     1  UNL1       -0.4571
     34 C         -11.9731    0.2784   -0.6013 C.3     1  UNL1        0.1147
     35 C          -9.2272   -1.8881    1.1242 C.3     1  UNL1       -0.0432
     36 C          -8.0133   -1.8638    0.2287 C.3     1  UNL1       -0.0226
     37 C          -8.0170   -0.5085   -0.4015 C.3     1  UNL1        0.0751
     38 O          -8.7087   -0.5499   -1.6012 O.3     1  UNL1       -0.3877
     39 C          -6.6374    0.0528   -0.6616 C.3     1  UNL1       -0.0083
     40 C          -5.8213   -0.8932   -1.4762 C.3     1  UNL1       -0.0470
     41 C          -4.5284   -1.2852   -0.8464 C.3     1  UNL1       -0.0493
     42 C          -3.7243   -0.1026   -0.3594 C.3     1  UNL1       -0.0330
     43 C          -2.7482   -0.5805    0.7046 C.3     1  UNL1       -0.0232
     44 O           1.0364    1.7049   -0.4961 O.3     1  UNL1       -0.3456
     45 C           2.2790    1.4382    0.0430 C.3     1  UNL1        0.0875
     46 C           3.1341    2.6597   -0.0814 C.3     1  UNL1       -0.0361
     47 O           5.6827   -1.5398    0.0569 O.3     1  UNL1       -0.3456
     48 C           7.0172   -1.5441   -0.2768 C.3     1  UNL1        0.0875
     49 C           7.5908   -2.9435   -0.3404 C.3     1  UNL1       -0.0361
     50 C          11.0296   -1.8736    0.3687 C.3     1  UNL1        0.0270
     51 C          11.8082   -1.4226   -0.8642 C.3     1  UNL1        0.0881
     52 O          13.1172   -1.8526   -0.7342 O.3     1  UNL1       -0.3890
     53 C          11.8362    0.1075   -0.8716 C.3     1  UNL1        0.1070
     54 O          12.8389    0.5911   -1.7203 O.3     1  UNL1       -0.3867
     55 H          11.7537    2.7294    0.2882 H       1  UNL1        0.0255
     56 H          13.3967    2.0819   -0.0472 H       1  UNL1        0.0255
     57 H          12.8577    2.2133    1.6494 H       1  UNL1        0.0255
     58 H          12.8775   -0.0595    0.9462 H       1  UNL1        0.0621
     59 H           9.6699   -1.1262    1.8016 H       1  UNL1        0.0910
     60 H           8.0085   -1.0904    1.5386 H       1  UNL1        0.0649
     61 H           7.8837    1.2888    1.5291 H       1  UNL1        0.0622
     62 H           7.2494    2.4529   -0.1700 H       1  UNL1        0.2099
     63 H           5.7657    0.1037    2.2687 H       1  UNL1        0.0340
     64 H           5.3826    1.5315    1.3149 H       1  UNL1        0.0340
     65 H           5.2941    0.2254   -0.7703 H       1  UNL1        0.0910
     66 H           3.6057    0.6126   -1.3922 H       1  UNL1        0.0649
     67 H           2.5118   -1.3340   -1.9307 H       1  UNL1        0.0622
     68 H           1.9818   -2.6901   -0.3086 H       1  UNL1        0.2099
     69 H           0.6311    0.1010   -2.3715 H       1  UNL1        0.0340
     70 H           0.0579   -1.3145   -1.4070 H       1  UNL1        0.0340
     71 H           0.5785    0.1344    0.6879 H       1  UNL1        0.0910
     72 H          -0.9467    0.1445    1.6158 H       1  UNL1        0.0597
     73 H          -2.2352    2.6464    0.7453 H       1  UNL1        0.0290
     74 H          -2.0635    2.0287    2.3867 H       1  UNL1        0.0290
     75 H          -4.3609    2.5675    1.6606 H       1  UNL1        0.0271
     76 H          -4.1157    0.9763    2.4147 H       1  UNL1        0.0271
     77 H          -5.6052    2.6699   -0.7041 H       1  UNL1        0.0235
     78 H          -3.7900    2.7616   -0.5968 H       1  UNL1        0.0235
     79 H          -4.5107    1.6762   -1.8036 H       1  UNL1        0.0235
     80 H          -5.7257   -0.5451    1.1738 H       1  UNL1        0.0310
     81 H          -6.1500    1.2928    2.4851 H       1  UNL1        0.0268
     82 H          -6.7982    2.3282    1.1975 H       1  UNL1        0.0268
     83 H          -7.7191   -0.3926    2.2743 H       1  UNL1        0.0272
     84 H          -8.6448    1.1753    2.5380 H       1  UNL1        0.0272
     85 H          -8.2216    2.2679   -0.1284 H       1  UNL1        0.0236
     86 H          -9.4454    1.5267   -1.1383 H       1  UNL1        0.0236
     87 H          -9.9298    2.1947    0.5294 H       1  UNL1        0.0236
     88 H         -10.4379   -0.2742    1.8146 H       1  UNL1        0.0353
     89 H         -10.5149   -2.6889   -0.9079 H       1  UNL1        0.0689
     90 H         -11.6655    1.3061   -0.7059 H       1  UNL1        0.0746
     91 H         -12.7439    0.2017    0.2371 H       1  UNL1        0.0746
     92 H          -8.9035   -1.9786    2.1889 H       1  UNL1        0.0272
     93 H          -9.9331   -2.6929    0.9459 H       1  UNL1        0.0272
     94 H          -7.0964   -2.0611    0.8339 H       1  UNL1        0.0293
     95 H          -8.1466   -2.6832   -0.5215 H       1  UNL1        0.0293
     96 H          -8.3252    0.1472   -2.2001 H       1  UNL1        0.2102
     97 H          -6.7730    0.9809   -1.2614 H       1  UNL1        0.0331
     98 H          -5.6290   -0.5109   -2.5217 H       1  UNL1        0.0269
     99 H          -6.3938   -1.8461   -1.6611 H       1  UNL1        0.0269
    100 H          -3.9038   -1.7984   -1.6261 H       1  UNL1        0.0268
    101 H          -4.6701   -2.0548   -0.0568 H       1  UNL1        0.0268
    102 H          -3.0852    0.2810   -1.1997 H       1  UNL1        0.0307
    103 H          -3.2713   -0.7460    1.6613 H       1  UNL1        0.0293
    104 H          -2.2736   -1.5452    0.4281 H       1  UNL1        0.0293
    105 H           2.1047    1.2115    1.1274 H       1  UNL1        0.0621
    106 H           4.0056    2.4799   -0.7475 H       1  UNL1        0.0255
    107 H           2.5448    3.4848   -0.5186 H       1  UNL1        0.0255
    108 H           3.4534    2.9986    0.9276 H       1  UNL1        0.0255
    109 H           7.0569   -1.1609   -1.3422 H       1  UNL1        0.0621
    110 H           8.3652   -3.0471   -1.1501 H       1  UNL1        0.0255
    111 H           8.1056   -3.1411    0.5980 H       1  UNL1        0.0255
    112 H           6.8121   -3.6941   -0.6057 H       1  UNL1        0.0255
    113 H          11.7709   -2.1743    1.1268 H       1  UNL1        0.0340
    114 H          10.4567   -2.7688    0.0838 H       1  UNL1        0.0340
    115 H          11.4056   -1.7733   -1.8062 H       1  UNL1        0.0621
    116 H          13.6634   -1.3245   -1.3919 H       1  UNL1        0.2099
    117 H          10.8746    0.5086   -1.2460 H       1  UNL1        0.0645
    118 H          12.4841    1.2359   -2.3782 H       1  UNL1        0.2100
@<TRIPOS>BOND
     1     1     2    1
     2     2     3    1
     3     3     4    1
     4     4     5    1
     5     5     6    1
     6     6     7    1
     7     7     8    1
     8     7     9    1
     9     9    10    1
    10    10    11    1
    11    11    12    1
    12    12    13    1
    13    13    14    1
    14    13    15    1
    15    15    16    1
    16    16    17    1
    17    17    18    1
    18    18    19    1
    19    19    20    1
    20    20    21    1
    21    21    22    1
    22    21    23    1
    23    23    24    1
    24    24    25    1
    25    25    26    1
    26    26    27    1
    27    26    28    1
    28    28    29    1
    29    29    30    2
    30    30    31    1
    31    31    32    2
    32    31    33    1
    33    33    34    1
    34    28    35    1
    35    35    36    1
    36    36    37    1
    37    37    38    1
    38    37    39    1
    39    39    40    1
    40    40    41    1
    41    41    42    1
    42    42    43    1
    43    16    44    1
    44    44    45    1
    45    45    46    1
    46    10    47    1
    47    47    48    1
    48    48    49    1
    49     4    50    1
    50    50    51    1
    51    51    52    1
    52    51    53    1
    53    53    54    1
    54    53     2    1
    55    48     6    1
    56    45    12    1
    57    43    18    1
    58    42    21    1
    59    39    23    1
    60    37    26    1
    61    34    29    1
    62     1    55    1
    63     1    56    1
    64     1    57    1
    65     2    58    1
    66     4    59    1
    67     6    60    1
    68     7    61    1
    69     8    62    1
    70     9    63    1
    71     9    64    1
    72    10    65    1
    73    12    66    1
    74    13    67    1
    75    14    68    1
    76    15    69    1
    77    15    70    1
    78    16    71    1
    79    18    72    1
    80    19    73    1
    81    19    74    1
    82    20    75    1
    83    20    76    1
    84    22    77    1
    85    22    78    1
    86    22    79    1
    87    23    80    1
    88    24    81    1
    89    24    82    1
    90    25    83    1
    91    25    84    1
    92    27    85    1
    93    27    86    1
    94    27    87    1
    95    28    88    1
    96    30    89    1
    97    34    90    1
    98    34    91    1
    99    35    92    1
   100    35    93    1
   101    36    94    1
   102    36    95    1
   103    38    96    1
   104    39    97    1
   105    40    98    1
   106    40    99    1
   107    41   100    1
   108    41   101    1
   109    42   102    1
   110    43   103    1
   111    43   104    1
   112    45   105    1
   113    46   106    1
   114    46   107    1
   115    46   108    1
   116    48   109    1
   117    49   110    1
   118    49   111    1
   119    49   112    1
   120    50   113    1
   121    50   114    1
   122    51   115    1
   123    52   116    1
   124    53   117    1
   125    54   118    1
