
     RDKit          3D

 46 50  0  0  0  0  0  0  0  0999 V2000
   -2.1855   -1.7681   -1.1564 C   0  0  0  0  0  0  0  0  0  0  0  0
   -2.2289   -1.1547    0.2486 C   0  0  2  0  0  0  0  0  0  0  0  0
   -3.6080   -1.4632    0.8504 C   0  0  0  0  0  0  0  0  0  0  0  0
   -4.4942   -0.2772    0.6545 C   0  0  0  0  0  0  0  0  0  0  0  0
   -4.2236    0.5002   -0.5957 C   0  0  0  0  0  0  0  0  0  0  0  0
   -2.8971    0.8414   -0.7599 O   0  0  0  0  0  0  0  0  0  0  0  0
   -2.0844    0.3237    0.2465 C   0  0  2  0  0  0  0  0  0  0  0  0
   -0.6789    0.8393    0.0869 C   0  0  1  0  0  0  0  0  0  0  0  0
   -0.5208    1.3173   -1.3448 C   0  0  0  0  0  0  0  0  0  0  0  0
   -0.8535    3.1063   -1.0587 S   0  0  0  0  0  0  0  0  0  0  0  0
   -0.4110    3.0628    0.6710 C   0  0  0  0  0  0  0  0  0  0  0  0
   -0.1409    4.1862    1.4914 N   0  0  0  0  0  0  0  0  0  0  0  0
   -0.3901    1.8647    0.9976 N   0  0  0  0  0  0  0  0  0  0  0  0
    0.3495   -0.2225    0.2676 C   0  0  0  0  0  0  0  0  0  0  0  0
    1.6592    0.1090   -0.0321 C   0  0  0  0  0  0  0  0  0  0  0  0
    2.6982   -0.7940    0.0984 C   0  0  0  0  0  0  0  0  0  0  0  0
    4.0875   -0.4836   -0.2068 C   0  0  0  0  0  0  0  0  0  0  0  0
    4.9899   -1.3996   -0.6731 C   0  0  0  0  0  0  0  0  0  0  0  0
    6.2632   -1.0087   -0.9278 N   0  0  0  0  0  0  0  0  0  0  0  0
    6.6897    0.2508   -0.7428 C   0  0  0  0  0  0  0  0  0  0  0  0
    5.8030    1.1527   -0.2843 N   0  0  0  0  0  0  0  0  0  0  0  0
    4.5186    0.8159   -0.0136 C   0  0  0  0  0  0  0  0  0  0  0  0
    2.4001   -2.0617    0.5432 C   0  0  0  0  0  0  0  0  0  0  0  0
    1.1059   -2.4456    0.8572 C   0  0  0  0  0  0  0  0  0  0  0  0
    0.0917   -1.4961    0.7082 C   0  0  0  0  0  0  0  0  0  0  0  0
   -1.2279   -1.8097    1.0039 O   0  0  0  0  0  0  0  0  0  0  0  0
   -1.1443   -2.0226   -1.4455 H   0  0  0  0  0  0  0  0  0  0  0  0
   -2.7437   -2.7264   -1.1198 H   0  0  0  0  0  0  0  0  0  0  0  0
   -2.5752   -1.0742   -1.9133 H   0  0  0  0  0  0  0  0  0  0  0  0
   -4.0228   -2.3934    0.4124 H   0  0  0  0  0  0  0  0  0  0  0  0
   -3.4581   -1.6202    1.9297 H   0  0  0  0  0  0  0  0  0  0  0  0
   -4.4927    0.4237    1.5133 H   0  0  0  0  0  0  0  0  0  0  0  0
   -5.5498   -0.6646    0.5706 H   0  0  0  0  0  0  0  0  0  0  0  0
   -4.7903    1.4722   -0.4972 H   0  0  0  0  0  0  0  0  0  0  0  0
   -4.6769   -0.0175   -1.4481 H   0  0  0  0  0  0  0  0  0  0  0  0
   -2.4760    0.7108    1.2116 H   0  0  0  0  0  0  0  0  0  0  0  0
   -1.3347    0.9727   -2.0066 H   0  0  0  0  0  0  0  0  0  0  0  0
    0.4597    1.1467   -1.7748 H   0  0  0  0  0  0  0  0  0  0  0  0
   -0.5766    5.1018    1.2601 H   0  0  0  0  0  0  0  0  0  0  0  0
    0.4794    4.1432    2.3257 H   0  0  0  0  0  0  0  0  0  0  0  0
    1.9455    1.0972   -0.3859 H   0  0  0  0  0  0  0  0  0  0  0  0
    4.6563   -2.4113   -0.8240 H   0  0  0  0  0  0  0  0  0  0  0  0
    7.7236    0.5399   -0.9564 H   0  0  0  0  0  0  0  0  0  0  0  0
    3.8232    1.5620    0.3552 H   0  0  0  0  0  0  0  0  0  0  0  0
    3.1847   -2.7853    0.6549 H   0  0  0  0  0  0  0  0  0  0  0  0
    0.8570   -3.4405    1.2086 H   0  0  0  0  0  0  0  0  0  0  0  0
  2  1  1  6
  2  3  1  0
  3  4  1  0
  4  5  1  0
  5  6  1  0
  6  7  1  0
  7  8  1  0
  8  9  1  6
  9 10  1  0
 10 11  1  0
 11 12  1  0
 11 13  2  0
  8 14  1  0
 14 15  2  0
 15 16  1  0
 16 17  1  0
 17 18  2  0
 18 19  1  0
 19 20  2  0
 20 21  1  0
 21 22  2  0
 16 23  2  0
 23 24  1  0
 24 25  2  0
 25 26  1  0
  7  2  1  0
 13  8  1  0
 25 14  1  0
 26  2  1  0
 22 17  1  0
  1 27  1  0
  1 28  1  0
  1 29  1  0
  3 30  1  0
  3 31  1  0
  4 32  1  0
  4 33  1  0
  5 34  1  0
  5 35  1  0
  7 36  1  1
  9 37  1  0
  9 38  1  0
 12 39  1  0
 12 40  1  0
 15 41  1  0
 18 42  1  0
 20 43  1  0
 22 44  1  0
 23 45  1  0
 24 46  1  0
M  END
$$$$
