@<TRIPOS>MOLECULE
*****
 46 50 0 0 0
SMALL
GASTEIGER

@<TRIPOS>ATOM
      1 C          -2.1855   -1.7681   -1.1564 C.3     1  UNL1       -0.0224
      2 C          -2.2289   -1.1547    0.2486 C.3     1  UNL1        0.1364
      3 C          -3.6080   -1.4632    0.8504 C.3     1  UNL1       -0.0085
      4 C          -4.4942   -0.2772    0.6545 C.3     1  UNL1       -0.0258
      5 C          -4.2236    0.5002   -0.5957 C.3     1  UNL1        0.0484
      6 O          -2.8971    0.8414   -0.7599 O.3     1  UNL1       -0.3698
      7 C          -2.0844    0.3237    0.2465 C.3     1  UNL1        0.1279
      8 C          -0.6789    0.8393    0.0869 C.3     1  UNL1        0.1314
      9 C          -0.5208    1.3173   -1.3448 C.3     1  UNL1        0.0330
     10 S          -0.8535    3.1063   -1.0587 S.3     1  UNL1       -0.0883
     11 C          -0.4110    3.0628    0.6710 C.2     1  UNL1        0.1477
     12 N          -0.1409    4.1862    1.4914 N.pl3   1  UNL1       -0.3380
     13 N          -0.3901    1.8647    0.9976 N.2     1  UNL1       -0.2485
     14 C           0.3495   -0.2225    0.2676 C.ar    1  UNL1        0.0256
     15 C           1.6592    0.1090   -0.0321 C.ar    1  UNL1       -0.0449
     16 C           2.6982   -0.7940    0.0984 C.ar    1  UNL1       -0.0144
     17 C           4.0875   -0.4836   -0.2068 C.ar    1  UNL1        0.0183
     18 C           4.9899   -1.3996   -0.6731 C.ar    1  UNL1        0.0385
     19 N           6.2632   -1.0087   -0.9278 N.ar    1  UNL1       -0.2431
     20 C           6.6897    0.2508   -0.7428 C.ar    1  UNL1        0.1159
     21 N           5.8030    1.1527   -0.2843 N.ar    1  UNL1       -0.2431
     22 C           4.5186    0.8159   -0.0136 C.ar    1  UNL1        0.0385
     23 C           2.4001   -2.0617    0.5432 C.ar    1  UNL1       -0.0505
     24 C           1.1059   -2.4456    0.8572 C.ar    1  UNL1       -0.0190
     25 C           0.0917   -1.4961    0.7082 C.ar    1  UNL1        0.1270
     26 O          -1.2279   -1.8097    1.0039 O.3     1  UNL1       -0.4829
     27 H          -1.1443   -2.0226   -1.4455 H       1  UNL1        0.0269
     28 H          -2.7437   -2.7264   -1.1198 H       1  UNL1        0.0269
     29 H          -2.5752   -1.0742   -1.9133 H       1  UNL1        0.0269
     30 H          -4.0228   -2.3934    0.4124 H       1  UNL1        0.0305
     31 H          -3.4581   -1.6202    1.9297 H       1  UNL1        0.0305
     32 H          -4.4927    0.4237    1.5133 H       1  UNL1        0.0289
     33 H          -5.5498   -0.6646    0.5706 H       1  UNL1        0.0289
     34 H          -4.7903    1.4722   -0.4972 H       1  UNL1        0.0560
     35 H          -4.6769   -0.0175   -1.4481 H       1  UNL1        0.0560
     36 H          -2.4760    0.7108    1.2116 H       1  UNL1        0.0664
     37 H          -1.3347    0.9727   -2.0066 H       1  UNL1        0.0408
     38 H           0.4597    1.1467   -1.7748 H       1  UNL1        0.0408
     39 H          -0.5766    5.1018    1.2601 H       1  UNL1        0.1442
     40 H           0.4794    4.1432    2.3257 H       1  UNL1        0.1442
     41 H           1.9455    1.0972   -0.3859 H       1  UNL1        0.0628
     42 H           4.6563   -2.4113   -0.8240 H       1  UNL1        0.0837
     43 H           7.7236    0.5399   -0.9564 H       1  UNL1        0.1047
     44 H           3.8232    1.5620    0.3552 H       1  UNL1        0.0837
     45 H           3.1847   -2.7853    0.6549 H       1  UNL1        0.0625
     46 H           0.8570   -3.4405    1.2086 H       1  UNL1        0.0654
@<TRIPOS>BOND
     1     2     1    1
     2     2     3    1
     3     3     4    1
     4     4     5    1
     5     5     6    1
     6     6     7    1
     7     7     8    1
     8     8     9    1
     9     9    10    1
    10    10    11    1
    11    11    12    1
    12    11    13    2
    13     8    14    1
    14    14    15   ar
    15    15    16   ar
    16    16    17    1
    17    17    18   ar
    18    18    19   ar
    19    19    20   ar
    20    20    21   ar
    21    21    22   ar
    22    16    23   ar
    23    23    24   ar
    24    24    25   ar
    25    25    26    1
    26     7     2    1
    27    13     8    1
    28    25    14   ar
    29    26     2    1
    30    22    17   ar
    31     1    27    1
    32     1    28    1
    33     1    29    1
    34     3    30    1
    35     3    31    1
    36     4    32    1
    37     4    33    1
    38     5    34    1
    39     5    35    1
    40     7    36    1
    41     9    37    1
    42     9    38    1
    43    12    39    1
    44    12    40    1
    45    15    41    1
    46    18    42    1
    47    20    43    1
    48    22    44    1
    49    23    45    1
    50    24    46    1
