@<TRIPOS>MOLECULE
*****
 53 56 0 0 0
SMALL
GASTEIGER

@<TRIPOS>ATOM
      1 O           8.3251    1.1991    1.4946 O.2     1  UNL1       -0.2687
      2 C           8.1822    0.6559    0.3568 C.2     1  UNL1        0.2593
      3 C           6.8135    0.2523   -0.0312 C.2     1  UNL1        0.0027
      4 C           5.7890    0.4610    0.7729 C.2     1  UNL1       -0.0496
      5 C           4.4099    0.1045    0.4891 C.ar    1  UNL1       -0.0249
      6 C           3.4459    0.4103    1.4214 C.ar    1  UNL1       -0.0543
      7 C           2.1355    0.0701    1.1490 C.ar    1  UNL1       -0.0568
      8 C           1.7760   -0.5559   -0.0122 C.ar    1  UNL1       -0.0335
      9 C           0.3184   -0.9036   -0.2562 C.3     1  UNL1        0.0213
     10 N          -0.2962    0.1636   -0.9208 N.3     1  UNL1       -0.3115
     11 C          -1.5496    0.1228   -1.4855 C.3     1  UNL1        0.0019
     12 C          -2.8118    0.0749   -0.7152 C.3     1  UNL1       -0.0160
     13 C          -3.9597    0.0602   -1.7620 C.3     1  UNL1       -0.0433
     14 C          -5.3017   -0.0093   -1.1306 C.3     1  UNL1       -0.0400
     15 C          -5.5000    1.1306   -0.1899 C.3     1  UNL1       -0.0473
     16 C          -4.4059    1.0601    0.8535 C.3     1  UNL1       -0.0400
     17 C          -4.4841   -0.2198    1.6342 C.3     1  UNL1       -0.0473
     18 C          -4.3474   -1.3750    0.6510 C.3     1  UNL1       -0.0400
     19 C          -5.4229   -1.3190   -0.3815 C.3     1  UNL1       -0.0473
     20 C          -2.9571   -1.2208    0.0290 C.3     1  UNL1       -0.0433
     21 C          -3.0598    1.2468    0.1641 C.3     1  UNL1       -0.0433
     22 C           2.7364   -0.8614   -0.9432 C.ar    1  UNL1       -0.0568
     23 C           4.0623   -0.5241   -0.6802 C.ar    1  UNL1       -0.0543
     24 N           9.2454    0.4274   -0.5301 N.am    1  UNL1       -0.1940
     25 O          10.5053    0.7843   -0.1991 O.3     1  UNL1       -0.2949
     26 H           6.6311   -0.2197   -0.9822 H       1  UNL1        0.0670
     27 H           6.0323    0.9413    1.7236 H       1  UNL1        0.0625
     28 H           3.7245    0.9101    2.3452 H       1  UNL1        0.0624
     29 H           1.3975    0.3318    1.9212 H       1  UNL1        0.0621
     30 H           0.3987   -1.8439   -0.8860 H       1  UNL1        0.0473
     31 H          -0.0428   -1.1476    0.7614 H       1  UNL1        0.0473
     32 H           0.1355    1.1033   -0.7698 H       1  UNL1        0.1223
     33 H          -1.6230    1.0040   -2.2231 H       1  UNL1        0.0430
     34 H          -1.5341   -0.7446   -2.2570 H       1  UNL1        0.0430
     35 H          -3.7935   -0.8571   -2.3577 H       1  UNL1        0.0274
     36 H          -3.8864    0.9795   -2.3906 H       1  UNL1        0.0274
     37 H          -6.0551    0.0308   -1.9424 H       1  UNL1        0.0301
     38 H          -5.3343    2.0808   -0.7584 H       1  UNL1        0.0271
     39 H          -6.4924    1.0450    0.2597 H       1  UNL1        0.0271
     40 H          -4.5085    1.9020    1.5759 H       1  UNL1        0.0301
     41 H          -5.4989   -0.2577    2.0883 H       1  UNL1        0.0271
     42 H          -3.6613   -0.2516    2.3728 H       1  UNL1        0.0271
     43 H          -4.3481   -2.3634    1.1577 H       1  UNL1        0.0301
     44 H          -5.2551   -2.1397   -1.1130 H       1  UNL1        0.0271
     45 H          -6.3972   -1.4345    0.0929 H       1  UNL1        0.0271
     46 H          -2.7917   -2.0446   -0.6997 H       1  UNL1        0.0274
     47 H          -2.2663   -1.3166    0.8976 H       1  UNL1        0.0274
     48 H          -3.1652    2.1630   -0.4661 H       1  UNL1        0.0274
     49 H          -2.3303    1.3594    0.9864 H       1  UNL1        0.0274
     50 H           2.4535   -1.3498   -1.8436 H       1  UNL1        0.0621
     51 H           4.7733   -0.7895   -1.4540 H       1  UNL1        0.0624
     52 H           9.1033   -0.0127   -1.4635 H       1  UNL1        0.1825
     53 H          10.6858    1.6870   -0.6061 H       1  UNL1        0.2414
@<TRIPOS>BOND
     1     1     2    2
     2     2     3    1
     3     3     4    2
     4     4     5    1
     5     5     6   ar
     6     6     7   ar
     7     7     8   ar
     8     8     9    1
     9     9    10    1
    10    10    11    1
    11    11    12    1
    12    12    13    1
    13    13    14    1
    14    14    15    1
    15    15    16    1
    16    16    17    1
    17    17    18    1
    18    18    19    1
    19    18    20    1
    20    16    21    1
    21     8    22   ar
    22    22    23   ar
    23     2    24   am
    24    24    25    1
    25    23     5   ar
    26    20    12    1
    27    21    12    1
    28    19    14    1
    29     3    26    1
    30     4    27    1
    31     6    28    1
    32     7    29    1
    33     9    30    1
    34     9    31    1
    35    10    32    1
    36    11    33    1
    37    11    34    1
    38    13    35    1
    39    13    36    1
    40    14    37    1
    41    15    38    1
    42    15    39    1
    43    16    40    1
    44    17    41    1
    45    17    42    1
    46    18    43    1
    47    19    44    1
    48    19    45    1
    49    20    46    1
    50    20    47    1
    51    21    48    1
    52    21    49    1
    53    22    50    1
    54    23    51    1
    55    24    52    1
    56    25    53    1
