
     RDKit          3D

 53 56  0  0  0  0  0  0  0  0999 V2000
    8.3251    1.1991    1.4946 O   0  0  0  0  0  0  0  0  0  0  0  0
    8.1822    0.6559    0.3568 C   0  0  0  0  0  0  0  0  0  0  0  0
    6.8135    0.2523   -0.0312 C   0  0  0  0  0  0  0  0  0  0  0  0
    5.7890    0.4610    0.7729 C   0  0  0  0  0  0  0  0  0  0  0  0
    4.4099    0.1045    0.4891 C   0  0  0  0  0  0  0  0  0  0  0  0
    3.4459    0.4103    1.4214 C   0  0  0  0  0  0  0  0  0  0  0  0
    2.1355    0.0701    1.1490 C   0  0  0  0  0  0  0  0  0  0  0  0
    1.7760   -0.5559   -0.0122 C   0  0  0  0  0  0  0  0  0  0  0  0
    0.3184   -0.9036   -0.2562 C   0  0  0  0  0  0  0  0  0  0  0  0
   -0.2962    0.1636   -0.9208 N   0  0  0  0  0  0  0  0  0  0  0  0
   -1.5496    0.1228   -1.4855 C   0  0  0  0  0  0  0  0  0  0  0  0
   -2.8118    0.0749   -0.7152 C   0  0  0  0  0  0  0  0  0  0  0  0
   -3.9597    0.0602   -1.7620 C   0  0  0  0  0  0  0  0  0  0  0  0
   -5.3017   -0.0093   -1.1306 C   0  0  0  0  0  0  0  0  0  0  0  0
   -5.5000    1.1306   -0.1899 C   0  0  0  0  0  0  0  0  0  0  0  0
   -4.4059    1.0601    0.8535 C   0  0  0  0  0  0  0  0  0  0  0  0
   -4.4841   -0.2198    1.6342 C   0  0  0  0  0  0  0  0  0  0  0  0
   -4.3474   -1.3750    0.6510 C   0  0  0  0  0  0  0  0  0  0  0  0
   -5.4229   -1.3190   -0.3815 C   0  0  0  0  0  0  0  0  0  0  0  0
   -2.9571   -1.2208    0.0290 C   0  0  0  0  0  0  0  0  0  0  0  0
   -3.0598    1.2468    0.1641 C   0  0  0  0  0  0  0  0  0  0  0  0
    2.7364   -0.8614   -0.9432 C   0  0  0  0  0  0  0  0  0  0  0  0
    4.0623   -0.5241   -0.6802 C   0  0  0  0  0  0  0  0  0  0  0  0
    9.2454    0.4274   -0.5301 N   0  0  0  0  0  0  0  0  0  0  0  0
   10.5053    0.7843   -0.1991 O   0  0  0  0  0  0  0  0  0  0  0  0
    6.6311   -0.2197   -0.9822 H   0  0  0  0  0  0  0  0  0  0  0  0
    6.0323    0.9413    1.7236 H   0  0  0  0  0  0  0  0  0  0  0  0
    3.7245    0.9101    2.3452 H   0  0  0  0  0  0  0  0  0  0  0  0
    1.3975    0.3318    1.9212 H   0  0  0  0  0  0  0  0  0  0  0  0
    0.3987   -1.8439   -0.8860 H   0  0  0  0  0  0  0  0  0  0  0  0
   -0.0428   -1.1476    0.7614 H   0  0  0  0  0  0  0  0  0  0  0  0
    0.1355    1.1033   -0.7698 H   0  0  0  0  0  0  0  0  0  0  0  0
   -1.6230    1.0040   -2.2231 H   0  0  0  0  0  0  0  0  0  0  0  0
   -1.5341   -0.7446   -2.2570 H   0  0  0  0  0  0  0  0  0  0  0  0
   -3.7935   -0.8571   -2.3577 H   0  0  0  0  0  0  0  0  0  0  0  0
   -3.8864    0.9795   -2.3906 H   0  0  0  0  0  0  0  0  0  0  0  0
   -6.0551    0.0308   -1.9424 H   0  0  0  0  0  0  0  0  0  0  0  0
   -5.3343    2.0808   -0.7584 H   0  0  0  0  0  0  0  0  0  0  0  0
   -6.4924    1.0450    0.2597 H   0  0  0  0  0  0  0  0  0  0  0  0
   -4.5085    1.9020    1.5759 H   0  0  0  0  0  0  0  0  0  0  0  0
   -5.4989   -0.2577    2.0883 H   0  0  0  0  0  0  0  0  0  0  0  0
   -3.6613   -0.2516    2.3728 H   0  0  0  0  0  0  0  0  0  0  0  0
   -4.3481   -2.3634    1.1577 H   0  0  0  0  0  0  0  0  0  0  0  0
   -5.2551   -2.1397   -1.1130 H   0  0  0  0  0  0  0  0  0  0  0  0
   -6.3972   -1.4345    0.0929 H   0  0  0  0  0  0  0  0  0  0  0  0
   -2.7917   -2.0446   -0.6997 H   0  0  0  0  0  0  0  0  0  0  0  0
   -2.2663   -1.3166    0.8976 H   0  0  0  0  0  0  0  0  0  0  0  0
   -3.1652    2.1630   -0.4661 H   0  0  0  0  0  0  0  0  0  0  0  0
   -2.3303    1.3594    0.9864 H   0  0  0  0  0  0  0  0  0  0  0  0
    2.4535   -1.3498   -1.8436 H   0  0  0  0  0  0  0  0  0  0  0  0
    4.7733   -0.7895   -1.4540 H   0  0  0  0  0  0  0  0  0  0  0  0
    9.1033   -0.0127   -1.4635 H   0  0  0  0  0  0  0  0  0  0  0  0
   10.6858    1.6870   -0.6061 H   0  0  0  0  0  0  0  0  0  0  0  0
  1  2  2  0
  2  3  1  0
  3  4  2  0
  4  5  1  0
  5  6  2  0
  6  7  1  0
  7  8  2  0
  8  9  1  0
  9 10  1  0
 10 11  1  0
 11 12  1  0
 12 13  1  0
 13 14  1  0
 14 15  1  0
 15 16  1  0
 16 17  1  0
 17 18  1  0
 18 19  1  0
 18 20  1  0
 16 21  1  0
  8 22  1  0
 22 23  2  0
  2 24  1  0
 24 25  1  0
 23  5  1  0
 20 12  1  0
 21 12  1  0
 19 14  1  0
  3 26  1  0
  4 27  1  0
  6 28  1  0
  7 29  1  0
  9 30  1  0
  9 31  1  0
 10 32  1  0
 11 33  1  0
 11 34  1  0
 13 35  1  0
 13 36  1  0
 14 37  1  0
 15 38  1  0
 15 39  1  0
 16 40  1  0
 17 41  1  0
 17 42  1  0
 18 43  1  0
 19 44  1  0
 19 45  1  0
 20 46  1  0
 20 47  1  0
 21 48  1  0
 21 49  1  0
 22 50  1  0
 23 51  1  0
 24 52  1  0
 25 53  1  0
M  END
$$$$
