@<TRIPOS>MOLECULE
*****
 46 48 0 0 0
SMALL
GASTEIGER

@<TRIPOS>ATOM
      1 C          -4.3720    1.8424   -1.0942 C.3     1  UNL1       -0.0499
      2 C          -4.3511    0.7281   -0.0639 C.3     1  UNL1        0.0615
      3 C          -4.3264    1.2272    1.3101 C.2     1  UNL1        0.2426
      4 O          -4.1166    2.4344    1.5381 O.2     1  UNL1       -0.2731
      5 N          -4.5433    0.3360    2.3779 N.am    1  UNL1       -0.1970
      6 O          -4.5118    0.8550    3.6463 O.3     1  UNL1       -0.2952
      7 C          -3.4835   -0.3798   -0.4300 C.ar    1  UNL1       -0.0105
      8 C          -4.0407   -1.5370   -1.0231 C.ar    1  UNL1       -0.0560
      9 C          -3.2999   -2.6163   -1.4244 C.ar    1  UNL1       -0.0614
     10 C          -1.9308   -2.6114   -1.2573 C.ar    1  UNL1       -0.0599
     11 C          -1.3573   -1.5066   -0.6855 C.ar    1  UNL1       -0.0362
     12 C          -2.1236   -0.3950   -0.2721 C.ar    1  UNL1        0.0974
     13 S          -1.3225    0.9558    0.4759 S.O2    1  UNL1        0.0253
     14 O          -1.5721    2.2620   -0.2080 O.2     1  UNL1       -0.1643
     15 O          -1.5466    1.0098    1.9644 O.2     1  UNL1       -0.1643
     16 C           0.4220    0.6835    0.3238 C.ar    1  UNL1        0.0936
     17 C           1.0656   -0.0065    1.3053 C.ar    1  UNL1       -0.0359
     18 C           2.4403   -0.2301    1.1936 C.ar    1  UNL1       -0.0522
     19 C           3.1482    0.2296    0.1206 C.ar    1  UNL1       -0.0178
     20 C           4.5836   -0.0257    0.0431 C.ar    1  UNL1       -0.0179
     21 C           5.2922   -0.0860    1.2283 C.ar    1  UNL1       -0.0540
     22 C           6.6637   -0.3335    1.1691 C.ar    1  UNL1       -0.0612
     23 C           7.2714   -0.5094   -0.0480 C.ar    1  UNL1       -0.0617
     24 C           6.5329   -0.4429   -1.2176 C.ar    1  UNL1       -0.0612
     25 C           5.1871   -0.2015   -1.1888 C.ar    1  UNL1       -0.0540
     26 C           2.4686    0.9260   -0.8588 C.ar    1  UNL1       -0.0522
     27 C           1.1148    1.1521   -0.7592 C.ar    1  UNL1       -0.0359
     28 H          -5.3404    1.9136   -1.6260 H       1  UNL1        0.0240
     29 H          -3.6299    1.5977   -1.8892 H       1  UNL1        0.0240
     30 H          -4.2185    2.8447   -0.6410 H       1  UNL1        0.0240
     31 H          -5.4242    0.3112   -0.1476 H       1  UNL1        0.0441
     32 H          -4.7275   -0.7014    2.2559 H       1  UNL1        0.1822
     33 H          -4.6991    0.1351    4.3064 H       1  UNL1        0.2414
     34 H          -5.1234   -1.5657   -1.1672 H       1  UNL1        0.0621
     35 H          -3.7571   -3.4814   -1.8732 H       1  UNL1        0.0618
     36 H          -1.2779   -3.4213   -1.5471 H       1  UNL1        0.0618
     37 H          -0.2748   -1.4642   -0.5349 H       1  UNL1        0.0637
     38 H           0.5683   -0.4046    2.1913 H       1  UNL1        0.0637
     39 H           2.9706   -0.7757    1.9619 H       1  UNL1        0.0624
     40 H           4.8324    0.0492    2.1842 H       1  UNL1        0.0624
     41 H           7.2125   -0.3786    2.1151 H       1  UNL1        0.0618
     42 H           8.3323   -0.7024   -0.1172 H       1  UNL1        0.0618
     43 H           7.0147   -0.5838   -2.1943 H       1  UNL1        0.0618
     44 H           4.6068   -0.1489   -2.1034 H       1  UNL1        0.0624
     45 H           3.0100    1.3049   -1.7279 H       1  UNL1        0.0624
     46 H           0.6332    1.7110   -1.5681 H       1  UNL1        0.0637
@<TRIPOS>BOND
     1     1     2    1
     2     2     3    1
     3     3     4    2
     4     3     5   am
     5     5     6    1
     6     2     7    1
     7     7     8   ar
     8     8     9   ar
     9     9    10   ar
    10    10    11   ar
    11    11    12   ar
    12    12    13    1
    13    13    14    2
    14    13    15    2
    15    13    16    1
    16    16    17   ar
    17    17    18   ar
    18    18    19   ar
    19    19    20    1
    20    20    21   ar
    21    21    22   ar
    22    22    23   ar
    23    23    24   ar
    24    24    25   ar
    25    19    26   ar
    26    26    27   ar
    27    12     7   ar
    28    27    16   ar
    29    25    20   ar
    30     1    28    1
    31     1    29    1
    32     1    30    1
    33     2    31    1
    34     5    32    1
    35     6    33    1
    36     8    34    1
    37     9    35    1
    38    10    36    1
    39    11    37    1
    40    17    38    1
    41    18    39    1
    42    21    40    1
    43    22    41    1
    44    23    42    1
    45    24    43    1
    46    25    44    1
    47    26    45    1
    48    27    46    1
