
     RDKit          3D

 52 54  0  0  0  0  0  0  0  0999 V2000
    3.2652    1.0725   -2.1078 C   0  0  0  0  0  0  0  0  0  0  0  0
    4.5321    0.7936   -1.3350 C   0  0  0  0  0  0  0  0  0  0  0  0
    4.3351   -0.2984   -0.2909 C   0  0  0  0  0  0  0  0  0  0  0  0
    3.9134   -1.5891   -0.9076 C   0  0  0  0  0  0  0  0  0  0  0  0
    2.6903   -1.5720   -1.6310 N   0  0  0  0  0  0  0  0  0  0  0  0
    2.8155   -2.2280   -2.9198 C   0  0  0  0  0  0  0  0  0  0  0  0
    1.3108   -2.0771   -0.7770 S   0  0  0  0  0  6  0  0  0  0  0  0
    1.4414   -3.4712   -0.2302 O   0  0  0  0  0  0  0  0  0  0  0  0
    0.0954   -2.0357   -1.6595 O   0  0  0  0  0  0  0  0  0  0  0  0
    1.0416   -0.9986    0.6027 C   0  0  0  0  0  0  0  0  0  0  0  0
   -0.1908   -1.4072    1.3883 C   0  0  1  0  0  0  0  0  0  0  0  0
   -0.3711   -0.4506    2.5546 C   0  0  0  0  0  0  0  0  0  0  0  0
   -1.8081   -0.2099    2.1398 C   0  0  1  0  0  0  0  0  0  0  0  0
   -2.1491    1.1826    1.9145 N   0  0  0  0  0  0  0  0  0  0  0  0
   -1.9938    2.0922    3.0327 C   0  0  0  0  0  0  0  0  0  0  0  0
   -2.6175    1.6794    0.6736 C   0  0  0  0  0  0  0  0  0  0  0  0
   -1.9780    2.6462   -0.0407 N   0  0  0  0  0  0  0  0  0  0  0  0
   -2.4611    3.0847   -1.2124 C   0  0  0  0  0  0  0  0  0  0  0  0
   -3.5909    2.6028   -1.7452 N   0  0  0  0  0  0  0  0  0  0  0  0
   -4.2706    1.6488   -1.0938 C   0  0  0  0  0  0  0  0  0  0  0  0
   -5.4183    0.9754   -1.3662 N   0  0  0  0  0  0  0  0  0  0  0  0
   -5.6878    0.1025   -0.3836 C   0  0  0  0  0  0  0  0  0  0  0  0
   -4.6772    0.2313    0.5356 C   0  0  0  0  0  0  0  0  0  0  0  0
   -3.7779    1.1915    0.1158 C   0  0  0  0  0  0  0  0  0  0  0  0
   -1.4964   -0.9301    0.8464 C   0  0  0  0  0  0  0  0  0  0  0  0
    3.1814    2.1745   -2.2822 H   0  0  0  0  0  0  0  0  0  0  0  0
    3.2739    0.6243   -3.1264 H   0  0  0  0  0  0  0  0  0  0  0  0
    2.4128    0.7837   -1.4917 H   0  0  0  0  0  0  0  0  0  0  0  0
    4.9163    1.7211   -0.8822 H   0  0  0  0  0  0  0  0  0  0  0  0
    5.2954    0.4722   -2.0910 H   0  0  0  0  0  0  0  0  0  0  0  0
    5.3119   -0.4749    0.2090 H   0  0  0  0  0  0  0  0  0  0  0  0
    3.6655    0.1127    0.4750 H   0  0  0  0  0  0  0  0  0  0  0  0
    4.7177   -1.8874   -1.6220 H   0  0  0  0  0  0  0  0  0  0  0  0
    3.8708   -2.4158   -0.1589 H   0  0  0  0  0  0  0  0  0  0  0  0
    2.1980   -3.1691   -2.9459 H   0  0  0  0  0  0  0  0  0  0  0  0
    3.8707   -2.5518   -3.0234 H   0  0  0  0  0  0  0  0  0  0  0  0
    2.5604   -1.5790   -3.7673 H   0  0  0  0  0  0  0  0  0  0  0  0
    1.8982   -1.2115    1.3121 H   0  0  0  0  0  0  0  0  0  0  0  0
    1.0830    0.0613    0.3653 H   0  0  0  0  0  0  0  0  0  0  0  0
   -0.1957   -2.4683    1.6314 H   0  0  0  0  0  0  0  0  0  0  0  0
    0.2844    0.4272    2.5573 H   0  0  0  0  0  0  0  0  0  0  0  0
   -0.2570   -1.0285    3.5000 H   0  0  0  0  0  0  0  0  0  0  0  0
   -2.4858   -0.7404    2.8288 H   0  0  0  0  0  0  0  0  0  0  0  0
   -1.2899    1.6847    3.7731 H   0  0  0  0  0  0  0  0  0  0  0  0
   -1.6494    3.0863    2.6296 H   0  0  0  0  0  0  0  0  0  0  0  0
   -3.0060    2.3084    3.4753 H   0  0  0  0  0  0  0  0  0  0  0  0
   -1.9289    3.8481   -1.7466 H   0  0  0  0  0  0  0  0  0  0  0  0
   -6.0119    1.1117   -2.2165 H   0  0  0  0  0  0  0  0  0  0  0  0
   -6.5069   -0.5934   -0.2627 H   0  0  0  0  0  0  0  0  0  0  0  0
   -4.5746   -0.3216    1.4576 H   0  0  0  0  0  0  0  0  0  0  0  0
   -2.2396   -1.7289    0.6314 H   0  0  0  0  0  0  0  0  0  0  0  0
   -1.3470   -0.2808   -0.0300 H   0  0  0  0  0  0  0  0  0  0  0  0
  1  2  1  0
  2  3  1  0
  3  4  1  0
  4  5  1  0
  5  6  1  0
  5  7  1  0
  7  8  2  0
  7  9  2  0
  7 10  1  0
 10 11  1  0
 11 12  1  0
 12 13  1  0
 13 14  1  0
 14 15  1  0
 14 16  1  0
 16 17  2  0
 17 18  1  0
 18 19  2  0
 19 20  1  0
 20 21  1  0
 21 22  1  0
 22 23  2  0
 23 24  1  0
 13 25  1  0
 25 11  1  0
 24 16  1  0
 24 20  2  0
  1 26  1  0
  1 27  1  0
  1 28  1  0
  2 29  1  0
  2 30  1  0
  3 31  1  0
  3 32  1  0
  4 33  1  0
  4 34  1  0
  6 35  1  0
  6 36  1  0
  6 37  1  0
 10 38  1  0
 10 39  1  0
 11 40  1  1
 12 41  1  0
 12 42  1  0
 13 43  1  1
 15 44  1  0
 15 45  1  0
 15 46  1  0
 18 47  1  0
 21 48  1  0
 22 49  1  0
 23 50  1  0
 25 51  1  0
 25 52  1  0
M  END
$$$$
