@<TRIPOS>MOLECULE
*****
 52 54 0 0 0
SMALL
GASTEIGER

@<TRIPOS>ATOM
      1 C           3.2652    1.0725   -2.1078 C.3     1  UNL1       -0.0652
      2 C           4.5321    0.7936   -1.3350 C.3     1  UNL1       -0.0547
      3 C           4.3351   -0.2984   -0.2909 C.3     1  UNL1       -0.0388
      4 C           3.9134   -1.5891   -0.9076 C.3     1  UNL1        0.0198
      5 N           2.6903   -1.5720   -1.6310 N.3     1  UNL1       -0.1842
      6 C           2.8155   -2.2280   -2.9198 C.3     1  UNL1        0.0086
      7 S           1.3108   -2.0771   -0.7770 S.O2    1  UNL1        0.0318
      8 O           1.4414   -3.4712   -0.2302 O.2     1  UNL1       -0.1580
      9 O           0.0954   -2.0357   -1.6595 O.2     1  UNL1       -0.1580
     10 C           1.0416   -0.9986    0.6027 C.3     1  UNL1        0.0849
     11 C          -0.1908   -1.4072    1.3883 C.3     1  UNL1       -0.0168
     12 C          -0.3711   -0.4506    2.5546 C.3     1  UNL1       -0.0299
     13 C          -1.8081   -0.2099    2.1398 C.3     1  UNL1        0.0251
     14 N          -2.1491    1.1826    1.9145 N.pl3   1  UNL1       -0.3146
     15 C          -1.9938    2.0922    3.0327 C.3     1  UNL1        0.0023
     16 C          -2.6175    1.6794    0.6736 C.ar    1  UNL1        0.1337
     17 N          -1.9780    2.6462   -0.0407 N.ar    1  UNL1       -0.2200
     18 C          -2.4611    3.0847   -1.2124 C.ar    1  UNL1        0.1204
     19 N          -3.5909    2.6028   -1.7452 N.ar    1  UNL1       -0.2178
     20 C          -4.2706    1.6488   -1.0938 C.ar    1  UNL1        0.1432
     21 N          -5.4183    0.9754   -1.3662 N.ar    1  UNL1       -0.3457
     22 C          -5.6878    0.1025   -0.3836 C.ar    1  UNL1        0.0042
     23 C          -4.6772    0.2313    0.5356 C.ar    1  UNL1       -0.0318
     24 C          -3.7779    1.1915    0.1158 C.ar    1  UNL1        0.0585
     25 C          -1.4964   -0.9301    0.8464 C.3     1  UNL1       -0.0299
     26 H           3.1814    2.1745   -2.2822 H       1  UNL1        0.0230
     27 H           3.2739    0.6243   -3.1264 H       1  UNL1        0.0230
     28 H           2.4128    0.7837   -1.4917 H       1  UNL1        0.0230
     29 H           4.9163    1.7211   -0.8822 H       1  UNL1        0.0263
     30 H           5.2954    0.4722   -2.0910 H       1  UNL1        0.0263
     31 H           5.3119   -0.4749    0.2090 H       1  UNL1        0.0278
     32 H           3.6655    0.1127    0.4750 H       1  UNL1        0.0278
     33 H           4.7177   -1.8874   -1.6220 H       1  UNL1        0.0444
     34 H           3.8708   -2.4158   -0.1589 H       1  UNL1        0.0444
     35 H           2.1980   -3.1691   -2.9459 H       1  UNL1        0.0408
     36 H           3.8707   -2.5518   -3.0234 H       1  UNL1        0.0408
     37 H           2.5604   -1.5790   -3.7673 H       1  UNL1        0.0408
     38 H           1.8982   -1.2115    1.3121 H       1  UNL1        0.0518
     39 H           1.0830    0.0613    0.3653 H       1  UNL1        0.0518
     40 H          -0.1957   -2.4683    1.6314 H       1  UNL1        0.0318
     41 H           0.2844    0.4272    2.5573 H       1  UNL1        0.0286
     42 H          -0.2570   -1.0285    3.5000 H       1  UNL1        0.0286
     43 H          -2.4858   -0.7404    2.8288 H       1  UNL1        0.0500
     44 H          -1.2899    1.6847    3.7731 H       1  UNL1        0.0428
     45 H          -1.6494    3.0863    2.6296 H       1  UNL1        0.0428
     46 H          -3.0060    2.3084    3.4753 H       1  UNL1        0.0428
     47 H          -1.9289    3.8481   -1.7466 H       1  UNL1        0.1048
     48 H          -6.0119    1.1117   -2.2165 H       1  UNL1        0.1668
     49 H          -6.5069   -0.5934   -0.2627 H       1  UNL1        0.0807
     50 H          -4.5746   -0.3216    1.4576 H       1  UNL1        0.0640
     51 H          -2.2396   -1.7289    0.6314 H       1  UNL1        0.0286
     52 H          -1.3470   -0.2808   -0.0300 H       1  UNL1        0.0286
@<TRIPOS>BOND
     1     1     2    1
     2     2     3    1
     3     3     4    1
     4     4     5    1
     5     5     6    1
     6     5     7    1
     7     7     8    2
     8     7     9    2
     9     7    10    1
    10    10    11    1
    11    11    12    1
    12    12    13    1
    13    13    14    1
    14    14    15    1
    15    14    16    1
    16    16    17   ar
    17    17    18   ar
    18    18    19   ar
    19    19    20   ar
    20    20    21   ar
    21    21    22   ar
    22    22    23   ar
    23    23    24   ar
    24    13    25    1
    25    25    11    1
    26    24    16   ar
    27    24    20   ar
    28     1    26    1
    29     1    27    1
    30     1    28    1
    31     2    29    1
    32     2    30    1
    33     3    31    1
    34     3    32    1
    35     4    33    1
    36     4    34    1
    37     6    35    1
    38     6    36    1
    39     6    37    1
    40    10    38    1
    41    10    39    1
    42    11    40    1
    43    12    41    1
    44    12    42    1
    45    13    43    1
    46    15    44    1
    47    15    45    1
    48    15    46    1
    49    18    47    1
    50    21    48    1
    51    22    49    1
    52    23    50    1
    53    25    51    1
    54    25    52    1
