@<TRIPOS>MOLECULE
*****
 59 63 0 0 0
SMALL
GASTEIGER

@<TRIPOS>ATOM
      1 C          -1.2287    3.0827    2.1837 C.3     1  UNL1        0.0789
      2 O          -0.6125    2.0739    1.4424 O.3     1  UNL1       -0.4932
      3 C          -1.2919    1.1162    0.7099 C.ar    1  UNL1        0.1429
      4 C          -2.6670    1.0958    0.6632 C.ar    1  UNL1        0.0029
      5 C          -3.3886    0.1663   -0.0494 C.ar    1  UNL1        0.0334
      6 N          -4.7999    0.2213   -0.0438 N.pl3   1  UNL1       -0.3274
      7 C          -5.5738   -0.8071   -0.6894 C.3     1  UNL1        0.0250
      8 C          -6.8488   -0.9848    0.1081 C.3     1  UNL1        0.0144
      9 N          -7.6341    0.2012    0.2119 N.3     1  UNL1       -0.3024
     10 C          -8.7251    0.2644   -0.7250 C.3     1  UNL1       -0.0126
     11 C          -6.9155    1.4337    0.1974 C.3     1  UNL1        0.0144
     12 C          -5.4655    1.3058    0.6017 C.3     1  UNL1        0.0250
     13 C          -2.6706   -0.7769   -0.7393 C.ar    1  UNL1       -0.0387
     14 C          -1.2613   -0.7626   -0.6962 C.ar    1  UNL1       -0.0351
     15 C          -0.5596    0.1665    0.0156 C.ar    1  UNL1        0.0759
     16 N           0.8303    0.1946    0.0715 N.pl3   1  UNL1       -0.2807
     17 C           1.7501   -0.6647   -0.5592 C.ar    1  UNL1        0.2201
     18 N           1.3617   -1.6627   -1.3441 N.ar    1  UNL1       -0.2226
     19 C           2.1951   -2.5134   -1.9699 C.ar    1  UNL1        0.0332
     20 C           3.5422   -2.3098   -1.7624 C.ar    1  UNL1       -0.0173
     21 C           4.0076   -1.2766   -0.9473 C.ar    1  UNL1        0.0780
     22 C           5.4359   -1.0918   -0.7486 C.ar    1  UNL1        0.0258
     23 C           6.4863   -1.7998   -1.2609 C.ar    1  UNL1        0.0146
     24 N           7.6568   -1.2935   -0.8191 N.ar    1  UNL1       -0.3479
     25 C           8.9956   -1.7510   -1.1243 C.3     1  UNL1        0.0119
     26 C           7.3859   -0.2433   -0.0087 C.ar    1  UNL1        0.0678
     27 C           8.2091    0.6066    0.6889 C.ar    1  UNL1        0.0516
     28 N           7.6528    1.5730    1.4235 N.ar    1  UNL1       -0.2612
     29 C           6.3275    1.7509    1.5106 C.ar    1  UNL1        0.0283
     30 C           5.4720    0.9225    0.8284 C.ar    1  UNL1       -0.0338
     31 C           5.9903   -0.1111    0.0398 C.ar    1  UNL1        0.0119
     32 N           3.1033   -0.4903   -0.3739 N.ar    1  UNL1       -0.2142
     33 H          -0.5134    3.4189    2.9863 H       1  UNL1        0.0660
     34 H          -1.5078    3.9715    1.5517 H       1  UNL1        0.0660
     35 H          -2.1708    2.7749    2.6826 H       1  UNL1        0.0660
     36 H          -3.2363    1.8464    1.2129 H       1  UNL1        0.0673
     37 H          -5.7572   -0.5350   -1.7463 H       1  UNL1        0.0476
     38 H          -5.0860   -1.8084   -0.6951 H       1  UNL1        0.0476
     39 H          -7.4723   -1.7488   -0.4186 H       1  UNL1        0.0442
     40 H          -6.5702   -1.4102    1.0809 H       1  UNL1        0.0442
     41 H          -8.8108    1.2815   -1.1793 H       1  UNL1        0.0391
     42 H          -9.6601    0.1085   -0.1416 H       1  UNL1        0.0391
     43 H          -8.6309   -0.4472   -1.5654 H       1  UNL1        0.0391
     44 H          -6.9784    1.9827   -0.7527 H       1  UNL1        0.0442
     45 H          -7.3993    2.1045    0.9642 H       1  UNL1        0.0442
     46 H          -4.9694    2.2509    0.2301 H       1  UNL1        0.0476
     47 H          -5.3994    1.1970    1.6821 H       1  UNL1        0.0476
     48 H          -3.1938   -1.5202   -1.3108 H       1  UNL1        0.0637
     49 H          -0.8131   -1.5524   -1.2765 H       1  UNL1        0.0638
     50 H           1.2718    0.9779    0.6785 H       1  UNL1        0.1551
     51 H           1.7868   -3.2843   -2.5803 H       1  UNL1        0.0831
     52 H           4.2584   -2.9495   -2.2295 H       1  UNL1        0.0654
     53 H           6.3876   -2.6359   -1.9183 H       1  UNL1        0.0816
     54 H           9.7335   -0.9244   -1.1578 H       1  UNL1        0.0456
     55 H           9.3514   -2.4413   -0.3064 H       1  UNL1        0.0456
     56 H           9.0125   -2.3636   -2.0540 H       1  UNL1        0.0456
     57 H           9.2701    0.4888    0.6384 H       1  UNL1        0.0851
     58 H           5.9372    2.5386    2.1124 H       1  UNL1        0.0830
     59 H           4.4002    1.0433    0.8802 H       1  UNL1        0.0639
@<TRIPOS>BOND
     1     1     2    1
     2     2     3    1
     3     3     4   ar
     4     4     5   ar
     5     5     6    1
     6     6     7    1
     7     7     8    1
     8     8     9    1
     9     9    10    1
    10     9    11    1
    11    11    12    1
    12     5    13   ar
    13    13    14   ar
    14    14    15   ar
    15    15    16    1
    16    16    17    1
    17    17    18   ar
    18    18    19   ar
    19    19    20   ar
    20    20    21   ar
    21    21    22    1
    22    22    23   ar
    23    23    24   ar
    24    24    25    1
    25    24    26   ar
    26    26    27   ar
    27    27    28   ar
    28    28    29   ar
    29    29    30   ar
    30    30    31   ar
    31    21    32   ar
    32    15     3   ar
    33    32    17   ar
    34    12     6    1
    35    31    22   ar
    36    31    26   ar
    37     1    33    1
    38     1    34    1
    39     1    35    1
    40     4    36    1
    41     7    37    1
    42     7    38    1
    43     8    39    1
    44     8    40    1
    45    10    41    1
    46    10    42    1
    47    10    43    1
    48    11    44    1
    49    11    45    1
    50    12    46    1
    51    12    47    1
    52    13    48    1
    53    14    49    1
    54    16    50    1
    55    19    51    1
    56    20    52    1
    57    23    53    1
    58    25    54    1
    59    25    55    1
    60    25    56    1
    61    27    57    1
    62    29    58    1
    63    30    59    1
