@<TRIPOS>MOLECULE
*****
 43 45 0 0 0
SMALL
GASTEIGER

@<TRIPOS>ATOM
      1 C          -5.6330   -1.7594   -2.0287 C.3     1  UNL1        0.0790
      2 O          -5.1474   -0.5585   -1.4687 O.3     1  UNL1       -0.4915
      3 C          -4.2872   -0.6218   -0.3914 C.ar    1  UNL1        0.1616
      4 C          -3.9228   -1.8505    0.1118 C.ar    1  UNL1       -0.0144
      5 C          -3.0657   -1.9090    1.1847 C.ar    1  UNL1       -0.0314
      6 C          -2.5807   -0.7578    1.7455 C.ar    1  UNL1        0.1122
      7 S          -1.5140   -0.9212    3.1170 S.O2    1  UNL1        0.0740
      8 O          -1.4916    0.3583    3.9244 O.2     1  UNL1       -0.1499
      9 O          -2.1015   -2.0018    3.9790 O.2     1  UNL1       -0.1499
     10 N           0.0492   -1.3326    2.5772 N.pl3   1  UNL1       -0.1937
     11 C           0.7949   -0.4676    1.7262 C.ar    1  UNL1        0.1780
     12 N           1.9662   -0.5919    1.2154 N.ar    1  UNL1       -0.2237
     13 C           2.5123    0.2868    0.4605 C.ar    1  UNL1        0.0805
     14 C           3.8825    0.1149   -0.1225 C.ar    1  UNL1        0.0073
     15 C           4.6354   -1.0096    0.1253 C.ar    1  UNL1       -0.0521
     16 C           5.8869   -1.2138   -0.3814 C.ar    1  UNL1       -0.0547
     17 C           6.4092   -0.2260   -1.1849 C.ar    1  UNL1        0.0156
     18 C           5.6985    0.9160   -1.4633 C.ar    1  UNL1        0.2738
     19 N           6.2238    1.9457   -2.2916 N.pl3   1  UNL1        0.0796
     20 O           7.3629    1.7761   -2.7618 O.2     1  UNL1        0.0414
     21 O           5.5316    3.0781   -2.5738 O.co2   1  UNL1       -0.5760
     22 C           4.4243    1.0787   -0.9225 C.ar    1  UNL1        0.0248
     23 C           1.8069    1.4329    0.1771 C.ar    1  UNL1        0.0049
     24 S           0.2924    1.0978    1.1110 S.2     1  UNL1       -0.0588
     25 C          -2.9424    0.4648    1.2467 C.ar    1  UNL1        0.0103
     26 C          -3.7993    0.5546    0.1726 C.ar    1  UNL1        0.1633
     27 O          -4.1450    1.8020   -0.3079 O.3     1  UNL1       -0.4914
     28 C          -3.6733    2.9941    0.2350 C.3     1  UNL1        0.0790
     29 H          -6.2759   -2.2569   -1.2660 H       1  UNL1        0.0660
     30 H          -6.1975   -1.5677   -2.9696 H       1  UNL1        0.0660
     31 H          -4.7475   -2.3883   -2.2651 H       1  UNL1        0.0660
     32 H          -4.2865   -2.7727   -0.3064 H       1  UNL1        0.0656
     33 H          -2.7797   -2.8988    1.5806 H       1  UNL1        0.0638
     34 H           0.4897   -2.2211    2.8572 H       1  UNL1        0.1758
     35 H           4.1803   -1.7713    0.7709 H       1  UNL1        0.0624
     36 H           6.4048   -2.1249   -0.1350 H       1  UNL1        0.0620
     37 H           7.3988   -0.3657   -1.5976 H       1  UNL1        0.0685
     38 H           3.8839    2.0000   -1.1633 H       1  UNL1        0.0692
     39 H           2.0179    2.2851   -0.3974 H       1  UNL1        0.0716
     40 H          -2.5753    1.3994    1.6867 H       1  UNL1        0.0675
     41 H          -2.5989    3.0208    0.4491 H       1  UNL1        0.0660
     42 H          -4.2065    3.1652    1.2025 H       1  UNL1        0.0660
     43 H          -3.8803    3.8177   -0.4816 H       1  UNL1        0.0660
@<TRIPOS>UNITY_ATOM_ATTR
19 1
charge 1
21 1
charge -1
@<TRIPOS>BOND
     1     1     2    1
     2     2     3    1
     3     3     4   ar
     4     4     5   ar
     5     5     6   ar
     6     6     7    1
     7     7     8    2
     8     7     9    2
     9     7    10    1
    10    10    11    1
    11    11    12   ar
    12    12    13   ar
    13    13    14    1
    14    14    15   ar
    15    15    16   ar
    16    16    17   ar
    17    17    18   ar
    18    18    19    1
    19    19    20    2
    20    19    21    1
    21    18    22   ar
    22    13    23   ar
    23    23    24   ar
    24     6    25   ar
    25    25    26   ar
    26    26    27    1
    27    27    28    1
    28    26     3   ar
    29    24    11   ar
    30    22    14   ar
    31     1    29    1
    32     1    30    1
    33     1    31    1
    34     4    32    1
    35     5    33    1
    36    10    34    1
    37    15    35    1
    38    16    36    1
    39    17    37    1
    40    22    38    1
    41    23    39    1
    42    25    40    1
    43    28    41    1
    44    28    42    1
    45    28    43    1
