
     RDKit          3D

 43 45  0  0  0  0  0  0  0  0999 V2000
   -5.6330   -1.7594   -2.0287 C   0  0  0  0  0  0  0  0  0  0  0  0
   -5.1474   -0.5585   -1.4687 O   0  0  0  0  0  0  0  0  0  0  0  0
   -4.2872   -0.6218   -0.3914 C   0  0  0  0  0  0  0  0  0  0  0  0
   -3.9228   -1.8505    0.1118 C   0  0  0  0  0  0  0  0  0  0  0  0
   -3.0657   -1.9090    1.1847 C   0  0  0  0  0  0  0  0  0  0  0  0
   -2.5807   -0.7578    1.7455 C   0  0  0  0  0  0  0  0  0  0  0  0
   -1.5140   -0.9212    3.1170 S   0  0  0  0  0  6  0  0  0  0  0  0
   -1.4916    0.3583    3.9244 O   0  0  0  0  0  0  0  0  0  0  0  0
   -2.1015   -2.0018    3.9790 O   0  0  0  0  0  0  0  0  0  0  0  0
    0.0492   -1.3326    2.5772 N   0  0  0  0  0  0  0  0  0  0  0  0
    0.7949   -0.4676    1.7262 C   0  0  0  0  0  0  0  0  0  0  0  0
    1.9662   -0.5919    1.2154 N   0  0  0  0  0  0  0  0  0  0  0  0
    2.5123    0.2868    0.4605 C   0  0  0  0  0  0  0  0  0  0  0  0
    3.8825    0.1149   -0.1225 C   0  0  0  0  0  0  0  0  0  0  0  0
    4.6354   -1.0096    0.1253 C   0  0  0  0  0  0  0  0  0  0  0  0
    5.8869   -1.2138   -0.3814 C   0  0  0  0  0  0  0  0  0  0  0  0
    6.4092   -0.2260   -1.1849 C   0  0  0  0  0  0  0  0  0  0  0  0
    5.6985    0.9160   -1.4633 C   0  0  0  0  0  0  0  0  0  0  0  0
    6.2238    1.9457   -2.2916 N   0  0  0  0  0  4  0  0  0  0  0  0
    7.3629    1.7761   -2.7618 O   0  0  0  0  0  0  0  0  0  0  0  0
    5.5316    3.0781   -2.5738 O   0  0  0  0  0  1  0  0  0  0  0  0
    4.4243    1.0787   -0.9225 C   0  0  0  0  0  0  0  0  0  0  0  0
    1.8069    1.4329    0.1771 C   0  0  0  0  0  0  0  0  0  0  0  0
    0.2924    1.0978    1.1110 S   0  0  0  0  0  0  0  0  0  0  0  0
   -2.9424    0.4648    1.2467 C   0  0  0  0  0  0  0  0  0  0  0  0
   -3.7993    0.5546    0.1726 C   0  0  0  0  0  0  0  0  0  0  0  0
   -4.1450    1.8020   -0.3079 O   0  0  0  0  0  0  0  0  0  0  0  0
   -3.6733    2.9941    0.2350 C   0  0  0  0  0  0  0  0  0  0  0  0
   -6.2759   -2.2569   -1.2660 H   0  0  0  0  0  0  0  0  0  0  0  0
   -6.1975   -1.5677   -2.9696 H   0  0  0  0  0  0  0  0  0  0  0  0
   -4.7475   -2.3883   -2.2651 H   0  0  0  0  0  0  0  0  0  0  0  0
   -4.2865   -2.7727   -0.3064 H   0  0  0  0  0  0  0  0  0  0  0  0
   -2.7797   -2.8988    1.5806 H   0  0  0  0  0  0  0  0  0  0  0  0
    0.4897   -2.2211    2.8572 H   0  0  0  0  0  0  0  0  0  0  0  0
    4.1803   -1.7713    0.7709 H   0  0  0  0  0  0  0  0  0  0  0  0
    6.4048   -2.1249   -0.1350 H   0  0  0  0  0  0  0  0  0  0  0  0
    7.3988   -0.3657   -1.5976 H   0  0  0  0  0  0  0  0  0  0  0  0
    3.8839    2.0000   -1.1633 H   0  0  0  0  0  0  0  0  0  0  0  0
    2.0179    2.2851   -0.3974 H   0  0  0  0  0  0  0  0  0  0  0  0
   -2.5753    1.3994    1.6867 H   0  0  0  0  0  0  0  0  0  0  0  0
   -2.5989    3.0208    0.4491 H   0  0  0  0  0  0  0  0  0  0  0  0
   -4.2065    3.1652    1.2025 H   0  0  0  0  0  0  0  0  0  0  0  0
   -3.8803    3.8177   -0.4816 H   0  0  0  0  0  0  0  0  0  0  0  0
  1  2  1  0
  2  3  1  0
  3  4  2  0
  4  5  1  0
  5  6  2  0
  6  7  1  0
  7  8  2  0
  7  9  2  0
  7 10  1  0
 10 11  1  0
 11 12  2  0
 12 13  1  0
 13 14  1  0
 14 15  2  0
 15 16  1  0
 16 17  2  0
 17 18  1  0
 18 19  1  0
 19 20  2  0
 19 21  1  0
 18 22  2  0
 13 23  2  0
 23 24  1  0
  6 25  1  0
 25 26  2  0
 26 27  1  0
 27 28  1  0
 26  3  1  0
 24 11  1  0
 22 14  1  0
  1 29  1  0
  1 30  1  0
  1 31  1  0
  4 32  1  0
  5 33  1  0
 10 34  1  0
 15 35  1  0
 16 36  1  0
 17 37  1  0
 22 38  1  0
 23 39  1  0
 25 40  1  0
 28 41  1  0
 28 42  1  0
 28 43  1  0
M  CHG  2  19   1  21  -1
M  END
$$$$
