@<TRIPOS>MOLECULE
*****
 32 34 0 0 0
SMALL
GASTEIGER

@<TRIPOS>ATOM
      1 O          -2.5522    4.0686    1.5881 O.co2   1  UNL1       -0.5760
      2 N          -1.4286    3.2872    1.3626 N.pl3   1  UNL1        0.0796
      3 O          -0.2706    3.6925    1.5874 O.2     1  UNL1        0.0414
      4 C          -1.6752    1.9736    0.8513 C.ar    1  UNL1        0.2739
      5 C          -0.5698    1.1528    0.6098 C.ar    1  UNL1        0.0265
      6 C          -0.8848   -0.0820    0.1240 C.ar    1  UNL1        0.0282
      7 C          -2.1709   -0.5605   -0.1363 C.ar    1  UNL1        0.0431
      8 N          -2.5665   -1.8330   -0.6413 N.am    1  UNL1       -0.2834
      9 C          -1.7287   -2.9692   -0.9096 C.2     1  UNL1        0.2386
     10 O          -2.1588   -3.7260   -1.8199 O.2     1  UNL1       -0.2734
     11 C          -0.4504   -3.2303   -0.1674 C.3     1  UNL1        0.1167
     12 N           0.4638   -2.1311   -0.2029 N.2     1  UNL1       -0.2733
     13 C           0.3404   -0.8536   -0.0914 C.2     1  UNL1        0.0766
     14 C           1.6016   -0.1246   -0.1993 C.ar    1  UNL1        0.0189
     15 C           1.9565    0.8676   -1.0935 C.ar    1  UNL1       -0.0512
     16 C           3.2182    1.4240   -1.0117 C.ar    1  UNL1       -0.0611
     17 C           4.1233    1.0053   -0.0551 C.ar    1  UNL1       -0.0603
     18 C           3.7747    0.0019    0.8549 C.ar    1  UNL1       -0.0427
     19 C           2.5143   -0.5373    0.7547 C.ar    1  UNL1        0.0501
     20 CL          2.2134   -1.7899    1.9645 Cl      1  UNL1       -0.0829
     21 C          -3.2221    0.2999    0.1235 C.ar    1  UNL1       -0.0334
     22 C          -2.9581    1.5721    0.6202 C.ar    1  UNL1        0.0174
     23 H           0.4542    1.4312    0.7784 H       1  UNL1        0.0692
     24 H          -3.5842   -1.9400   -0.8347 H       1  UNL1        0.1549
     25 H           0.0175   -4.1095   -0.6155 H       1  UNL1        0.0605
     26 H          -0.6707   -3.5086    0.9000 H       1  UNL1        0.0605
     27 H           1.1692    1.1095   -1.7913 H       1  UNL1        0.0625
     28 H           3.4324    2.1947   -1.7400 H       1  UNL1        0.0618
     29 H           5.1104    1.4577   -0.0098 H       1  UNL1        0.0618
     30 H           4.5312   -0.2766    1.5759 H       1  UNL1        0.0632
     31 H          -4.2173   -0.0642   -0.0757 H       1  UNL1        0.0638
     32 H          -3.8121    2.1977    0.8036 H       1  UNL1        0.0686
@<TRIPOS>UNITY_ATOM_ATTR
1 1
charge -1
2 1
charge 1
@<TRIPOS>BOND
     1     1     2    1
     2     2     3    2
     3     2     4    1
     4     4     5   ar
     5     5     6   ar
     6     6     7   ar
     7     7     8    1
     8     8     9   am
     9     9    10    2
    10     9    11    1
    11    11    12    1
    12    12    13    2
    13    13    14    1
    14    14    15   ar
    15    15    16   ar
    16    16    17   ar
    17    17    18   ar
    18    18    19   ar
    19    19    20    1
    20     7    21   ar
    21    21    22   ar
    22    22     4   ar
    23    13     6    1
    24    19    14   ar
    25     5    23    1
    26     8    24    1
    27    11    25    1
    28    11    26    1
    29    15    27    1
    30    16    28    1
    31    17    29    1
    32    18    30    1
    33    21    31    1
    34    22    32    1
