
     RDKit          3D

 78 81  0  0  0  0  0  0  0  0999 V2000
    2.3490    6.0249   -0.7431 C   0  0  0  0  0  0  0  0  0  0  0  0
    2.1141    5.0111    0.3619 C   0  0  0  0  0  0  0  0  0  0  0  0
    0.7830    4.8942    0.7695 N   0  0  0  0  0  0  0  0  0  0  0  0
    0.1282    5.9257    1.4456 C   0  0  0  0  0  0  0  0  0  0  0  0
    0.6443    6.1890    2.8467 C   0  0  0  0  0  0  0  0  0  0  0  0
   -0.0104    3.8209    0.3547 C   0  0  0  0  0  0  0  0  0  0  0  0
    0.3605    2.4904    0.9095 C   0  0  0  0  0  0  0  0  0  0  0  0
   -0.5131    1.3997    0.4154 N   0  0  0  0  0  0  0  0  0  0  0  0
   -0.0753    0.7604   -0.7809 C   0  0  0  0  0  0  0  0  0  0  0  0
    0.9151   -0.3081   -0.6288 C   0  0  0  0  0  0  0  0  0  0  0  0
    0.5291   -1.6080   -0.4256 C   0  0  0  0  0  0  0  0  0  0  0  0
    1.4873   -2.6286   -0.3118 C   0  0  0  0  0  0  0  0  0  0  0  0
    2.8314   -2.3527   -0.4004 C   0  0  0  0  0  0  0  0  0  0  0  0
    3.8738   -3.3755   -0.3148 C   0  0  0  0  0  0  0  0  0  0  0  0
    3.7393   -4.5092    0.4447 C   0  0  0  0  0  0  0  0  0  0  0  0
    4.7393   -5.4838    0.5134 C   0  0  0  0  0  0  0  0  0  0  0  0
    5.9167   -5.3409   -0.1898 C   0  0  0  0  0  0  0  0  0  0  0  0
    6.9981   -6.3680   -0.1393 C   0  0  0  0  0  0  0  0  0  0  0  0
    7.4262   -6.6204   -1.4290 F   0  0  0  0  0  0  0  0  0  0  0  0
    6.5694   -7.5522    0.3783 F   0  0  0  0  0  0  0  0  0  0  0  0
    8.0971   -5.9504    0.5872 F   0  0  0  0  0  0  0  0  0  0  0  0
    6.0497   -4.1988   -0.9525 C   0  0  0  0  0  0  0  0  0  0  0  0
    5.0662   -3.2356   -1.0229 C   0  0  0  0  0  0  0  0  0  0  0  0
    3.1827   -1.0152   -0.6070 C   0  0  0  0  0  0  0  0  0  0  0  0
    2.2695    0.0027   -0.7224 C   0  0  0  0  0  0  0  0  0  0  0  0
   -1.6681    1.0427    1.0979 C   0  0  0  0  0  0  0  0  0  0  0  0
   -1.9415    1.6981    2.1702 O   0  0  0  0  0  0  0  0  0  0  0  0
   -2.6229    0.0006    0.7410 C   0  0  0  0  0  0  0  0  0  0  0  0
   -3.9878    0.5269    0.6660 N   0  0  0  0  0  0  0  0  0  0  0  0
   -4.6432    0.6595    1.8517 C   0  0  0  0  0  0  0  0  0  0  0  0
   -5.8939    1.2174    1.8637 C   0  0  0  0  0  0  0  0  0  0  0  0
   -6.8339    1.4211    3.4902 Br  0  0  0  0  0  0  0  0  0  0  0  0
   -6.4381    1.6234    0.6619 C   0  0  0  0  0  0  0  0  0  0  0  0
   -7.5932    2.1362    0.6949 O   0  0  0  0  0  0  0  0  0  0  0  0
   -5.7429    1.4646   -0.4718 N   0  0  0  0  0  0  0  0  0  0  0  0
   -4.5084    0.9134   -0.4921 C   0  0  0  0  0  0  0  0  0  0  0  0
   -3.7410    0.6895   -2.0903 S   0  0  0  0  0  0  0  0  0  0  0  0
   -4.3338   -0.8891   -2.8169 C   0  0  0  0  0  0  0  0  0  0  0  0
   -3.8798   -2.0470   -2.0243 C   0  0  0  0  0  0  0  0  0  0  0  0
   -4.6510   -2.4910   -0.9454 C   0  0  0  0  0  0  0  0  0  0  0  0
   -4.2853   -3.5678   -0.1736 C   0  0  0  0  0  0  0  0  0  0  0  0
   -3.1215   -4.2391   -0.4649 C   0  0  0  0  0  0  0  0  0  0  0  0
   -2.7256   -5.3187    0.2853 F   0  0  0  0  0  0  0  0  0  0  0  0
   -2.3426   -3.8122   -1.5325 C   0  0  0  0  0  0  0  0  0  0  0  0
   -2.7235   -2.7369   -2.2896 C   0  0  0  0  0  0  0  0  0  0  0  0
    3.4161    6.3220   -0.6938 H   0  0  0  0  0  0  0  0  0  0  0  0
    1.7439    6.9450   -0.5877 H   0  0  0  0  0  0  0  0  0  0  0  0
    2.1436    5.5813   -1.7392 H   0  0  0  0  0  0  0  0  0  0  0  0
    2.8332    5.1948    1.2104 H   0  0  0  0  0  0  0  0  0  0  0  0
    2.4475    4.0314   -0.0531 H   0  0  0  0  0  0  0  0  0  0  0  0
    0.0616    6.8942    0.8628 H   0  0  0  0  0  0  0  0  0  0  0  0
   -0.9471    5.6395    1.5849 H   0  0  0  0  0  0  0  0  0  0  0  0
    1.7502    6.1152    2.8966 H   0  0  0  0  0  0  0  0  0  0  0  0
    0.2423    5.4563    3.5764 H   0  0  0  0  0  0  0  0  0  0  0  0
    0.3532    7.1995    3.1956 H   0  0  0  0  0  0  0  0  0  0  0  0
   -1.0731    4.0408    0.6714 H   0  0  0  0  0  0  0  0  0  0  0  0
   -0.0599    3.8150   -0.7744 H   0  0  0  0  0  0  0  0  0  0  0  0
    1.4117    2.2862    0.7624 H   0  0  0  0  0  0  0  0  0  0  0  0
    0.1571    2.5203    2.0137 H   0  0  0  0  0  0  0  0  0  0  0  0
   -0.9352    0.3207   -1.3290 H   0  0  0  0  0  0  0  0  0  0  0  0
    0.3383    1.5197   -1.5218 H   0  0  0  0  0  0  0  0  0  0  0  0
   -0.4982   -1.9168   -0.3446 H   0  0  0  0  0  0  0  0  0  0  0  0
    1.1763   -3.6606   -0.1500 H   0  0  0  0  0  0  0  0  0  0  0  0
    2.8181   -4.6459    1.0105 H   0  0  0  0  0  0  0  0  0  0  0  0
    4.6184   -6.3886    1.1266 H   0  0  0  0  0  0  0  0  0  0  0  0
    6.9826   -4.0567   -1.5246 H   0  0  0  0  0  0  0  0  0  0  0  0
    5.1715   -2.3452   -1.6174 H   0  0  0  0  0  0  0  0  0  0  0  0
    4.2444   -0.7962   -0.6762 H   0  0  0  0  0  0  0  0  0  0  0  0
    2.5659    1.0397   -0.8884 H   0  0  0  0  0  0  0  0  0  0  0  0
   -2.3834   -0.4379   -0.2197 H   0  0  0  0  0  0  0  0  0  0  0  0
   -2.6510   -0.8402    1.4744 H   0  0  0  0  0  0  0  0  0  0  0  0
   -4.1976    0.3337    2.7901 H   0  0  0  0  0  0  0  0  0  0  0  0
   -4.0316   -0.9815   -3.8852 H   0  0  0  0  0  0  0  0  0  0  0  0
   -5.4580   -0.8874   -2.7924 H   0  0  0  0  0  0  0  0  0  0  0  0
   -5.5790   -1.9313   -0.7367 H   0  0  0  0  0  0  0  0  0  0  0  0
   -4.9244   -3.8704    0.6558 H   0  0  0  0  0  0  0  0  0  0  0  0
   -1.4214   -4.3615   -1.7450 H   0  0  0  0  0  0  0  0  0  0  0  0
   -2.1093   -2.3979   -3.1323 H   0  0  0  0  0  0  0  0  0  0  0  0
  1  2  1  0
  2  3  1  0
  3  4  1  0
  4  5  1  0
  3  6  1  0
  6  7  1  0
  7  8  1  0
  8  9  1  0
  9 10  1  0
 10 11  2  0
 11 12  1  0
 12 13  2  0
 13 14  1  0
 14 15  2  0
 15 16  1  0
 16 17  2  0
 17 18  1  0
 18 19  1  0
 18 20  1  0
 18 21  1  0
 17 22  1  0
 22 23  2  0
 13 24  1  0
 24 25  2  0
  8 26  1  0
 26 27  2  0
 26 28  1  0
 28 29  1  0
 29 30  1  0
 30 31  2  0
 31 32  1  0
 31 33  1  0
 33 34  2  0
 33 35  1  0
 35 36  2  0
 36 37  1  0
 37 38  1  0
 38 39  1  0
 39 40  2  0
 40 41  1  0
 41 42  2  0
 42 43  1  0
 42 44  1  0
 44 45  2  0
 25 10  1  0
 36 29  1  0
 45 39  1  0
 23 14  1  0
  1 46  1  0
  1 47  1  0
  1 48  1  0
  2 49  1  0
  2 50  1  0
  4 51  1  0
  4 52  1  0
  5 53  1  0
  5 54  1  0
  5 55  1  0
  6 56  1  0
  6 57  1  0
  7 58  1  0
  7 59  1  0
  9 60  1  0
  9 61  1  0
 11 62  1  0
 12 63  1  0
 15 64  1  0
 16 65  1  0
 22 66  1  0
 23 67  1  0
 24 68  1  0
 25 69  1  0
 28 70  1  0
 28 71  1  0
 30 72  1  0
 38 73  1  0
 38 74  1  0
 40 75  1  0
 41 76  1  0
 44 77  1  0
 45 78  1  0
M  END
$$$$
