@<TRIPOS>MOLECULE
*****
 78 81 0 0 0
SMALL
GASTEIGER

@<TRIPOS>ATOM
      1 C           2.3490    6.0249   -0.7431 C.3     1  UNL1       -0.0524
      2 C           2.1141    5.0111    0.3619 C.3     1  UNL1       -0.0039
      3 N           0.7830    4.8942    0.7695 N.3     1  UNL1       -0.3014
      4 C           0.1282    5.9257    1.4456 C.3     1  UNL1       -0.0039
      5 C           0.6443    6.1890    2.8467 C.3     1  UNL1       -0.0524
      6 C          -0.0104    3.8209    0.3547 C.3     1  UNL1        0.0147
      7 C           0.3605    2.4904    0.9095 C.3     1  UNL1        0.0278
      8 N          -0.5131    1.3997    0.4154 N.am    1  UNL1       -0.2945
      9 C          -0.0753    0.7604   -0.7809 C.3     1  UNL1        0.0398
     10 C           0.9151   -0.3081   -0.6288 C.ar    1  UNL1       -0.0301
     11 C           0.5291   -1.6080   -0.4256 C.ar    1  UNL1       -0.0565
     12 C           1.4873   -2.6286   -0.3118 C.ar    1  UNL1       -0.0537
     13 C           2.8314   -2.3527   -0.4004 C.ar    1  UNL1       -0.0179
     14 C           3.8738   -3.3755   -0.3148 C.ar    1  UNL1       -0.0179
     15 C           3.7393   -4.5092    0.4447 C.ar    1  UNL1       -0.0535
     16 C           4.7393   -5.4838    0.5134 C.ar    1  UNL1       -0.0495
     17 C           5.9167   -5.3409   -0.1898 C.ar    1  UNL1        0.0548
     18 C           6.9981   -6.3680   -0.1393 C.3     1  UNL1        0.4174
     19 F           7.4262   -6.6204   -1.4290 F       1  UNL1       -0.1659
     20 F           6.5694   -7.5522    0.3783 F       1  UNL1       -0.1659
     21 F           8.0971   -5.9504    0.5872 F       1  UNL1       -0.1659
     22 C           6.0497   -4.1988   -0.9525 C.ar    1  UNL1       -0.0495
     23 C           5.0662   -3.2356   -1.0229 C.ar    1  UNL1       -0.0535
     24 C           3.1827   -1.0152   -0.6070 C.ar    1  UNL1       -0.0537
     25 C           2.2695    0.0027   -0.7224 C.ar    1  UNL1       -0.0565
     26 C          -1.6681    1.0427    1.0979 C.2     1  UNL1        0.2357
     27 O          -1.9415    1.6981    2.1702 O.2     1  UNL1       -0.2736
     28 C          -2.6229    0.0006    0.7410 C.3     1  UNL1        0.1015
     29 N          -3.9878    0.5269    0.6660 N.ar    1  UNL1       -0.3169
     30 C          -4.6432    0.6595    1.8517 C.ar    1  UNL1        0.0267
     31 C          -5.8939    1.2174    1.8637 C.ar    1  UNL1        0.1001
     32 BR         -6.8339    1.4211    3.4902 Br      1  UNL1       -0.0431
     33 C          -6.4381    1.6234    0.6619 C.ar    1  UNL1        0.2879
     34 O          -7.5932    2.1362    0.6949 O.2     1  UNL1       -0.2646
     35 N          -5.7429    1.4646   -0.4718 N.ar    1  UNL1       -0.1841
     36 C          -4.5084    0.9134   -0.4921 C.ar    1  UNL1        0.1733
     37 S          -3.7410    0.6895   -2.0903 S.3     1  UNL1       -0.0829
     38 C          -4.3338   -0.8891   -2.8169 C.3     1  UNL1        0.0262
     39 C          -3.8798   -2.0470   -2.0243 C.ar    1  UNL1       -0.0370
     40 C          -4.6510   -2.4910   -0.9454 C.ar    1  UNL1       -0.0551
     41 C          -4.2853   -3.5678   -0.1736 C.ar    1  UNL1       -0.0262
     42 C          -3.1215   -4.2391   -0.4649 C.ar    1  UNL1        0.1234
     43 F          -2.7256   -5.3187    0.2853 F       1  UNL1       -0.2055
     44 C          -2.3426   -3.8122   -1.5325 C.ar    1  UNL1       -0.0262
     45 C          -2.7235   -2.7369   -2.2896 C.ar    1  UNL1       -0.0551
     46 H           3.4161    6.3220   -0.6938 H       1  UNL1        0.0242
     47 H           1.7439    6.9450   -0.5877 H       1  UNL1        0.0242
     48 H           2.1436    5.5813   -1.7392 H       1  UNL1        0.0242
     49 H           2.8332    5.1948    1.2104 H       1  UNL1        0.0424
     50 H           2.4475    4.0314   -0.0531 H       1  UNL1        0.0424
     51 H           0.0616    6.8942    0.8628 H       1  UNL1        0.0424
     52 H          -0.9471    5.6395    1.5849 H       1  UNL1        0.0424
     53 H           1.7502    6.1152    2.8966 H       1  UNL1        0.0242
     54 H           0.2423    5.4563    3.5764 H       1  UNL1        0.0242
     55 H           0.3532    7.1995    3.1956 H       1  UNL1        0.0242
     56 H          -1.0731    4.0408    0.6714 H       1  UNL1        0.0442
     57 H          -0.0599    3.8150   -0.7744 H       1  UNL1        0.0442
     58 H           1.4117    2.2862    0.7624 H       1  UNL1        0.0477
     59 H           0.1571    2.5203    2.0137 H       1  UNL1        0.0477
     60 H          -0.9352    0.3207   -1.3290 H       1  UNL1        0.0514
     61 H           0.3383    1.5197   -1.5218 H       1  UNL1        0.0514
     62 H          -0.4982   -1.9168   -0.3446 H       1  UNL1        0.0621
     63 H           1.1763   -3.6606   -0.1500 H       1  UNL1        0.0624
     64 H           2.8181   -4.6459    1.0105 H       1  UNL1        0.0624
     65 H           4.6184   -6.3886    1.1266 H       1  UNL1        0.0623
     66 H           6.9826   -4.0567   -1.5246 H       1  UNL1        0.0623
     67 H           5.1715   -2.3452   -1.6174 H       1  UNL1        0.0624
     68 H           4.2444   -0.7962   -0.6762 H       1  UNL1        0.0624
     69 H           2.5659    1.0397   -0.8884 H       1  UNL1        0.0621
     70 H          -2.3834   -0.4379   -0.2197 H       1  UNL1        0.0588
     71 H          -2.6510   -0.8402    1.4744 H       1  UNL1        0.0588
     72 H          -4.1976    0.3337    2.7901 H       1  UNL1        0.0823
     73 H          -4.0316   -0.9815   -3.8852 H       1  UNL1        0.0429
     74 H          -5.4580   -0.8874   -2.7924 H       1  UNL1        0.0429
     75 H          -5.5790   -1.9313   -0.7367 H       1  UNL1        0.0621
     76 H          -4.9244   -3.8704    0.6558 H       1  UNL1        0.0646
     77 H          -1.4214   -4.3615   -1.7450 H       1  UNL1        0.0646
     78 H          -2.1093   -2.3979   -3.1323 H       1  UNL1        0.0621
@<TRIPOS>BOND
     1     1     2    1
     2     2     3    1
     3     3     4    1
     4     4     5    1
     5     3     6    1
     6     6     7    1
     7     7     8    1
     8     8     9    1
     9     9    10    1
    10    10    11   ar
    11    11    12   ar
    12    12    13   ar
    13    13    14    1
    14    14    15   ar
    15    15    16   ar
    16    16    17   ar
    17    17    18    1
    18    18    19    1
    19    18    20    1
    20    18    21    1
    21    17    22   ar
    22    22    23   ar
    23    13    24   ar
    24    24    25   ar
    25     8    26   am
    26    26    27    2
    27    26    28    1
    28    28    29    1
    29    29    30   ar
    30    30    31   ar
    31    31    32    1
    32    31    33   ar
    33    33    34    2
    34    33    35   ar
    35    35    36   ar
    36    36    37    1
    37    37    38    1
    38    38    39    1
    39    39    40   ar
    40    40    41   ar
    41    41    42   ar
    42    42    43    1
    43    42    44   ar
    44    44    45   ar
    45    25    10   ar
    46    36    29   ar
    47    45    39   ar
    48    23    14   ar
    49     1    46    1
    50     1    47    1
    51     1    48    1
    52     2    49    1
    53     2    50    1
    54     4    51    1
    55     4    52    1
    56     5    53    1
    57     5    54    1
    58     5    55    1
    59     6    56    1
    60     6    57    1
    61     7    58    1
    62     7    59    1
    63     9    60    1
    64     9    61    1
    65    11    62    1
    66    12    63    1
    67    15    64    1
    68    16    65    1
    69    22    66    1
    70    23    67    1
    71    24    68    1
    72    25    69    1
    73    28    70    1
    74    28    71    1
    75    30    72    1
    76    38    73    1
    77    38    74    1
    78    40    75    1
    79    41    76    1
    80    44    77    1
    81    45    78    1
