
     RDKit          3D

 82 88  0  0  0  0  0  0  0  0999 V2000
  -10.3343    1.3981    0.4730 C   0  0  0  0  0  0  0  0  0  0  0  0
   -8.9920    0.9470    0.7880 N   0  0  0  0  0  0  0  0  0  0  0  0
   -8.8355    0.0458    1.9142 C   0  0  0  0  0  0  0  0  0  0  0  0
   -7.8527    1.3487    0.0639 C   0  0  0  0  0  0  0  0  0  0  0  0
   -7.9950    2.1350   -0.8855 O   0  0  0  0  0  0  0  0  0  0  0  0
   -6.5523    0.8637    0.4134 C   0  0  0  0  0  0  0  0  0  0  0  0
   -5.8785    1.3432    1.5430 C   0  0  0  0  0  0  0  0  0  0  0  0
   -4.6933    0.6894    1.5620 C   0  0  0  0  0  0  0  0  0  0  0  0
   -3.6192    0.7610    2.4488 C   0  0  0  0  0  0  0  0  0  0  0  0
   -2.5264   -0.0166    2.2310 N   0  0  0  0  0  0  0  0  0  0  0  0
   -2.4754   -0.8416    1.1819 C   0  0  0  0  0  0  0  0  0  0  0  0
   -1.3565   -1.6909    0.8867 N   0  0  0  0  0  0  0  0  0  0  0  0
   -0.2739   -1.1118    0.1687 C   0  0  0  0  0  0  0  0  0  0  0  0
   -0.2897    0.2314   -0.1715 C   0  0  0  0  0  0  0  0  0  0  0  0
    0.7152    0.8472   -0.8737 C   0  0  0  0  0  0  0  0  0  0  0  0
    1.8278    0.1049   -1.2826 C   0  0  0  0  0  0  0  0  0  0  0  0
    2.9047    0.7166   -2.0342 C   0  0  0  0  0  0  0  0  0  0  0  0
    2.6113    1.3417   -3.0760 O   0  0  0  0  0  0  0  0  0  0  0  0
    4.2398    0.6000   -1.5918 N   0  0  0  0  0  0  0  0  0  0  0  0
    5.2852    1.2109   -2.3688 C   0  0  0  0  0  0  0  0  0  0  0  0
    6.4160    1.6854   -1.4944 C   0  0  0  0  0  0  0  0  0  0  0  0
    5.9033    2.7868   -0.5677 C   0  0  0  0  0  0  0  0  0  0  0  0
    5.2842    1.9951    0.5712 C   0  0  0  0  0  0  0  0  0  0  0  0
    5.6883    0.5691    0.3630 C   0  0  0  0  0  0  0  0  0  0  0  0
    4.5372   -0.1237   -0.3927 C   0  0  0  0  0  0  0  0  0  0  0  0
    6.8132    0.6720   -0.5371 N   0  0  0  0  0  0  0  0  0  0  0  0
    8.0361   -0.0294   -0.5463 C   0  0  0  0  0  0  0  0  0  0  0  0
    8.9206    0.1993   -1.4481 O   0  0  0  0  0  0  0  0  0  0  0  0
    8.3718   -1.0562    0.4621 C   0  0  0  0  0  0  0  0  0  0  0  0
    8.6994   -0.4871    1.8169 C   0  0  0  0  0  0  0  0  0  0  0  0
   10.0778    0.1340    1.5670 C   0  0  0  0  0  0  0  0  0  0  0  0
   10.6959   -0.8426    0.6126 C   0  0  0  0  0  0  0  0  0  0  0  0
    9.6502   -1.6872    0.1212 N   0  0  0  0  0  0  0  0  0  0  0  0
    1.7870   -1.2301   -0.9144 C   0  0  0  0  0  0  0  0  0  0  0  0
    0.7919   -1.8022   -0.2277 N   0  0  0  0  0  0  0  0  0  0  0  0
   -3.5375   -0.8830    0.3450 N   0  0  0  0  0  0  0  0  0  0  0  0
   -4.6517   -0.1507    0.4877 C   0  0  0  0  0  0  0  0  0  0  0  0
   -5.8258   -0.0337   -0.2266 N   0  0  0  0  0  0  0  0  0  0  0  0
   -5.9930   -0.8294   -1.3807 C   0  0  0  0  0  0  0  0  0  0  0  0
   -7.2282   -0.8402   -2.1354 C   0  0  0  0  0  0  0  0  0  0  0  0
   -8.1473   -1.7914   -1.3937 C   0  0  0  0  0  0  0  0  0  0  0  0
   -7.2304   -2.7240   -0.6493 C   0  0  0  0  0  0  0  0  0  0  0  0
   -5.8272   -2.2941   -0.9763 C   0  0  0  0  0  0  0  0  0  0  0  0
  -11.0636    0.8538    1.0944 H   0  0  0  0  0  0  0  0  0  0  0  0
  -10.4528    2.4968    0.4895 H   0  0  0  0  0  0  0  0  0  0  0  0
  -10.5188    1.0340   -0.5798 H   0  0  0  0  0  0  0  0  0  0  0  0
   -8.5781    0.5919    2.8450 H   0  0  0  0  0  0  0  0  0  0  0  0
   -8.0489   -0.7051    1.7150 H   0  0  0  0  0  0  0  0  0  0  0  0
   -9.7992   -0.4998    2.1220 H   0  0  0  0  0  0  0  0  0  0  0  0
   -6.2376    2.0875    2.2568 H   0  0  0  0  0  0  0  0  0  0  0  0
   -3.7114    1.4380    3.2706 H   0  0  0  0  0  0  0  0  0  0  0  0
   -1.3170   -2.6845    1.1724 H   0  0  0  0  0  0  0  0  0  0  0  0
   -1.1301    0.8711    0.1158 H   0  0  0  0  0  0  0  0  0  0  0  0
    0.6975    1.8998   -1.1359 H   0  0  0  0  0  0  0  0  0  0  0  0
    5.6441    0.5555   -3.1912 H   0  0  0  0  0  0  0  0  0  0  0  0
    4.8362    2.1042   -2.9011 H   0  0  0  0  0  0  0  0  0  0  0  0
    7.2765    2.0486   -2.0943 H   0  0  0  0  0  0  0  0  0  0  0  0
    5.1557    3.4415   -1.0529 H   0  0  0  0  0  0  0  0  0  0  0  0
    6.7593    3.3498   -0.1498 H   0  0  0  0  0  0  0  0  0  0  0  0
    5.5917    2.3956    1.5643 H   0  0  0  0  0  0  0  0  0  0  0  0
    4.1874    2.1470    0.5229 H   0  0  0  0  0  0  0  0  0  0  0  0
    5.8887    0.0285    1.2950 H   0  0  0  0  0  0  0  0  0  0  0  0
    3.6353   -0.1353    0.2550 H   0  0  0  0  0  0  0  0  0  0  0  0
    4.8284   -1.1808   -0.5971 H   0  0  0  0  0  0  0  0  0  0  0  0
    7.6176   -1.8755    0.4904 H   0  0  0  0  0  0  0  0  0  0  0  0
    8.0676    0.3302    2.1548 H   0  0  0  0  0  0  0  0  0  0  0  0
    8.7863   -1.3485    2.5151 H   0  0  0  0  0  0  0  0  0  0  0  0
    9.9193    1.1325    1.1006 H   0  0  0  0  0  0  0  0  0  0  0  0
   10.6451    0.2528    2.5135 H   0  0  0  0  0  0  0  0  0  0  0  0
   11.4671   -1.4832    1.1040 H   0  0  0  0  0  0  0  0  0  0  0  0
   11.2209   -0.2920   -0.2228 H   0  0  0  0  0  0  0  0  0  0  0  0
    9.7236   -1.6989   -0.9306 H   0  0  0  0  0  0  0  0  0  0  0  0
    2.6600   -1.8176   -1.2442 H   0  0  0  0  0  0  0  0  0  0  0  0
   -5.1294   -0.6791   -2.1218 H   0  0  0  0  0  0  0  0  0  0  0  0
   -7.0039   -1.4187   -3.1054 H   0  0  0  0  0  0  0  0  0  0  0  0
   -7.6821    0.0668   -2.4970 H   0  0  0  0  0  0  0  0  0  0  0  0
   -8.7381   -2.4319   -2.1146 H   0  0  0  0  0  0  0  0  0  0  0  0
   -8.8957   -1.3148   -0.7670 H   0  0  0  0  0  0  0  0  0  0  0  0
   -7.4033   -3.7878   -0.9376 H   0  0  0  0  0  0  0  0  0  0  0  0
   -7.4188   -2.6120    0.4399 H   0  0  0  0  0  0  0  0  0  0  0  0
   -5.3874   -2.9104   -1.7892 H   0  0  0  0  0  0  0  0  0  0  0  0
   -5.2333   -2.4101   -0.0394 H   0  0  0  0  0  0  0  0  0  0  0  0
  1  2  1  0
  2  3  1  0
  2  4  1  0
  4  5  2  0
  4  6  1  0
  6  7  2  0
  7  8  1  0
  8  9  2  0
  9 10  1  0
 10 11  2  0
 11 12  1  0
 12 13  1  0
 13 14  2  0
 14 15  1  0
 15 16  2  0
 16 17  1  0
 17 18  2  0
 17 19  1  0
 19 20  1  0
 20 21  1  0
 21 22  1  0
 22 23  1  0
 23 24  1  0
 24 25  1  0
 24 26  1  0
 26 27  1  0
 27 28  2  0
 27 29  1  0
 29 30  1  0
 30 31  1  0
 31 32  1  0
 32 33  1  0
 16 34  1  0
 34 35  2  0
 11 36  1  0
 36 37  2  0
 37 38  1  0
 38 39  1  0
 39 40  1  0
 40 41  1  0
 41 42  1  0
 42 43  1  0
 38  6  1  0
 43 39  1  0
 37  8  1  0
 35 13  1  0
 25 19  1  0
 33 29  1  0
 26 21  1  0
  1 44  1  0
  1 45  1  0
  1 46  1  0
  3 47  1  0
  3 48  1  0
  3 49  1  0
  7 50  1  0
  9 51  1  0
 12 52  1  0
 14 53  1  0
 15 54  1  0
 20 55  1  0
 20 56  1  0
 21 57  1  0
 22 58  1  0
 22 59  1  0
 23 60  1  0
 23 61  1  0
 24 62  1  0
 25 63  1  0
 25 64  1  0
 29 65  1  0
 30 66  1  0
 30 67  1  0
 31 68  1  0
 31 69  1  0
 32 70  1  0
 32 71  1  0
 33 72  1  0
 34 73  1  0
 39 74  1  0
 40 75  1  0
 40 76  1  0
 41 77  1  0
 41 78  1  0
 42 79  1  0
 42 80  1  0
 43 81  1  0
 43 82  1  0
M  END
$$$$
