@<TRIPOS>MOLECULE
*****
 82 88 0 0 0
SMALL
GASTEIGER

@<TRIPOS>ATOM
      1 C         -10.3343    1.3981    0.4730 C.3     1  UNL1        0.0032
      2 N          -8.9920    0.9470    0.7880 N.am    1  UNL1       -0.3024
      3 C          -8.8355    0.0458    1.9142 C.3     1  UNL1        0.0032
      4 C          -7.8527    1.3487    0.0639 C.2     1  UNL1        0.2627
      5 O          -7.9950    2.1350   -0.8855 O.2     1  UNL1       -0.2684
      6 C          -6.5523    0.8637    0.4134 C.ar    1  UNL1        0.1070
      7 C          -5.8785    1.3432    1.5430 C.ar    1  UNL1       -0.0209
      8 C          -4.6933    0.6894    1.5620 C.ar    1  UNL1        0.0378
      9 C          -3.6192    0.7610    2.4488 C.ar    1  UNL1        0.0419
     10 N          -2.5264   -0.0166    2.2310 N.ar    1  UNL1       -0.2219
     11 C          -2.4754   -0.8416    1.1819 C.ar    1  UNL1        0.2224
     12 N          -1.3565   -1.6909    0.8867 N.pl3   1  UNL1       -0.2685
     13 C          -0.2739   -1.1118    0.1687 C.ar    1  UNL1        0.1250
     14 C          -0.2897    0.2314   -0.1715 C.ar    1  UNL1       -0.0208
     15 C           0.7152    0.8472   -0.8737 C.ar    1  UNL1       -0.0449
     16 C           1.8278    0.1049   -1.2826 C.ar    1  UNL1        0.0551
     17 C           2.9047    0.7166   -2.0342 C.2     1  UNL1        0.2482
     18 O           2.6113    1.3417   -3.0760 O.2     1  UNL1       -0.2699
     19 N           4.2398    0.6000   -1.5918 N.am    1  UNL1       -0.2940
     20 C           5.2852    1.2109   -2.3688 C.3     1  UNL1        0.0337
     21 C           6.4160    1.6854   -1.4944 C.3     1  UNL1        0.0422
     22 C           5.9033    2.7868   -0.5677 C.3     1  UNL1       -0.0311
     23 C           5.2842    1.9951    0.5712 C.3     1  UNL1       -0.0311
     24 C           5.6883    0.5691    0.3630 C.3     1  UNL1        0.0422
     25 C           4.5372   -0.1237   -0.3927 C.3     1  UNL1        0.0337
     26 N           6.8132    0.6720   -0.5371 N.am    1  UNL1       -0.2911
     27 C           8.0361   -0.0294   -0.5463 C.2     1  UNL1        0.2332
     28 O           8.9206    0.1993   -1.4481 O.2     1  UNL1       -0.2739
     29 C           8.3718   -1.0562    0.4621 C.3     1  UNL1        0.0850
     30 C           8.6994   -0.4871    1.8169 C.3     1  UNL1       -0.0279
     31 C          10.0778    0.1340    1.5670 C.3     1  UNL1       -0.0386
     32 C          10.6959   -0.8426    0.6126 C.3     1  UNL1       -0.0034
     33 N           9.6502   -1.6872    0.1212 N.3     1  UNL1       -0.3056
     34 C           1.7870   -1.2301   -0.9144 C.ar    1  UNL1        0.0418
     35 N           0.7919   -1.8022   -0.2277 N.ar    1  UNL1       -0.2394
     36 N          -3.5375   -0.8830    0.3450 N.ar    1  UNL1       -0.1962
     37 C          -4.6517   -0.1507    0.4877 C.ar    1  UNL1        0.1466
     38 N          -5.8258   -0.0337   -0.2266 N.ar    1  UNL1       -0.3180
     39 C          -5.9930   -0.8294   -1.3807 C.3     1  UNL1        0.0366
     40 C          -7.2282   -0.8402   -2.1354 C.3     1  UNL1       -0.0320
     41 C          -8.1473   -1.7914   -1.3937 C.3     1  UNL1       -0.0511
     42 C          -7.2304   -2.7240   -0.6493 C.3     1  UNL1       -0.0511
     43 C          -5.8272   -2.2941   -0.9763 C.3     1  UNL1       -0.0320
     44 H         -11.0636    0.8538    1.0944 H       1  UNL1        0.0428
     45 H         -10.4528    2.4968    0.4895 H       1  UNL1        0.0428
     46 H         -10.5188    1.0340   -0.5798 H       1  UNL1        0.0428
     47 H          -8.5781    0.5919    2.8450 H       1  UNL1        0.0428
     48 H          -8.0489   -0.7051    1.7150 H       1  UNL1        0.0428
     49 H          -9.7992   -0.4998    2.1220 H       1  UNL1        0.0428
     50 H          -6.2376    2.0875    2.2568 H       1  UNL1        0.0647
     51 H          -3.7114    1.4380    3.2706 H       1  UNL1        0.0838
     52 H          -1.3170   -2.6845    1.1724 H       1  UNL1        0.1564
     53 H          -1.1301    0.8711    0.1158 H       1  UNL1        0.0652
     54 H           0.6975    1.8998   -1.1359 H       1  UNL1        0.0627
     55 H           5.6441    0.5555   -3.1912 H       1  UNL1        0.0483
     56 H           4.8362    2.1042   -2.9011 H       1  UNL1        0.0483
     57 H           7.2765    2.0486   -2.0943 H       1  UNL1        0.0516
     58 H           5.1557    3.4415   -1.0529 H       1  UNL1        0.0284
     59 H           6.7593    3.3498   -0.1498 H       1  UNL1        0.0284
     60 H           5.5917    2.3956    1.5643 H       1  UNL1        0.0284
     61 H           4.1874    2.1470    0.5229 H       1  UNL1        0.0284
     62 H           5.8887    0.0285    1.2950 H       1  UNL1        0.0516
     63 H           3.6353   -0.1353    0.2550 H       1  UNL1        0.0483
     64 H           4.8284   -1.1808   -0.5971 H       1  UNL1        0.0483
     65 H           7.6176   -1.8755    0.4904 H       1  UNL1        0.0556
     66 H           8.0676    0.3302    2.1548 H       1  UNL1        0.0285
     67 H           8.7863   -1.3485    2.5151 H       1  UNL1        0.0285
     68 H           9.9193    1.1325    1.1006 H       1  UNL1        0.0278
     69 H          10.6451    0.2528    2.5135 H       1  UNL1        0.0278
     70 H          11.4671   -1.4832    1.1040 H       1  UNL1        0.0424
     71 H          11.2209   -0.2920   -0.2228 H       1  UNL1        0.0424
     72 H           9.7236   -1.6989   -0.9306 H       1  UNL1        0.1226
     73 H           2.6600   -1.8176   -1.2442 H       1  UNL1        0.0838
     74 H          -5.1294   -0.6791   -2.1218 H       1  UNL1        0.0528
     75 H          -7.0039   -1.4187   -3.1054 H       1  UNL1        0.0285
     76 H          -7.6821    0.0668   -2.4970 H       1  UNL1        0.0285
     77 H          -8.7381   -2.4319   -2.1146 H       1  UNL1        0.0266
     78 H          -8.8957   -1.3148   -0.7670 H       1  UNL1        0.0266
     79 H          -7.4033   -3.7878   -0.9376 H       1  UNL1        0.0266
     80 H          -7.4188   -2.6120    0.4399 H       1  UNL1        0.0266
     81 H          -5.3874   -2.9104   -1.7892 H       1  UNL1        0.0285
     82 H          -5.2333   -2.4101   -0.0394 H       1  UNL1        0.0285
@<TRIPOS>BOND
     1     1     2    1
     2     2     3    1
     3     2     4   am
     4     4     5    2
     5     4     6    1
     6     6     7   ar
     7     7     8   ar
     8     8     9   ar
     9     9    10   ar
    10    10    11   ar
    11    11    12    1
    12    12    13    1
    13    13    14   ar
    14    14    15   ar
    15    15    16   ar
    16    16    17    1
    17    17    18    2
    18    17    19   am
    19    19    20    1
    20    20    21    1
    21    21    22    1
    22    22    23    1
    23    23    24    1
    24    24    25    1
    25    24    26    1
    26    26    27   am
    27    27    28    2
    28    27    29    1
    29    29    30    1
    30    30    31    1
    31    31    32    1
    32    32    33    1
    33    16    34   ar
    34    34    35   ar
    35    11    36   ar
    36    36    37   ar
    37    37    38   ar
    38    38    39    1
    39    39    40    1
    40    40    41    1
    41    41    42    1
    42    42    43    1
    43    38     6   ar
    44    43    39    1
    45    37     8   ar
    46    35    13   ar
    47    25    19    1
    48    33    29    1
    49    26    21    1
    50     1    44    1
    51     1    45    1
    52     1    46    1
    53     3    47    1
    54     3    48    1
    55     3    49    1
    56     7    50    1
    57     9    51    1
    58    12    52    1
    59    14    53    1
    60    15    54    1
    61    20    55    1
    62    20    56    1
    63    21    57    1
    64    22    58    1
    65    22    59    1
    66    23    60    1
    67    23    61    1
    68    24    62    1
    69    25    63    1
    70    25    64    1
    71    29    65    1
    72    30    66    1
    73    30    67    1
    74    31    68    1
    75    31    69    1
    76    32    70    1
    77    32    71    1
    78    33    72    1
    79    34    73    1
    80    39    74    1
    81    40    75    1
    82    40    76    1
    83    41    77    1
    84    41    78    1
    85    42    79    1
    86    42    80    1
    87    43    81    1
    88    43    82    1
