@<TRIPOS>MOLECULE
*****
 33 35 0 0 0
SMALL
GASTEIGER

@<TRIPOS>ATOM
      1 N           2.3197   -0.4287   -1.6274 N.3     1  UNL1       -0.3235
      2 C           2.5416   -0.7554   -0.2452 C.3     1  UNL1        0.0336
      3 C           1.8250   -2.0005    0.1906 C.3     1  UNL1       -0.0174
      4 C           0.3429   -1.9477   -0.0059 C.3     1  UNL1        0.0190
      5 N          -0.1551   -0.6104    0.0956 N.pl3   1  UNL1       -0.2997
      6 C          -1.4196   -0.2035   -0.4405 C.ar    1  UNL1        0.0354
      7 C          -1.7766    1.0651   -0.7482 C.ar    1  UNL1       -0.0389
      8 C          -3.0321    1.3233   -1.2425 C.ar    1  UNL1       -0.0402
      9 C          -3.9827    0.3405   -1.4525 C.ar    1  UNL1        0.0594
     10 CL         -5.5775    0.7011   -2.0848 Cl      1  UNL1       -0.0820
     11 C          -3.5950   -0.9439   -1.1320 C.ar    1  UNL1        0.0610
     12 CL         -4.7678   -2.2478   -1.3787 Cl      1  UNL1       -0.0820
     13 C          -2.3443   -1.2215   -0.6365 C.ar    1  UNL1       -0.0206
     14 C           0.6008    0.3645    0.7685 C.ar    1  UNL1        0.0386
     15 C           0.0174    1.3449    1.5634 C.ar    1  UNL1       -0.0400
     16 C           0.8229    2.2832    2.1906 C.ar    1  UNL1       -0.0600
     17 C           2.1962    2.2795    2.0535 C.ar    1  UNL1       -0.0613
     18 C           2.7702    1.2862    1.2503 C.ar    1  UNL1       -0.0553
     19 C           1.9970    0.3531    0.6242 C.ar    1  UNL1       -0.0093
     20 H           1.8638    0.4741   -1.7943 H       1  UNL1        0.1188
     21 H           1.9180   -1.2323   -2.1571 H       1  UNL1        0.1188
     22 H           3.6061   -0.8562    0.0138 H       1  UNL1        0.0509
     23 H           2.0669   -2.1138    1.2911 H       1  UNL1        0.0299
     24 H           2.2842   -2.9101   -0.2689 H       1  UNL1        0.0299
     25 H          -0.1992   -2.6613    0.6585 H       1  UNL1        0.0468
     26 H           0.1750   -2.2421   -1.0924 H       1  UNL1        0.0468
     27 H          -1.0508    1.8782   -0.6098 H       1  UNL1        0.0637
     28 H          -3.3475    2.3386   -1.4991 H       1  UNL1        0.0633
     29 H          -2.0777   -2.2646   -0.3939 H       1  UNL1        0.0651
     30 H          -1.0583    1.3194    1.6546 H       1  UNL1        0.0636
     31 H           0.3474    3.0360    2.8034 H       1  UNL1        0.0618
     32 H           2.8321    3.0086    2.5396 H       1  UNL1        0.0618
     33 H           3.8570    1.2436    1.1122 H       1  UNL1        0.0621
@<TRIPOS>BOND
     1     1     2    1
     2     2     3    1
     3     3     4    1
     4     4     5    1
     5     5     6    1
     6     6     7   ar
     7     7     8   ar
     8     8     9   ar
     9     9    10    1
    10     9    11   ar
    11    11    12    1
    12    11    13   ar
    13     5    14    1
    14    14    15   ar
    15    15    16   ar
    16    16    17   ar
    17    17    18   ar
    18    18    19   ar
    19    19     2    1
    20    13     6   ar
    21    19    14   ar
    22     1    20    1
    23     1    21    1
    24     2    22    1
    25     3    23    1
    26     3    24    1
    27     4    25    1
    28     4    26    1
    29     7    27    1
    30     8    28    1
    31    13    29    1
    32    15    30    1
    33    16    31    1
    34    17    32    1
    35    18    33    1
