@<TRIPOS>MOLECULE
*****
 39 41 0 0 0
SMALL
GASTEIGER

@<TRIPOS>ATOM
      1 N          -3.3465   -1.1807    2.2229 N.pl3   1  UNL1       -0.3273
      2 C          -2.0619   -0.8104    1.7358 C.ar    1  UNL1        0.2200
      3 N          -0.9064   -0.9665    2.4026 N.ar    1  UNL1       -0.1798
      4 C           0.1532   -0.5620    1.6363 C.ar    1  UNL1        0.2407
      5 N           1.5078   -0.5968    2.0427 N.pl3   1  UNL1       -0.2824
      6 C           2.5770   -0.1726    1.2292 C.ar    1  UNL1        0.0337
      7 C           2.4676    0.3252   -0.0467 C.ar    1  UNL1       -0.0386
      8 C           3.5909    0.7224   -0.7798 C.ar    1  UNL1       -0.0336
      9 C           4.8670    0.6414   -0.2758 C.ar    1  UNL1        0.1051
     10 S           6.2549    1.1476   -1.2203 S.O2    1  UNL1        0.0559
     11 N           6.8727   -0.1747   -2.1409 N.3     1  UNL1       -0.2035
     12 O           5.8672    2.2272   -2.2148 O.2     1  UNL1       -0.1533
     13 O           7.3137    1.7532   -0.3322 O.2     1  UNL1       -0.1533
     14 C           4.9910    0.1447    1.0011 C.ar    1  UNL1       -0.0336
     15 C           3.8941   -0.2455    1.7226 C.ar    1  UNL1       -0.0386
     16 N          -0.4006   -0.1614    0.4990 N.ar    1  UNL1       -0.1245
     17 N          -1.7237   -0.2982    0.5332 N.ar    1  UNL1       -0.1611
     18 C          -2.5393   -0.0138   -0.5703 C.2     1  UNL1        0.2870
     19 O          -1.9663    0.2242   -1.7005 O.2     1  UNL1       -0.2649
     20 C          -3.9717    0.0453   -0.5994 C.ar    1  UNL1        0.1115
     21 C          -4.6005   -0.5655   -1.6940 C.ar    1  UNL1        0.1385
     22 F          -3.8615   -1.2335   -2.6342 F       1  UNL1       -0.2046
     23 C          -5.9605   -0.5320   -1.8849 C.ar    1  UNL1       -0.0255
     24 C          -6.7656    0.1188   -0.9843 C.ar    1  UNL1       -0.0563
     25 C          -6.1560    0.7223    0.0925 C.ar    1  UNL1       -0.0255
     26 C          -4.7751    0.6978    0.2992 C.ar    1  UNL1        0.1385
     27 F          -4.2438    1.3746    1.3451 F       1  UNL1       -0.2046
     28 H          -3.6378   -0.8453    3.1558 H       1  UNL1        0.1452
     29 H          -3.9550   -1.7739    1.6343 H       1  UNL1        0.1452
     30 H           1.7191   -0.9573    2.9983 H       1  UNL1        0.1551
     31 H           1.5038    0.4219   -0.5167 H       1  UNL1        0.0637
     32 H           3.4734    1.1160   -1.7960 H       1  UNL1        0.0638
     33 H           7.7241   -0.5489   -1.6612 H       1  UNL1        0.1442
     34 H           7.1372    0.1218   -3.0986 H       1  UNL1        0.1442
     35 H           5.9950    0.0755    1.4113 H       1  UNL1        0.0638
     36 H           4.0021   -0.6390    2.7365 H       1  UNL1        0.0637
     37 H          -6.4486   -1.0016   -2.7273 H       1  UNL1        0.0646
     38 H          -7.8508    0.1538   -1.1214 H       1  UNL1        0.0619
     39 H          -6.7404    1.2460    0.8286 H       1  UNL1        0.0646
@<TRIPOS>BOND
     1     1     2    1
     2     2     3   ar
     3     3     4   ar
     4     4     5    1
     5     5     6    1
     6     6     7   ar
     7     7     8   ar
     8     8     9   ar
     9     9    10    1
    10    10    11    1
    11    10    12    2
    12    10    13    2
    13     9    14   ar
    14    14    15   ar
    15     4    16   ar
    16    16    17   ar
    17    17    18   am
    18    18    19    2
    19    18    20    1
    20    20    21   ar
    21    21    22    1
    22    21    23   ar
    23    23    24   ar
    24    24    25   ar
    25    25    26   ar
    26    26    27    1
    27    17     2   ar
    28    26    20   ar
    29    15     6   ar
    30     1    28    1
    31     1    29    1
    32     5    30    1
    33     7    31    1
    34     8    32    1
    35    11    33    1
    36    11    34    1
    37    14    35    1
    38    15    36    1
    39    23    37    1
    40    24    38    1
    41    25    39    1
