
     RDKit          3D

 40 42  0  0  0  0  0  0  0  0999 V2000
    6.4274    0.7293   -0.2609 C   0  0  0  0  0  0  0  0  0  0  0  0
    4.9515    0.7444   -0.0814 C   0  0  0  0  0  0  0  0  0  0  0  0
    4.3443    0.4719    1.1293 C   0  0  0  0  0  0  0  0  0  0  0  0
    2.9838    0.4873    1.2888 C   0  0  0  0  0  0  0  0  0  0  0  0
    2.1504    0.7801    0.2308 C   0  0  0  0  0  0  0  0  0  0  0  0
    0.3893    0.8041    0.4205 S   0  0  0  0  0  0  0  0  0  0  0  0
   -0.2507   -0.8267    0.0804 C   0  0  0  0  0  0  0  0  0  0  0  0
    0.6035   -1.8520   -0.2645 C   0  0  0  0  0  0  0  0  0  0  0  0
    0.1328   -3.1177   -0.5311 C   0  0  0  0  0  0  0  0  0  0  0  0
   -1.2420   -3.3136   -0.4365 C   0  0  0  0  0  0  0  0  0  0  0  0
   -2.0971   -2.2867   -0.0911 C   0  0  0  0  0  0  0  0  0  0  0  0
   -1.6172   -1.0237    0.1739 C   0  0  0  0  0  0  0  0  0  0  0  0
   -2.4524    0.0599    0.5314 N   0  0  0  0  0  0  0  0  0  0  0  0
   -2.5087    1.2795   -0.2859 C   0  0  0  0  0  0  0  0  0  0  0  0
   -3.9348    1.4764   -0.6970 C   0  0  0  0  0  0  0  0  0  0  0  0
   -4.8646    1.4303    0.3858 N   0  0  0  0  0  0  0  0  0  0  0  0
   -4.7190    0.3174    1.2612 C   0  0  0  0  0  0  0  0  0  0  0  0
   -3.3044    0.0602    1.7068 C   0  0  0  0  0  0  0  0  0  0  0  0
    2.7321    1.0588   -1.0012 C   0  0  0  0  0  0  0  0  0  0  0  0
    4.0993    1.0365   -1.1334 C   0  0  0  0  0  0  0  0  0  0  0  0
    6.7853    1.7666   -0.0105 H   0  0  0  0  0  0  0  0  0  0  0  0
    6.6295    0.5987   -1.3558 H   0  0  0  0  0  0  0  0  0  0  0  0
    6.9104   -0.0485    0.3354 H   0  0  0  0  0  0  0  0  0  0  0  0
    4.9801    0.2378    1.9805 H   0  0  0  0  0  0  0  0  0  0  0  0
    2.4932    0.2747    2.2360 H   0  0  0  0  0  0  0  0  0  0  0  0
    1.6704   -1.6767   -0.3321 H   0  0  0  0  0  0  0  0  0  0  0  0
    0.8143   -3.9120   -0.8003 H   0  0  0  0  0  0  0  0  0  0  0  0
   -1.5932   -4.3243   -0.6520 H   0  0  0  0  0  0  0  0  0  0  0  0
   -3.1649   -2.4670   -0.0246 H   0  0  0  0  0  0  0  0  0  0  0  0
   -2.1162    2.1001    0.3559 H   0  0  0  0  0  0  0  0  0  0  0  0
   -1.8928    1.1849   -1.1960 H   0  0  0  0  0  0  0  0  0  0  0  0
   -4.0057    2.4848   -1.1709 H   0  0  0  0  0  0  0  0  0  0  0  0
   -4.1736    0.7159   -1.4624 H   0  0  0  0  0  0  0  0  0  0  0  0
   -5.0586    2.3342    0.8364 H   0  0  0  0  0  0  0  0  0  0  0  0
   -5.1489   -0.6337    0.8559 H   0  0  0  0  0  0  0  0  0  0  0  0
   -5.3028    0.5482    2.1990 H   0  0  0  0  0  0  0  0  0  0  0  0
   -3.2951   -0.9167    2.2276 H   0  0  0  0  0  0  0  0  0  0  0  0
   -3.0260    0.8730    2.4090 H   0  0  0  0  0  0  0  0  0  0  0  0
    2.0953    1.2939   -1.8558 H   0  0  0  0  0  0  0  0  0  0  0  0
    4.5758    1.2505   -2.0842 H   0  0  0  0  0  0  0  0  0  0  0  0
  1  2  1  0
  2  3  2  0
  3  4  1  0
  4  5  2  0
  5  6  1  0
  6  7  1  0
  7  8  2  0
  8  9  1  0
  9 10  2  0
 10 11  1  0
 11 12  2  0
 12 13  1  0
 13 14  1  0
 14 15  1  0
 15 16  1  0
 16 17  1  0
 17 18  1  0
  5 19  1  0
 19 20  2  0
 20  2  1  0
 12  7  1  0
 18 13  1  0
  1 21  1  0
  1 22  1  0
  1 23  1  0
  3 24  1  0
  4 25  1  0
  8 26  1  0
  9 27  1  0
 10 28  1  0
 11 29  1  0
 14 30  1  0
 14 31  1  0
 15 32  1  0
 15 33  1  0
 16 34  1  0
 17 35  1  0
 17 36  1  0
 18 37  1  0
 18 38  1  0
 19 39  1  0
 20 40  1  0
M  END
$$$$
