@<TRIPOS>MOLECULE
*****
 40 42 0 0 0
SMALL
GASTEIGER

@<TRIPOS>ATOM
      1 C           6.4274    0.7293   -0.2609 C.3     1  UNL1       -0.0397
      2 C           4.9515    0.7444   -0.0814 C.ar    1  UNL1       -0.0504
      3 C           4.3443    0.4719    1.1293 C.ar    1  UNL1       -0.0578
      4 C           2.9838    0.4873    1.2888 C.ar    1  UNL1       -0.0477
      5 C           2.1504    0.7801    0.2308 C.ar    1  UNL1        0.0128
      6 S           0.3893    0.8041    0.4205 S.3     1  UNL1       -0.0876
      7 C          -0.2507   -0.8267    0.0804 C.ar    1  UNL1        0.0337
      8 C           0.6035   -1.8520   -0.2645 C.ar    1  UNL1       -0.0462
      9 C           0.1328   -3.1177   -0.5311 C.ar    1  UNL1       -0.0606
     10 C          -1.2420   -3.3136   -0.4365 C.ar    1  UNL1       -0.0599
     11 C          -2.0971   -2.2867   -0.0911 C.ar    1  UNL1       -0.0396
     12 C          -1.6172   -1.0237    0.1739 C.ar    1  UNL1        0.0437
     13 N          -2.4524    0.0599    0.5314 N.pl3   1  UNL1       -0.3266
     14 C          -2.5087    1.2795   -0.2859 C.3     1  UNL1        0.0248
     15 C          -3.9348    1.4764   -0.6970 C.3     1  UNL1        0.0117
     16 N          -4.8646    1.4303    0.3858 N.3     1  UNL1       -0.3130
     17 C          -4.7190    0.3174    1.2612 C.3     1  UNL1        0.0117
     18 C          -3.3044    0.0602    1.7068 C.3     1  UNL1        0.0248
     19 C           2.7321    1.0588   -1.0012 C.ar    1  UNL1       -0.0477
     20 C           4.0993    1.0365   -1.1334 C.ar    1  UNL1       -0.0578
     21 H           6.7853    1.7666   -0.0105 H       1  UNL1        0.0278
     22 H           6.6295    0.5987   -1.3558 H       1  UNL1        0.0278
     23 H           6.9104   -0.0485    0.3354 H       1  UNL1        0.0278
     24 H           4.9801    0.2378    1.9805 H       1  UNL1        0.0621
     25 H           2.4932    0.2747    2.2360 H       1  UNL1        0.0629
     26 H           1.6704   -1.6767   -0.3321 H       1  UNL1        0.0629
     27 H           0.8143   -3.9120   -0.8003 H       1  UNL1        0.0618
     28 H          -1.5932   -4.3243   -0.6520 H       1  UNL1        0.0618
     29 H          -3.1649   -2.4670   -0.0246 H       1  UNL1        0.0636
     30 H          -2.1162    2.1001    0.3559 H       1  UNL1        0.0476
     31 H          -1.8928    1.1849   -1.1960 H       1  UNL1        0.0476
     32 H          -4.0057    2.4848   -1.1709 H       1  UNL1        0.0439
     33 H          -4.1736    0.7159   -1.4624 H       1  UNL1        0.0439
     34 H          -5.0586    2.3342    0.8364 H       1  UNL1        0.1220
     35 H          -5.1489   -0.6337    0.8559 H       1  UNL1        0.0439
     36 H          -5.3028    0.5482    2.1990 H       1  UNL1        0.0439
     37 H          -3.2951   -0.9167    2.2276 H       1  UNL1        0.0476
     38 H          -3.0260    0.8730    2.4090 H       1  UNL1        0.0476
     39 H           2.0953    1.2939   -1.8558 H       1  UNL1        0.0629
     40 H           4.5758    1.2505   -2.0842 H       1  UNL1        0.0621
@<TRIPOS>BOND
     1     1     2    1
     2     2     3   ar
     3     3     4   ar
     4     4     5   ar
     5     5     6    1
     6     6     7    1
     7     7     8   ar
     8     8     9   ar
     9     9    10   ar
    10    10    11   ar
    11    11    12   ar
    12    12    13    1
    13    13    14    1
    14    14    15    1
    15    15    16    1
    16    16    17    1
    17    17    18    1
    18     5    19   ar
    19    19    20   ar
    20    20     2   ar
    21    12     7   ar
    22    18    13    1
    23     1    21    1
    24     1    22    1
    25     1    23    1
    26     3    24    1
    27     4    25    1
    28     8    26    1
    29     9    27    1
    30    10    28    1
    31    11    29    1
    32    14    30    1
    33    14    31    1
    34    15    32    1
    35    15    33    1
    36    16    34    1
    37    17    35    1
    38    17    36    1
    39    18    37    1
    40    18    38    1
    41    19    39    1
    42    20    40    1
