@<TRIPOS>MOLECULE
*****
 42 44 0 0 0
SMALL
GASTEIGER

@<TRIPOS>ATOM
      1 C          -3.3811    2.7126   -0.3099 C.3     1  UNL1        0.1427
      2 N          -2.6515    1.4758   -0.1196 N.ar    1  UNL1       -0.1778
      3 C          -1.5051    1.0913   -0.7123 C.ar    1  UNL1        0.2520
      4 N          -1.0930   -0.1230   -0.3097 N.ar    1  UNL1       -0.2455
      5 C           0.0152   -0.9529   -0.6204 C.3     1  UNL1        0.1704
      6 O           1.0977   -0.8366    0.2447 O.3     1  UNL1       -0.3455
      7 C           2.2261   -1.2462   -0.4290 C.3     1  UNL1        0.1134
      8 C           3.1596   -0.0300   -0.5147 C.3     1  UNL1        0.0878
      9 O           3.4449    0.3520    0.8077 O.3     1  UNL1       -0.2841
     10 P           4.4755    1.6955    0.8187 P.3     1  UNL1        0.4724
     11 O           4.9774    1.9584    2.4026 O.3     1  UNL1       -0.3026
     12 O           5.7956    1.4411   -0.2239 O.3     1  UNL1       -0.3026
     13 O           3.7460    2.9373    0.3396 O.2     1  UNL1       -0.2275
     14 C           1.8307   -1.5811   -1.8514 C.3     1  UNL1        0.1136
     15 O           1.3953   -2.8976   -1.8502 O.3     1  UNL1       -0.3864
     16 C           0.6471   -0.6443   -1.9820 C.3     1  UNL1        0.1287
     17 O          -0.1908   -0.9902   -3.0220 O.3     1  UNL1       -0.3847
     18 C          -2.0262   -0.5387    0.5896 C.ar    1  UNL1        0.1990
     19 C          -2.9804    0.4628    0.6930 C.ar    1  UNL1        0.3117
     20 C          -4.0745    0.3522    1.5318 C.ar    1  UNL1        0.2932
     21 O          -5.0640    1.2957    1.6934 O.3     1  UNL1       -0.4878
     22 N          -4.1947   -0.7816    2.2656 N.ar    1  UNL1       -0.1720
     23 C          -3.2697   -1.7691    2.1748 C.ar    1  UNL1        0.2255
     24 N          -3.3545   -2.8736    2.8668 N.2     1  UNL1       -0.2664
     25 N          -2.2145   -1.6381    1.3520 N.ar    1  UNL1       -0.3051
     26 H          -4.3676    2.4994   -0.7507 H       1  UNL1        0.0994
     27 H          -3.5148    3.2053    0.6892 H       1  UNL1        0.0994
     28 H          -2.8221    3.3681   -1.0068 H       1  UNL1        0.0994
     29 H          -0.9289    1.6476   -1.4389 H       1  UNL1        0.1602
     30 H          -0.2410   -2.0313   -0.6674 H       1  UNL1        0.0868
     31 H           2.7442   -2.0914    0.0648 H       1  UNL1        0.0647
     32 H           4.0878   -0.2826   -1.0407 H       1  UNL1        0.0592
     33 H           2.6403    0.8336   -0.9593 H       1  UNL1        0.0592
     34 H           5.8863    1.5678    2.5499 H       1  UNL1        0.2220
     35 H           5.9757    0.4518   -0.1883 H       1  UNL1        0.2220
     36 H           2.6215   -1.3767   -2.5780 H       1  UNL1        0.0647
     37 H           1.8264   -3.4717   -1.1890 H       1  UNL1        0.2100
     38 H           0.9969    0.3803   -2.0698 H       1  UNL1        0.0665
     39 H          -0.1411   -1.9427   -3.2061 H       1  UNL1        0.2101
     40 H          -5.9334    1.2208    1.1781 H       1  UNL1        0.2939
     41 H          -4.1477   -3.0029    3.5029 H       1  UNL1        0.1898
     42 H          -1.4935   -2.3964    1.2747 H       1  UNL1        0.1704
@<TRIPOS>UNITY_ATOM_ATTR
2 1
charge 1
@<TRIPOS>BOND
     1     1     2    1
     2     2     3   ar
     3     3     4   ar
     4     4     5    1
     5     5     6    1
     6     6     7    1
     7     7     8    1
     8     8     9    1
     9     9    10    1
    10    10    11    1
    11    10    12    1
    12    10    13    2
    13     7    14    1
    14    14    15    1
    15    14    16    1
    16    16    17    1
    17     4    18   ar
    18    18    19   ar
    19    19    20   ar
    20    20    21    1
    21    20    22   ar
    22    22    23   ar
    23    23    24    2
    24    23    25   ar
    25    19     2   ar
    26    16     5    1
    27    25    18   ar
    28     1    26    1
    29     1    27    1
    30     1    28    1
    31     3    29    1
    32     5    30    1
    33     7    31    1
    34     8    32    1
    35     8    33    1
    36    11    34    1
    37    12    35    1
    38    14    36    1
    39    15    37    1
    40    16    38    1
    41    17    39    1
    42    21    40    1
    43    24    41    1
    44    25    42    1
