@<TRIPOS>MOLECULE
*****
 20 19 0 0 0
SMALL
GASTEIGER

@<TRIPOS>ATOM
      1 CE          3.4481    0.3928    0.6512 C.3     1  MET1       -0.0181
      2 SD          2.7406   -0.6083   -0.6275 S.3     1  MET1       -0.1641
      3 CG          1.0032   -0.9680   -0.4611 C.3     1  MET1       -0.0047
      4 CB          0.0941    0.2054   -0.5864 C.3     1  MET1       -0.0183
      5 CA         -1.3223   -0.3071   -0.4197 C.3     1  MET1        0.1040
      6 N          -1.5749   -0.9374    0.8361 N.3     1  MET1       -0.3184
      7 C          -2.3345    0.7507   -0.6440 C.2     1  MET1        0.3217
      8 O          -3.4078    1.2050    0.1047 O.3     1  MET1       -0.4795
      9 OXT        -2.4464    1.5257   -1.6413 O.2     1  MET1       -0.2493
     10 HE1         3.9059   -0.3121    1.4094 H       1  MET1        0.0340
     11 HE2         2.7652    1.0695    1.1749 H       1  MET1        0.0340
     12 HE3         4.3423    0.9455    0.2562 H       1  MET1        0.0340
     13 HG1         0.8583   -1.4041    0.5610 H       1  MET1        0.0377
     14 HG2         0.7117   -1.7565   -1.1759 H       1  MET1        0.0377
     15 HB1         0.1404    0.6416   -1.6219 H       1  MET1        0.0293
     16 HB2         0.3094    0.9880    0.1472 H       1  MET1        0.0293
     17 HA         -1.5215   -1.0800   -1.2127 H       1  MET1        0.0574
     18 H1         -0.8105   -0.7497    1.5168 H       1  MET1        0.1190
     19 H2         -2.5229   -0.6993    1.2379 H       1  MET1        0.1190
     20 H          -4.3783    1.0981   -0.1557 H       1  MET1        0.2951
@<TRIPOS>BOND
     1     1     2    1
     2     2     3    1
     3     3     4    1
     4     4     5    1
     5     5     6    1
     6     5     7    1
     7     7     8    1
     8     7     9    2
     9     1    10    1
    10     1    11    1
    11     1    12    1
    12     3    13    1
    13     3    14    1
    14     4    15    1
    15     4    16    1
    16     5    17    1
    17     6    18    1
    18     6    19    1
    19     8    20    1
