@<TRIPOS>MOLECULE
*****
 54 57 0 0 0
SMALL
GASTEIGER

@<TRIPOS>ATOM
      1 C           6.7196    3.0594    1.3866 C.3     1  UNL1        0.0788
      2 O           6.3318    1.7062    1.3818 O.3     1  UNL1       -0.4951
      3 C           5.1657    1.2572    0.7814 C.ar    1  UNL1        0.1203
      4 C           4.8042   -0.0709    0.7874 C.ar    1  UNL1       -0.0165
      5 C           3.6507   -0.5418    0.1979 C.ar    1  UNL1       -0.0158
      6 C           2.7946    0.3291   -0.4369 C.ar    1  UNL1        0.1319
      7 O           1.6505   -0.1467   -1.0203 O.3     1  UNL1       -0.4256
      8 C           0.4349   -0.2554   -0.3599 C.2     1  UNL1        0.3175
      9 O           0.4131    0.1074    0.8292 O.2     1  UNL1       -0.2500
     10 C          -0.7860   -0.7707   -1.0071 C.3     1  UNL1        0.0791
     11 C          -2.0042   -0.7563   -0.0982 C.3     1  UNL1       -0.0001
     12 C          -2.5748    0.5638    0.1407 C.ar    1  UNL1       -0.0434
     13 C          -3.3866    1.1735   -0.8301 C.ar    1  UNL1       -0.0580
     14 C          -3.9630    2.4070   -0.6493 C.ar    1  UNL1       -0.0586
     15 C          -3.7577    3.1025    0.5197 C.ar    1  UNL1       -0.0504
     16 C          -4.3781    4.4476    0.7326 C.3     1  UNL1       -0.0397
     17 C          -2.9693    2.5464    1.5024 C.ar    1  UNL1       -0.0586
     18 C          -2.3997    1.2964    1.2908 C.ar    1  UNL1       -0.0580
     19 C          -1.8387   -1.6341    1.0934 C.3     1  UNL1       -0.0297
     20 C          -1.3292   -2.9902    0.6363 C.3     1  UNL1        0.0110
     21 C          -2.2782   -3.5679   -0.3993 C.3     1  UNL1       -0.0359
     22 C          -1.7192   -3.0227   -1.6807 C.3     1  UNL1       -0.0351
     23 C          -0.5075   -2.2322   -1.3284 C.3     1  UNL1        0.0239
     24 N          -0.0776   -2.8433   -0.0652 N.3     1  UNL1       -0.2986
     25 C           0.5213   -4.1110   -0.3403 C.3     1  UNL1       -0.0122
     26 C           3.1356    1.6632   -0.4557 C.ar    1  UNL1       -0.0158
     27 C           4.2933    2.1230    0.1381 C.ar    1  UNL1       -0.0165
     28 H           6.1041    3.6854    2.0566 H       1  UNL1        0.0660
     29 H           7.7872    3.1937    1.6358 H       1  UNL1        0.0660
     30 H           6.5611    3.4468    0.3504 H       1  UNL1        0.0660
     31 H           5.4941   -0.7605    1.2970 H       1  UNL1        0.0655
     32 H           3.4153   -1.5845    0.2306 H       1  UNL1        0.0655
     33 H          -1.0629   -0.2128   -1.9176 H       1  UNL1        0.0435
     34 H          -2.7868   -1.2897   -0.7500 H       1  UNL1        0.0358
     35 H          -3.5415    0.6087   -1.7558 H       1  UNL1        0.0620
     36 H          -4.5834    2.8646   -1.4004 H       1  UNL1        0.0620
     37 H          -4.0168    5.0770   -0.1231 H       1  UNL1        0.0278
     38 H          -5.4700    4.4291    0.6565 H       1  UNL1        0.0278
     39 H          -3.9902    4.9076    1.6413 H       1  UNL1        0.0278
     40 H          -2.8042    3.0872    2.4226 H       1  UNL1        0.0620
     41 H          -1.8018    0.9002    2.0949 H       1  UNL1        0.0620
     42 H          -2.8674   -1.8247    1.5126 H       1  UNL1        0.0286
     43 H          -1.1603   -1.2739    1.8636 H       1  UNL1        0.0286
     44 H          -1.2593   -3.6329    1.5351 H       1  UNL1        0.0463
     45 H          -3.3129   -3.2298   -0.1888 H       1  UNL1        0.0281
     46 H          -2.2226   -4.6612   -0.3113 H       1  UNL1        0.0281
     47 H          -2.4525   -2.5111   -2.3261 H       1  UNL1        0.0281
     48 H          -1.4135   -3.9301   -2.2850 H       1  UNL1        0.0281
     49 H           0.2467   -2.3518   -2.1169 H       1  UNL1        0.0471
     50 H           1.6165   -4.0124   -0.1830 H       1  UNL1        0.0391
     51 H           0.1322   -4.9081    0.3228 H       1  UNL1        0.0391
     52 H           0.3880   -4.4303   -1.3918 H       1  UNL1        0.0391
     53 H           2.5000    2.4047   -0.9423 H       1  UNL1        0.0655
     54 H           4.5558    3.1692    0.1207 H       1  UNL1        0.0655
@<TRIPOS>BOND
     1     1     2    1
     2     2     3    1
     3     3     4   ar
     4     4     5   ar
     5     5     6   ar
     6     6     7    1
     7     7     8    1
     8     8     9    2
     9     8    10    1
    10    10    11    1
    11    11    12    1
    12    12    13   ar
    13    13    14   ar
    14    14    15   ar
    15    15    16    1
    16    15    17   ar
    17    17    18   ar
    18    11    19    1
    19    19    20    1
    20    20    21    1
    21    21    22    1
    22    22    23    1
    23    23    24    1
    24    24    25    1
    25     6    26   ar
    26    26    27   ar
    27    27     3   ar
    28    23    10    1
    29    18    12   ar
    30    24    20    1
    31     1    28    1
    32     1    29    1
    33     1    30    1
    34     4    31    1
    35     5    32    1
    36    10    33    1
    37    11    34    1
    38    13    35    1
    39    14    36    1
    40    16    37    1
    41    16    38    1
    42    16    39    1
    43    17    40    1
    44    18    41    1
    45    19    42    1
    46    19    43    1
    47    20    44    1
    48    21    45    1
    49    21    46    1
    50    22    47    1
    51    22    48    1
    52    23    49    1
    53    25    50    1
    54    25    51    1
    55    25    52    1
    56    26    53    1
    57    27    54    1
