
     RDKit          3D

 54 57  0  0  0  0  0  0  0  0999 V2000
    6.7196    3.0594    1.3866 C   0  0  0  0  0  0  0  0  0  0  0  0
    6.3318    1.7062    1.3818 O   0  0  0  0  0  0  0  0  0  0  0  0
    5.1657    1.2572    0.7814 C   0  0  0  0  0  0  0  0  0  0  0  0
    4.8042   -0.0709    0.7874 C   0  0  0  0  0  0  0  0  0  0  0  0
    3.6507   -0.5418    0.1979 C   0  0  0  0  0  0  0  0  0  0  0  0
    2.7946    0.3291   -0.4369 C   0  0  0  0  0  0  0  0  0  0  0  0
    1.6505   -0.1467   -1.0203 O   0  0  0  0  0  0  0  0  0  0  0  0
    0.4349   -0.2554   -0.3599 C   0  0  0  0  0  0  0  0  0  0  0  0
    0.4131    0.1074    0.8292 O   0  0  0  0  0  0  0  0  0  0  0  0
   -0.7860   -0.7707   -1.0071 C   0  0  0  0  0  0  0  0  0  0  0  0
   -2.0042   -0.7563   -0.0982 C   0  0  0  0  0  0  0  0  0  0  0  0
   -2.5748    0.5638    0.1407 C   0  0  0  0  0  0  0  0  0  0  0  0
   -3.3866    1.1735   -0.8301 C   0  0  0  0  0  0  0  0  0  0  0  0
   -3.9630    2.4070   -0.6493 C   0  0  0  0  0  0  0  0  0  0  0  0
   -3.7577    3.1025    0.5197 C   0  0  0  0  0  0  0  0  0  0  0  0
   -4.3781    4.4476    0.7326 C   0  0  0  0  0  0  0  0  0  0  0  0
   -2.9693    2.5464    1.5024 C   0  0  0  0  0  0  0  0  0  0  0  0
   -2.3997    1.2964    1.2908 C   0  0  0  0  0  0  0  0  0  0  0  0
   -1.8387   -1.6341    1.0934 C   0  0  0  0  0  0  0  0  0  0  0  0
   -1.3292   -2.9902    0.6363 C   0  0  0  0  0  0  0  0  0  0  0  0
   -2.2782   -3.5679   -0.3993 C   0  0  0  0  0  0  0  0  0  0  0  0
   -1.7192   -3.0227   -1.6807 C   0  0  0  0  0  0  0  0  0  0  0  0
   -0.5075   -2.2322   -1.3284 C   0  0  0  0  0  0  0  0  0  0  0  0
   -0.0776   -2.8433   -0.0652 N   0  0  0  0  0  0  0  0  0  0  0  0
    0.5213   -4.1110   -0.3403 C   0  0  0  0  0  0  0  0  0  0  0  0
    3.1356    1.6632   -0.4557 C   0  0  0  0  0  0  0  0  0  0  0  0
    4.2933    2.1230    0.1381 C   0  0  0  0  0  0  0  0  0  0  0  0
    6.1041    3.6854    2.0566 H   0  0  0  0  0  0  0  0  0  0  0  0
    7.7872    3.1937    1.6358 H   0  0  0  0  0  0  0  0  0  0  0  0
    6.5611    3.4468    0.3504 H   0  0  0  0  0  0  0  0  0  0  0  0
    5.4941   -0.7605    1.2970 H   0  0  0  0  0  0  0  0  0  0  0  0
    3.4153   -1.5845    0.2306 H   0  0  0  0  0  0  0  0  0  0  0  0
   -1.0629   -0.2128   -1.9176 H   0  0  0  0  0  0  0  0  0  0  0  0
   -2.7868   -1.2897   -0.7500 H   0  0  0  0  0  0  0  0  0  0  0  0
   -3.5415    0.6087   -1.7558 H   0  0  0  0  0  0  0  0  0  0  0  0
   -4.5834    2.8646   -1.4004 H   0  0  0  0  0  0  0  0  0  0  0  0
   -4.0168    5.0770   -0.1231 H   0  0  0  0  0  0  0  0  0  0  0  0
   -5.4700    4.4291    0.6565 H   0  0  0  0  0  0  0  0  0  0  0  0
   -3.9902    4.9076    1.6413 H   0  0  0  0  0  0  0  0  0  0  0  0
   -2.8042    3.0872    2.4226 H   0  0  0  0  0  0  0  0  0  0  0  0
   -1.8018    0.9002    2.0949 H   0  0  0  0  0  0  0  0  0  0  0  0
   -2.8674   -1.8247    1.5126 H   0  0  0  0  0  0  0  0  0  0  0  0
   -1.1603   -1.2739    1.8636 H   0  0  0  0  0  0  0  0  0  0  0  0
   -1.2593   -3.6329    1.5351 H   0  0  0  0  0  0  0  0  0  0  0  0
   -3.3129   -3.2298   -0.1888 H   0  0  0  0  0  0  0  0  0  0  0  0
   -2.2226   -4.6612   -0.3113 H   0  0  0  0  0  0  0  0  0  0  0  0
   -2.4525   -2.5111   -2.3261 H   0  0  0  0  0  0  0  0  0  0  0  0
   -1.4135   -3.9301   -2.2850 H   0  0  0  0  0  0  0  0  0  0  0  0
    0.2467   -2.3518   -2.1169 H   0  0  0  0  0  0  0  0  0  0  0  0
    1.6165   -4.0124   -0.1830 H   0  0  0  0  0  0  0  0  0  0  0  0
    0.1322   -4.9081    0.3228 H   0  0  0  0  0  0  0  0  0  0  0  0
    0.3880   -4.4303   -1.3918 H   0  0  0  0  0  0  0  0  0  0  0  0
    2.5000    2.4047   -0.9423 H   0  0  0  0  0  0  0  0  0  0  0  0
    4.5558    3.1692    0.1207 H   0  0  0  0  0  0  0  0  0  0  0  0
  1  2  1  0
  2  3  1  0
  3  4  2  0
  4  5  1  0
  5  6  2  0
  6  7  1  0
  7  8  1  0
  8  9  2  0
  8 10  1  0
 10 11  1  0
 11 12  1  0
 12 13  2  0
 13 14  1  0
 14 15  2  0
 15 16  1  0
 15 17  1  0
 17 18  2  0
 11 19  1  0
 19 20  1  0
 20 21  1  0
 21 22  1  0
 22 23  1  0
 23 24  1  0
 24 25  1  0
  6 26  1  0
 26 27  2  0
 27  3  1  0
 23 10  1  0
 18 12  1  0
 24 20  1  0
  1 28  1  0
  1 29  1  0
  1 30  1  0
  4 31  1  0
  5 32  1  0
 10 33  1  0
 11 34  1  0
 13 35  1  0
 14 36  1  0
 16 37  1  0
 16 38  1  0
 16 39  1  0
 17 40  1  0
 18 41  1  0
 19 42  1  0
 19 43  1  0
 20 44  1  0
 21 45  1  0
 21 46  1  0
 22 47  1  0
 22 48  1  0
 23 49  1  0
 25 50  1  0
 25 51  1  0
 25 52  1  0
 26 53  1  0
 27 54  1  0
M  END
$$$$
