
     RDKit          3D

 38 40  0  0  0  0  0  0  0  0999 V2000
   -0.9786    2.9516   -0.7461 O   0  0  0  0  0  0  0  0  0  0  0  0
   -0.7434    2.3734    0.5226 C   0  0  0  0  0  0  0  0  0  0  0  0
    0.5381    1.7603    0.4542 N   0  0  0  0  0  0  0  0  0  0  0  0
    0.9925    0.5933    0.2513 C   0  0  0  0  0  0  0  0  0  0  0  0
    2.4573    0.4566    0.2792 C   0  0  0  0  0  0  0  0  0  0  0  0
    3.0986    0.6969   -0.9268 C   0  0  0  0  0  0  0  0  0  0  0  0
    4.4814    0.6080   -1.0634 C   0  0  0  0  0  0  0  0  0  0  0  0
    5.1989    0.2669    0.0631 C   0  0  0  0  0  0  0  0  0  0  0  0
    4.5858    0.0199    1.2862 C   0  0  0  0  0  0  0  0  0  0  0  0
    3.2104    0.1126    1.4047 C   0  0  0  0  0  0  0  0  0  0  0  0
    2.5209   -0.1079    2.5475 F   0  0  0  0  0  0  0  0  0  0  0  0
    0.2379   -0.6047   -0.0014 C   0  0  0  0  0  0  0  0  0  0  0  0
   -1.1322   -0.7803    0.1334 C   0  0  0  0  0  0  0  0  0  0  0  0
   -1.6477   -2.0075   -0.1597 C   0  0  0  0  0  0  0  0  0  0  0  0
   -0.8662   -3.0700   -0.5808 C   0  0  0  0  0  0  0  0  0  0  0  0
    0.5112   -2.9075   -0.7204 C   0  0  0  0  0  0  0  0  0  0  0  0
    1.5639   -4.2101   -1.2496 Cl  0  0  0  0  0  0  0  0  0  0  0  0
    1.0283   -1.6617   -0.4221 C   0  0  0  0  0  0  0  0  0  0  0  0
   -2.1898    0.1159    0.5427 N   0  0  0  0  0  0  0  0  0  0  0  0
   -3.5256   -0.3620    0.6737 C   0  0  0  0  0  0  0  0  0  0  0  0
   -4.3494   -0.2559   -0.5732 C   0  0  0  0  0  0  0  0  0  0  0  0
   -4.3973    1.1850   -0.9254 C   0  0  0  0  0  0  0  0  0  0  0  0
   -4.4444    2.3227   -1.2226 N   0  0  0  0  0  0  0  0  0  0  0  0
   -1.8777    1.4973    0.8171 C   0  0  0  0  0  0  0  0  0  0  0  0
   -2.8271    2.0594    1.4672 O   0  0  0  0  0  0  0  0  0  0  0  0
   -0.6395    3.9002   -0.7771 H   0  0  0  0  0  0  0  0  0  0  0  0
   -0.7631    3.2588    1.2221 H   0  0  0  0  0  0  0  0  0  0  0  0
    2.5685    0.9711   -1.8490 H   0  0  0  0  0  0  0  0  0  0  0  0
    4.9796    0.7940   -1.9972 H   0  0  0  0  0  0  0  0  0  0  0  0
    6.2688    0.1898   -0.0087 H   0  0  0  0  0  0  0  0  0  0  0  0
    5.1185   -0.2490    2.1860 H   0  0  0  0  0  0  0  0  0  0  0  0
   -2.7005   -2.2129   -0.0768 H   0  0  0  0  0  0  0  0  0  0  0  0
   -1.2291   -4.0621   -0.8250 H   0  0  0  0  0  0  0  0  0  0  0  0
    2.0973   -1.5201   -0.5259 H   0  0  0  0  0  0  0  0  0  0  0  0
   -4.0142    0.4485    1.3164 H   0  0  0  0  0  0  0  0  0  0  0  0
   -3.7095   -1.2218    1.3203 H   0  0  0  0  0  0  0  0  0  0  0  0
   -5.4023   -0.5531   -0.3869 H   0  0  0  0  0  0  0  0  0  0  0  0
   -4.0202   -0.7957   -1.4498 H   0  0  0  0  0  0  0  0  0  0  0  0
  1  2  1  0
  2  3  1  0
  3  4  2  0
  4  5  1  0
  5  6  2  0
  6  7  1  0
  7  8  2  0
  8  9  1  0
  9 10  2  0
 10 11  1  0
  4 12  1  0
 12 13  2  0
 13 14  1  0
 14 15  2  0
 15 16  1  0
 16 17  1  0
 16 18  2  0
 13 19  1  0
 19 20  1  0
 20 21  1  0
 21 22  1  0
 22 23  3  0
 19 24  1  0
 24 25  2  0
 24  2  1  0
 10  5  1  0
 18 12  1  0
  1 26  1  0
  2 27  1  0
  6 28  1  0
  7 29  1  0
  8 30  1  0
  9 31  1  0
 14 32  1  0
 15 33  1  0
 18 34  1  0
 20 35  1  0
 20 36  1  0
 21 37  1  0
 21 38  1  0
M  END
$$$$
