
     RDKit          3D

 48 50  0  0  0  0  0  0  0  0999 V2000
    7.6722   -0.8973    0.6367 O   0  0  0  0  0  0  0  0  0  0  0  0
    7.4114   -0.0876   -0.5045 C   0  0  0  0  0  0  0  0  0  0  0  0
    7.7310    1.0683   -0.5449 O   0  0  0  0  0  0  0  0  0  0  0  0
    6.6665   -0.9754   -1.5761 C   0  0  0  0  0  0  0  0  0  0  0  0
    5.8639    0.0543   -2.2854 N   0  0  0  0  0  0  0  0  0  0  0  0
    4.6408    0.5737   -1.3177 S   0  0  0  0  0  0  0  0  0  0  0  0
    5.1254    2.1561   -1.2527 O   0  0  0  0  0  0  0  0  0  0  0  0
    5.0303    0.1724    0.1818 O   0  0  0  0  0  0  0  0  0  0  0  0
    2.9835    0.6009   -1.4288 C   0  0  0  0  0  0  0  0  0  0  0  0
    2.4265   -0.5724   -1.8727 C   0  0  0  0  0  0  0  0  0  0  0  0
    1.1643   -0.8825   -1.4136 C   0  0  0  0  0  0  0  0  0  0  0  0
    0.5047   -0.0369   -0.5434 C   0  0  0  0  0  0  0  0  0  0  0  0
    1.0557    1.1664   -0.1276 C   0  0  0  0  0  0  0  0  0  0  0  0
    2.3566    1.4718   -0.5911 C   0  0  0  0  0  0  0  0  0  0  0  0
   -0.6130   -0.5513    0.1971 N   0  0  0  0  0  0  0  0  0  0  0  0
   -0.8694   -0.2692    1.6142 C   0  0  0  0  0  0  0  0  0  0  0  0
   -2.2214    0.4106    1.5900 C   0  0  0  0  0  0  0  0  0  0  0  0
   -3.2323   -0.7352    1.4088 C   0  0  0  0  0  0  0  0  0  0  0  0
   -2.7135   -1.7892    0.4934 C   0  0  0  0  0  0  0  0  0  0  0  0
   -1.6516   -1.2941   -0.4712 C   0  0  0  0  0  0  0  0  0  0  0  0
   -4.5481   -0.1820    1.0869 C   0  0  0  0  0  0  0  0  0  0  0  0
   -4.7415    0.6084    0.0077 C   0  0  0  0  0  0  0  0  0  0  0  0
   -5.9222    1.2193   -0.2463 C   0  0  0  0  0  0  0  0  0  0  0  0
   -6.9797    1.1186    0.6138 C   0  0  0  0  0  0  0  0  0  0  0  0
   -6.8444    0.3422    1.7318 C   0  0  0  0  0  0  0  0  0  0  0  0
   -5.6495   -0.3045    1.9519 C   0  0  0  0  0  0  0  0  0  0  0  0
    7.4799   -0.4602    1.5825 H   0  0  0  0  0  0  0  0  0  0  0  0
    6.8095   -1.9292   -1.5154 H   0  0  0  0  0  0  0  0  0  0  0  0
    7.7258   -0.8093   -2.3904 H   0  0  0  0  0  0  0  0  0  0  0  0
    5.8540    0.0695   -3.2324 H   0  0  0  0  0  0  0  0  0  0  0  0
    2.9993   -1.1361   -2.5396 H   0  0  0  0  0  0  0  0  0  0  0  0
    0.6284   -1.7036   -1.8254 H   0  0  0  0  0  0  0  0  0  0  0  0
    0.5061    1.8134    0.5363 H   0  0  0  0  0  0  0  0  0  0  0  0
    2.7841    2.4400   -0.3179 H   0  0  0  0  0  0  0  0  0  0  0  0
   -0.1056    0.3500    2.0946 H   0  0  0  0  0  0  0  0  0  0  0  0
   -0.9771   -1.2556    2.1129 H   0  0  0  0  0  0  0  0  0  0  0  0
   -2.4764    1.0011    2.4579 H   0  0  0  0  0  0  0  0  0  0  0  0
   -2.2877    1.0117    0.6331 H   0  0  0  0  0  0  0  0  0  0  0  0
   -3.3122   -1.1970    2.4352 H   0  0  0  0  0  0  0  0  0  0  0  0
   -2.3052   -2.6830    1.0753 H   0  0  0  0  0  0  0  0  0  0  0  0
   -3.5460   -2.1860   -0.1496 H   0  0  0  0  0  0  0  0  0  0  0  0
   -1.1561   -2.1731   -0.9293 H   0  0  0  0  0  0  0  0  0  0  0  0
   -2.1499   -0.6353   -1.2115 H   0  0  0  0  0  0  0  0  0  0  0  0
   -3.9319    0.7965   -0.6808 H   0  0  0  0  0  0  0  0  0  0  0  0
   -6.0683    1.7931   -1.1430 H   0  0  0  0  0  0  0  0  0  0  0  0
   -7.8901    1.6483    0.4195 H   0  0  0  0  0  0  0  0  0  0  0  0
   -7.6794    0.2449    2.4051 H   0  0  0  0  0  0  0  0  0  0  0  0
   -5.5475   -0.8810    2.8448 H   0  0  0  0  0  0  0  0  0  0  0  0
  1  2  1  0
  2  3  2  0
  2  4  1  0
  4  5  1  0
  5  6  1  0
  6  7  2  0
  6  8  2  0
  6  9  1  0
  9 10  2  0
 10 11  1  0
 11 12  2  0
 12 13  1  0
 13 14  2  0
 12 15  1  0
 15 16  1  0
 16 17  1  0
 17 18  1  0
 18 19  1  0
 19 20  1  0
 18 21  1  0
 21 22  2  0
 22 23  1  0
 23 24  2  0
 24 25  1  0
 25 26  2  0
 14  9  1  0
 20 15  1  0
 26 21  1  0
  1 27  1  0
  4 28  1  0
  4 29  1  0
  5 30  1  0
 10 31  1  0
 11 32  1  0
 13 33  1  0
 14 34  1  0
 16 35  1  0
 16 36  1  0
 17 37  1  0
 17 38  1  0
 18 39  1  0
 19 40  1  0
 19 41  1  0
 20 42  1  0
 20 43  1  0
 22 44  1  0
 23 45  1  0
 24 46  1  0
 25 47  1  0
 26 48  1  0
M  END
$$$$
