@<TRIPOS>MOLECULE
*****
 48 50 0 0 0
SMALL
GASTEIGER

@<TRIPOS>ATOM
      1 O           7.6722   -0.8973    0.6367 O.3     1  UNL1       -0.4797
      2 C           7.4114   -0.0876   -0.5045 C.2     1  UNL1        0.3204
      3 O           7.7310    1.0683   -0.5449 O.2     1  UNL1       -0.2495
      4 C           6.6665   -0.9754   -1.5761 C.3     1  UNL1        0.1144
      5 N           5.8639    0.0543   -2.2854 N.3     1  UNL1       -0.1792
      6 S           4.6408    0.5737   -1.3177 S.O2    1  UNL1        0.0589
      7 O           5.1254    2.1561   -1.2527 O.2     1  UNL1       -0.1530
      8 O           5.0303    0.1724    0.1818 O.2     1  UNL1       -0.1530
      9 C           2.9835    0.6009   -1.4288 C.ar    1  UNL1        0.1054
     10 C           2.4265   -0.5724   -1.8727 C.ar    1  UNL1       -0.0336
     11 C           1.1643   -0.8825   -1.4136 C.ar    1  UNL1       -0.0388
     12 C           0.5047   -0.0369   -0.5434 C.ar    1  UNL1        0.0298
     13 C           1.0557    1.1664   -0.1276 C.ar    1  UNL1       -0.0388
     14 C           2.3566    1.4718   -0.5911 C.ar    1  UNL1       -0.0336
     15 N          -0.6130   -0.5513    0.1971 N.pl3   1  UNL1       -0.3298
     16 C          -0.8694   -0.2692    1.6142 C.3     1  UNL1        0.0127
     17 C          -2.2214    0.4106    1.5900 C.3     1  UNL1       -0.0303
     18 C          -3.2323   -0.7352    1.4088 C.3     1  UNL1       -0.0130
     19 C          -2.7135   -1.7892    0.4934 C.3     1  UNL1       -0.0303
     20 C          -1.6516   -1.2941   -0.4712 C.3     1  UNL1        0.0127
     21 C          -4.5481   -0.1820    1.0869 C.ar    1  UNL1       -0.0442
     22 C          -4.7415    0.6084    0.0077 C.ar    1  UNL1       -0.0583
     23 C          -5.9222    1.2193   -0.2463 C.ar    1  UNL1       -0.0615
     24 C          -6.9797    1.1186    0.6138 C.ar    1  UNL1       -0.0617
     25 C          -6.8444    0.3422    1.7318 C.ar    1  UNL1       -0.0615
     26 C          -5.6495   -0.3045    1.9519 C.ar    1  UNL1       -0.0583
     27 H           7.4799   -0.4602    1.5825 H       1  UNL1        0.2951
     28 H           6.8095   -1.9292   -1.5154 H       1  UNL1        0.0556
     29 H           7.7258   -0.8093   -2.3904 H       1  UNL1        0.0556
     30 H           5.8540    0.0695   -3.2324 H       1  UNL1        0.1486
     31 H           2.9993   -1.1361   -2.5396 H       1  UNL1        0.0638
     32 H           0.6284   -1.7036   -1.8254 H       1  UNL1        0.0637
     33 H           0.5061    1.8134    0.5363 H       1  UNL1        0.0637
     34 H           2.7841    2.4400   -0.3179 H       1  UNL1        0.0638
     35 H          -0.1056    0.3500    2.0946 H       1  UNL1        0.0464
     36 H          -0.9771   -1.2556    2.1129 H       1  UNL1        0.0464
     37 H          -2.4764    1.0011    2.4579 H       1  UNL1        0.0286
     38 H          -2.2877    1.0117    0.6331 H       1  UNL1        0.0286
     39 H          -3.3122   -1.1970    2.4352 H       1  UNL1        0.0350
     40 H          -2.3052   -2.6830    1.0753 H       1  UNL1        0.0286
     41 H          -3.5460   -2.1860   -0.1496 H       1  UNL1        0.0286
     42 H          -1.1561   -2.1731   -0.9293 H       1  UNL1        0.0464
     43 H          -2.1499   -0.6353   -1.2115 H       1  UNL1        0.0464
     44 H          -3.9319    0.7965   -0.6808 H       1  UNL1        0.0620
     45 H          -6.0683    1.7931   -1.1430 H       1  UNL1        0.0618
     46 H          -7.8901    1.6483    0.4195 H       1  UNL1        0.0618
     47 H          -7.6794    0.2449    2.4051 H       1  UNL1        0.0618
     48 H          -5.5475   -0.8810    2.8448 H       1  UNL1        0.0620
@<TRIPOS>BOND
     1     1     2    1
     2     2     3    2
     3     2     4    1
     4     4     5    1
     5     5     6    1
     6     6     7    2
     7     6     8    2
     8     6     9    1
     9     9    10   ar
    10    10    11   ar
    11    11    12   ar
    12    12    13   ar
    13    13    14   ar
    14    12    15    1
    15    15    16    1
    16    16    17    1
    17    17    18    1
    18    18    19    1
    19    19    20    1
    20    18    21    1
    21    21    22   ar
    22    22    23   ar
    23    23    24   ar
    24    24    25   ar
    25    25    26   ar
    26    14     9   ar
    27    20    15    1
    28    26    21   ar
    29     1    27    1
    30     4    28    1
    31     4    29    1
    32     5    30    1
    33    10    31    1
    34    11    32    1
    35    13    33    1
    36    14    34    1
    37    16    35    1
    38    16    36    1
    39    17    37    1
    40    17    38    1
    41    18    39    1
    42    19    40    1
    43    19    41    1
    44    20    42    1
    45    20    43    1
    46    22    44    1
    47    23    45    1
    48    24    46    1
    49    25    47    1
    50    26    48    1
