@<TRIPOS>MOLECULE
*****
 51 55 0 0 0
SMALL
GASTEIGER

@<TRIPOS>ATOM
      1 C           7.0093    2.8564   -0.8711 C.3     1  UNL1       -0.0205
      2 C           6.1703    1.7473   -0.2988 C.ar    1  UNL1        0.0625
      3 C           6.5778    0.7575    0.5699 C.ar    1  UNL1        0.0052
      4 C           5.4956   -0.0562    0.8453 C.ar    1  UNL1        0.1560
      5 N           5.2765   -1.1459    1.5950 N.ar    1  UNL1       -0.2357
      6 C           4.0796   -1.7528    1.6797 C.ar    1  UNL1        0.0361
      7 C           2.9965   -1.2412    0.9605 C.ar    1  UNL1        0.0074
      8 C           3.2417   -0.1306    0.2032 C.ar    1  UNL1        0.0649
      9 N           4.4522    0.4536    0.1398 N.ar    1  UNL1       -0.2168
     10 N           4.8652    1.5169   -0.5301 N.ar    1  UNL1       -0.1699
     11 C           1.9425    0.2221   -0.4634 C.3     1  UNL1        0.0423
     12 N           0.9223   -0.4656    0.2986 N.3     1  UNL1       -0.2894
     13 C          -0.1932   -0.7689   -0.5520 C.3     1  UNL1        0.0126
     14 C          -0.7620    0.4964   -1.1078 C.3     1  UNL1       -0.0367
     15 C          -1.9532    0.8896   -0.2574 C.3     1  UNL1       -0.0433
     16 C          -3.0749   -0.0375   -0.6661 C.3     1  UNL1        0.0022
     17 C          -4.3624    0.3006   -0.0694 C.ar    1  UNL1       -0.0049
     18 C          -4.7128   -0.2363    1.1518 C.ar    1  UNL1       -0.0202
     19 C          -5.9409    0.0705    1.7500 C.ar    1  UNL1        0.1238
     20 F          -6.2808   -0.4539    2.9405 F       1  UNL1       -0.2055
     21 C          -6.8298    0.9208    1.1261 C.ar    1  UNL1       -0.0237
     22 C          -6.4412    1.4362   -0.0935 C.ar    1  UNL1       -0.0235
     23 C          -5.2345    1.1427   -0.6946 C.ar    1  UNL1        0.1270
     24 F          -4.9605    1.7191   -1.9129 F       1  UNL1       -0.2052
     25 C          -2.6109   -1.4379   -0.4535 C.3     1  UNL1        0.0132
     26 N          -2.5626   -2.1940   -1.7114 N.3     1  UNL1       -0.3266
     27 C          -1.2550   -1.5257    0.2081 C.3     1  UNL1       -0.0215
     28 C           1.5694   -1.6485    0.8243 C.3     1  UNL1        0.0279
     29 H           6.5073    3.1962   -1.8019 H       1  UNL1        0.0293
     30 H           8.0439    2.5314   -1.0221 H       1  UNL1        0.0293
     31 H           6.9299    3.7226   -0.1559 H       1  UNL1        0.0293
     32 H           7.5726    0.6294    0.9741 H       1  UNL1        0.0673
     33 H           3.9208   -2.6330    2.2909 H       1  UNL1        0.0834
     34 H           2.0166   -0.1133   -1.4964 H       1  UNL1        0.0491
     35 H           1.8179    1.3061   -0.3236 H       1  UNL1        0.0491
     36 H           0.2054   -1.4044   -1.3890 H       1  UNL1        0.0463
     37 H          -0.0253    1.3153   -1.1967 H       1  UNL1        0.0280
     38 H          -1.1196    0.2951   -2.1438 H       1  UNL1        0.0280
     39 H          -1.7109    0.7237    0.7966 H       1  UNL1        0.0272
     40 H          -2.1707    1.9487   -0.4867 H       1  UNL1        0.0272
     41 H          -3.1804    0.1076   -1.7822 H       1  UNL1        0.0365
     42 H          -4.0906   -0.9109    1.7236 H       1  UNL1        0.0650
     43 H          -7.7816    1.1602    1.5869 H       1  UNL1        0.0647
     44 H          -7.1343    2.1039   -0.5879 H       1  UNL1        0.0647
     45 H          -3.3144   -2.0052    0.1945 H       1  UNL1        0.0465
     46 H          -1.5917   -2.0564   -2.1001 H       1  UNL1        0.1185
     47 H          -2.6866   -3.2017   -1.5007 H       1  UNL1        0.1185
     48 H          -0.9590   -2.5962    0.2028 H       1  UNL1        0.0295
     49 H          -1.3113   -1.2190    1.2735 H       1  UNL1        0.0295
     50 H           1.4490   -2.5296    0.1695 H       1  UNL1        0.0477
     51 H           1.1888   -1.8054    1.8536 H       1  UNL1        0.0477
@<TRIPOS>BOND
     1     1     2    1
     2     2     3   ar
     3     3     4   ar
     4     4     5   ar
     5     5     6   ar
     6     6     7   ar
     7     7     8   ar
     8     8     9   ar
     9     9    10   ar
    10     8    11    1
    11    11    12    1
    12    12    13    1
    13    13    14    1
    14    14    15    1
    15    15    16    1
    16    16    17    1
    17    17    18   ar
    18    18    19   ar
    19    19    20    1
    20    19    21   ar
    21    21    22   ar
    22    22    23   ar
    23    23    24    1
    24    16    25    1
    25    25    26    1
    26    25    27    1
    27    12    28    1
    28    10     2   ar
    29    27    13    1
    30     9     4   ar
    31    23    17   ar
    32    28     7    1
    33     1    29    1
    34     1    30    1
    35     1    31    1
    36     3    32    1
    37     6    33    1
    38    11    34    1
    39    11    35    1
    40    13    36    1
    41    14    37    1
    42    14    38    1
    43    15    39    1
    44    15    40    1
    45    16    41    1
    46    18    42    1
    47    21    43    1
    48    22    44    1
    49    25    45    1
    50    26    46    1
    51    26    47    1
    52    27    48    1
    53    27    49    1
    54    28    50    1
    55    28    51    1
