
     RDKit          3D

 40 43  0  0  0  0  0  0  0  0999 V2000
   -3.0351    2.7974   -0.0806 F   0  0  0  0  0  0  0  0  0  0  0  0
   -1.7211    2.5317   -0.2954 C   0  0  0  0  0  0  0  0  0  0  0  0
   -1.0176    3.4349   -1.1018 C   0  0  0  0  0  0  0  0  0  0  0  0
    0.3246    3.2488   -1.3501 C   0  0  0  0  0  0  0  0  0  0  0  0
    0.9622    2.1651   -0.7956 C   0  0  0  0  0  0  0  0  0  0  0  0
    2.2305    1.7088   -0.8407 N   0  0  0  0  0  0  0  0  0  0  0  0
    2.3185    0.5858   -0.1068 C   0  0  0  0  0  0  0  0  0  0  0  0
    3.5345   -0.2225    0.0991 C   0  0  0  0  0  0  0  0  0  0  0  0
    3.4708   -1.3552    0.8810 C   0  0  0  0  0  0  0  0  0  0  0  0
    4.5965   -2.1186    1.0805 C   0  0  0  0  0  0  0  0  0  0  0  0
    5.7895   -1.7079    0.4692 C   0  0  0  0  0  0  0  0  0  0  0  0
    5.8343   -0.5779   -0.3056 C   0  0  0  0  0  0  0  0  0  0  0  0
    4.7139    0.1859   -0.5066 C   0  0  0  0  0  0  0  0  0  0  0  0
    1.1093    0.3259    0.4055 N   0  0  0  0  0  0  0  0  0  0  0  0
    0.2423    1.2723    0.0077 C   0  0  0  0  0  0  0  0  0  0  0  0
   -1.0907    1.4451    0.2620 C   0  0  0  0  0  0  0  0  0  0  0  0
   -1.8161    0.4580    1.1019 C   0  0  0  0  0  0  0  0  0  0  0  0
   -2.5449   -0.5188    0.4600 N   0  0  0  0  0  0  0  0  0  0  0  0
   -3.2929   -1.4116    1.2746 C   0  0  0  0  0  0  0  0  0  0  0  0
   -4.5924   -1.6578    0.4934 C   0  0  0  0  0  0  0  0  0  0  0  0
   -4.0825   -1.6051   -0.9310 C   0  0  0  0  0  0  0  0  0  0  0  0
   -3.0639   -0.4536   -0.8231 C   0  0  0  0  0  0  0  0  0  0  0  0
   -1.5039    4.2926   -1.5459 H   0  0  0  0  0  0  0  0  0  0  0  0
    0.8913    3.9512   -1.9826 H   0  0  0  0  0  0  0  0  0  0  0  0
    2.5086   -1.6351    1.3387 H   0  0  0  0  0  0  0  0  0  0  0  0
    4.5349   -3.0004    1.6922 H   0  0  0  0  0  0  0  0  0  0  0  0
    6.6392   -2.3209    0.6444 H   0  0  0  0  0  0  0  0  0  0  0  0
    6.7558   -0.2846   -0.7620 H   0  0  0  0  0  0  0  0  0  0  0  0
    4.7181    1.0989   -1.1235 H   0  0  0  0  0  0  0  0  0  0  0  0
    0.8477   -0.4823    1.0244 H   0  0  0  0  0  0  0  0  0  0  0  0
   -2.4442    1.0258    1.8719 H   0  0  0  0  0  0  0  0  0  0  0  0
   -1.0695   -0.0642    1.7974 H   0  0  0  0  0  0  0  0  0  0  0  0
   -3.4934   -1.0210    2.2843 H   0  0  0  0  0  0  0  0  0  0  0  0
   -2.7477   -2.3953    1.3518 H   0  0  0  0  0  0  0  0  0  0  0  0
   -5.0319   -2.6420    0.7549 H   0  0  0  0  0  0  0  0  0  0  0  0
   -5.2847   -0.8142    0.7237 H   0  0  0  0  0  0  0  0  0  0  0  0
   -4.8567   -1.4020   -1.6697 H   0  0  0  0  0  0  0  0  0  0  0  0
   -3.5617   -2.5560   -1.1252 H   0  0  0  0  0  0  0  0  0  0  0  0
   -2.2573   -0.7499   -1.5614 H   0  0  0  0  0  0  0  0  0  0  0  0
   -3.5145    0.4688   -1.1801 H   0  0  0  0  0  0  0  0  0  0  0  0
  1  2  1  0
  2  3  2  0
  3  4  1  0
  4  5  2  0
  5  6  1  0
  6  7  2  0
  7  8  1  0
  8  9  2  0
  9 10  1  0
 10 11  2  0
 11 12  1  0
 12 13  2  0
  7 14  1  0
 14 15  1  0
 15 16  2  0
 16 17  1  0
 17 18  1  0
 18 19  1  0
 19 20  1  0
 20 21  1  0
 21 22  1  0
 16  2  1  0
 22 18  1  0
 15  5  1  0
 13  8  1  0
  3 23  1  0
  4 24  1  0
  9 25  1  0
 10 26  1  0
 11 27  1  0
 12 28  1  0
 13 29  1  0
 14 30  1  0
 17 31  1  0
 17 32  1  0
 19 33  1  0
 19 34  1  0
 20 35  1  0
 20 36  1  0
 21 37  1  0
 21 38  1  0
 22 39  1  0
 22 40  1  0
M  END
$$$$
