@<TRIPOS>MOLECULE
*****
 40 43 0 0 0
SMALL
GASTEIGER

@<TRIPOS>ATOM
      1 F          -3.0351    2.7974   -0.0806 F       1  UNL1       -0.2051
      2 C          -1.7211    2.5317   -0.2954 C.ar    1  UNL1        0.1299
      3 C          -1.0176    3.4349   -1.1018 C.ar    1  UNL1       -0.0240
      4 C           0.3246    3.2488   -1.3501 C.ar    1  UNL1       -0.0315
      5 C           0.9622    2.1651   -0.7956 C.ar    1  UNL1        0.0899
      6 N           2.2305    1.7088   -0.8407 N.ar    1  UNL1       -0.2277
      7 C           2.3185    0.5858   -0.1068 C.ar    1  UNL1        0.1393
      8 C           3.5345   -0.2225    0.0991 C.ar    1  UNL1        0.0173
      9 C           3.4708   -1.3552    0.8810 C.ar    1  UNL1       -0.0511
     10 C           4.5965   -2.1186    1.0805 C.ar    1  UNL1       -0.0611
     11 C           5.7895   -1.7079    0.4692 C.ar    1  UNL1       -0.0617
     12 C           5.8343   -0.5779   -0.3056 C.ar    1  UNL1       -0.0611
     13 C           4.7139    0.1859   -0.5066 C.ar    1  UNL1       -0.0511
     14 N           1.1093    0.3259    0.4055 N.ar    1  UNL1       -0.3376
     15 C           0.2423    1.2723    0.0077 C.ar    1  UNL1        0.0737
     16 C          -1.0907    1.4451    0.2620 C.ar    1  UNL1        0.0271
     17 C          -1.8161    0.4580    1.1019 C.3     1  UNL1        0.0288
     18 N          -2.5449   -0.5188    0.4600 N.3     1  UNL1       -0.2980
     19 C          -3.2929   -1.4116    1.2746 C.3     1  UNL1       -0.0007
     20 C          -4.5924   -1.6578    0.4934 C.3     1  UNL1       -0.0390
     21 C          -4.0825   -1.6051   -0.9310 C.3     1  UNL1       -0.0390
     22 C          -3.0639   -0.4536   -0.8231 C.3     1  UNL1       -0.0007
     23 H          -1.5039    4.2926   -1.5459 H       1  UNL1        0.0647
     24 H           0.8913    3.9512   -1.9826 H       1  UNL1        0.0640
     25 H           2.5086   -1.6351    1.3387 H       1  UNL1        0.0625
     26 H           4.5349   -3.0004    1.6922 H       1  UNL1        0.0618
     27 H           6.6392   -2.3209    0.6444 H       1  UNL1        0.0618
     28 H           6.7558   -0.2846   -0.7620 H       1  UNL1        0.0618
     29 H           4.7181    1.0989   -1.1235 H       1  UNL1        0.0625
     30 H           0.8477   -0.4823    1.0244 H       1  UNL1        0.1674
     31 H          -2.4442    1.0258    1.8719 H       1  UNL1        0.0477
     32 H          -1.0695   -0.0642    1.7974 H       1  UNL1        0.0477
     33 H          -3.4934   -1.0210    2.2843 H       1  UNL1        0.0427
     34 H          -2.7477   -2.3953    1.3518 H       1  UNL1        0.0427
     35 H          -5.0319   -2.6420    0.7549 H       1  UNL1        0.0278
     36 H          -5.2847   -0.8142    0.7237 H       1  UNL1        0.0278
     37 H          -4.8567   -1.4020   -1.6697 H       1  UNL1        0.0278
     38 H          -3.5617   -2.5560   -1.1252 H       1  UNL1        0.0278
     39 H          -2.2573   -0.7499   -1.5614 H       1  UNL1        0.0427
     40 H          -3.5145    0.4688   -1.1801 H       1  UNL1        0.0427
@<TRIPOS>BOND
     1     1     2    1
     2     2     3   ar
     3     3     4   ar
     4     4     5   ar
     5     5     6   ar
     6     6     7   ar
     7     7     8    1
     8     8     9   ar
     9     9    10   ar
    10    10    11   ar
    11    11    12   ar
    12    12    13   ar
    13     7    14   ar
    14    14    15   ar
    15    15    16   ar
    16    16    17    1
    17    17    18    1
    18    18    19    1
    19    19    20    1
    20    20    21    1
    21    21    22    1
    22    16     2   ar
    23    22    18    1
    24    15     5   ar
    25    13     8   ar
    26     3    23    1
    27     4    24    1
    28     9    25    1
    29    10    26    1
    30    11    27    1
    31    12    28    1
    32    13    29    1
    33    14    30    1
    34    17    31    1
    35    17    32    1
    36    19    33    1
    37    19    34    1
    38    20    35    1
    39    20    36    1
    40    21    37    1
    41    21    38    1
    42    22    39    1
    43    22    40    1
