@<TRIPOS>MOLECULE
*****
 31 33 0 0 0
SMALL
GASTEIGER

@<TRIPOS>ATOM
      1 O           4.6491    1.3914    0.5034 O.2     1  UNL1       -0.2451
      2 C           4.2942    0.3016    0.9878 C.2     1  UNL1        0.3370
      3 O           5.1170   -0.3510    1.8745 O.3     1  UNL1       -0.4771
      4 C           3.0078   -0.2481    0.5940 C.ar    1  UNL1        0.0638
      5 C           2.5574   -1.4615    1.1014 C.ar    1  UNL1       -0.0295
      6 C           1.3358   -1.9316    0.6946 C.ar    1  UNL1        0.0307
      7 N           0.5457   -1.2767   -0.1748 N.ar    1  UNL1       -0.2361
      8 C           0.9416   -0.0817   -0.7020 C.ar    1  UNL1        0.1553
      9 N           0.1169    0.6225   -1.6224 N.ar    1  UNL1       -0.2141
     10 N           0.5235    1.1951   -2.7258 N.ar    1  UNL1       -0.1729
     11 C          -0.5283    1.7801   -3.3696 C.ar    1  UNL1        0.0504
     12 C          -1.6323    1.5303   -2.5831 C.ar    1  UNL1       -0.0158
     13 C          -1.2056    0.7986   -1.4849 C.ar    1  UNL1        0.0763
     14 C          -1.9839    0.2883   -0.3646 C.ar    1  UNL1        0.0007
     15 C          -3.2060   -0.3477   -0.5515 C.ar    1  UNL1       -0.0499
     16 C          -3.9635   -0.8393    0.4780 C.ar    1  UNL1       -0.0258
     17 C          -3.4839   -0.6920    1.7554 C.ar    1  UNL1        0.1234
     18 F          -4.2002   -1.1624    2.7939 F       1  UNL1       -0.2055
     19 C          -2.2783   -0.0690    1.9917 C.ar    1  UNL1       -0.0258
     20 C          -1.5215    0.4245    0.9338 C.ar    1  UNL1       -0.0499
     21 C           2.1685    0.3877   -0.2916 C.ar    1  UNL1       -0.0034
     22 H           6.0515   -0.0552    2.1296 H       1  UNL1        0.2954
     23 H           3.2033   -1.9874    1.8061 H       1  UNL1        0.0641
     24 H           1.0323   -2.8972    1.1300 H       1  UNL1        0.0830
     25 H          -0.4566    2.3181   -4.3040 H       1  UNL1        0.0848
     26 H          -2.6408    1.8488   -2.7900 H       1  UNL1        0.0655
     27 H          -3.5457   -0.4421   -1.5734 H       1  UNL1        0.0625
     28 H          -4.9254   -1.3368    0.2951 H       1  UNL1        0.0646
     29 H          -1.8866    0.0542    2.9994 H       1  UNL1        0.0646
     30 H          -0.5824    0.9054    1.1693 H       1  UNL1        0.0625
     31 H           2.4962    1.3331   -0.7004 H       1  UNL1        0.0663
@<TRIPOS>BOND
     1     1     2    2
     2     2     3    1
     3     2     4    1
     4     4     5   ar
     5     5     6   ar
     6     6     7   ar
     7     7     8   ar
     8     8     9    1
     9     9    10   ar
    10    10    11   ar
    11    11    12   ar
    12    12    13   ar
    13    13    14    1
    14    14    15   ar
    15    15    16   ar
    16    16    17   ar
    17    17    18    1
    18    17    19   ar
    19    19    20   ar
    20     8    21   ar
    21    21     4   ar
    22    13     9   ar
    23    20    14   ar
    24     3    22    1
    25     5    23    1
    26     6    24    1
    27    11    25    1
    28    12    26    1
    29    15    27    1
    30    16    28    1
    31    19    29    1
    32    20    30    1
    33    21    31    1
