@<TRIPOS>MOLECULE
*****
 73 79 0 0 0
SMALL
GASTEIGER

@<TRIPOS>ATOM
      1 C           2.7552   -7.3639    0.7675 C.3     1  UNL1        0.0804
      2 O           2.1241   -6.1260    0.9088 O.3     1  UNL1       -0.4795
      3 C           2.0800   -5.1637   -0.0708 C.ar    1  UNL1        0.2191
      4 C           1.4144   -3.9722    0.2076 C.ar    1  UNL1        0.0404
      5 C           1.3293   -2.9625   -0.7253 C.ar    1  UNL1        0.1364
      6 N           0.6444   -1.7584   -0.4183 N.am    1  UNL1       -0.2240
      7 C          -0.7489   -1.5929   -0.6851 C.2     1  UNL1        0.3219
      8 O          -1.4791   -2.3070   -1.4209 O.2     1  UNL1       -0.2512
      9 N          -1.2273   -0.4588    0.0252 N.am    1  UNL1       -0.1920
     10 C          -2.5609    0.0303    0.0172 C.ar    1  UNL1        0.0455
     11 C          -3.4410   -0.4451    0.9716 C.ar    1  UNL1       -0.0392
     12 C          -4.7524   -0.0262    1.0345 C.ar    1  UNL1       -0.0523
     13 C          -5.1790    0.8973    0.1055 C.ar    1  UNL1       -0.0177
     14 C          -6.5637    1.3418    0.1699 C.ar    1  UNL1       -0.0158
     15 C          -7.5082    0.4439    0.6184 C.ar    1  UNL1       -0.0519
     16 C          -8.8363    0.8354    0.6900 C.ar    1  UNL1       -0.0337
     17 C          -9.1604    2.1224    0.3047 C.ar    1  UNL1        0.0888
     18 N         -10.3387    2.7887    0.2602 N.ar    1  UNL1       -0.2359
     19 C         -10.1159    4.0346   -0.1954 C.ar    1  UNL1        0.0944
     20 N          -8.8117    4.1958   -0.4501 N.ar    1  UNL1       -0.3444
     21 C          -8.2167    3.0262   -0.1458 C.ar    1  UNL1        0.0666
     22 C          -6.8945    2.6355   -0.2167 C.ar    1  UNL1       -0.0285
     23 C          -4.3228    1.3797   -0.8470 C.ar    1  UNL1       -0.0523
     24 C          -3.0096    0.9513   -0.8990 C.ar    1  UNL1       -0.0392
     25 C          -0.1274    0.0694    0.7266 C.2     1  UNL1        0.2516
     26 O          -0.1538    0.9238    1.6827 O.2     1  UNL1       -0.2724
     27 C           1.1024   -0.5390    0.1656 C.3     1  UNL1        0.1240
     28 C           1.6588    0.4092   -0.8561 C.3     1  UNL1       -0.0095
     29 C           3.1311    0.3442   -1.0462 C.3     1  UNL1        0.0017
     30 N           3.9168    0.1763    0.1232 N.3     1  UNL1       -0.2965
     31 C           4.2026    1.3790    0.8380 C.3     1  UNL1        0.0415
     32 C           4.9696    2.3494    0.0214 C.ar    1  UNL1        0.0581
     33 N           4.4280    3.4427   -0.5396 N.ar    1  UNL1       -0.2583
     34 C           5.1260    4.3140   -1.2755 C.ar    1  UNL1        0.0279
     35 C           6.4532    4.1049   -1.4811 C.ar    1  UNL1       -0.0433
     36 C           7.0659    3.0010   -0.9314 C.ar    1  UNL1       -0.0557
     37 C           6.3262    2.1113   -0.1730 C.ar    1  UNL1       -0.0279
     38 C           6.9525    0.9107    0.4354 C.3     1  UNL1       -0.0380
     39 C           3.4620   -0.9174    0.9134 C.3     1  UNL1        0.0017
     40 C           2.0399   -0.7566    1.3288 C.3     1  UNL1       -0.0095
     41 N           1.9249   -3.1886   -1.9231 N.ar    1  UNL1       -0.2200
     42 C           2.5639   -4.3319   -2.1914 C.ar    1  UNL1        0.1219
     43 N           2.6401   -5.3032   -1.2801 N.ar    1  UNL1       -0.2013
     44 H           3.2028   -7.5076   -0.2463 H       1  UNL1        0.0660
     45 H           1.9778   -8.1711    0.8964 H       1  UNL1        0.0660
     46 H           3.5479   -7.4369    1.5512 H       1  UNL1        0.0660
     47 H           0.9469   -3.8303    1.1885 H       1  UNL1        0.0705
     48 H          -3.0678   -1.1809    1.6975 H       1  UNL1        0.0636
     49 H          -5.3752   -0.4405    1.8042 H       1  UNL1        0.0624
     50 H          -7.2794   -0.5517    0.9201 H       1  UNL1        0.0624
     51 H          -9.5954    0.1532    1.0375 H       1  UNL1        0.0640
     52 H         -10.8435    4.8178   -0.3487 H       1  UNL1        0.1027
     53 H          -8.3420    5.0639   -0.8157 H       1  UNL1        0.1668
     54 H          -6.1420    3.3096   -0.5603 H       1  UNL1        0.0645
     55 H          -4.6993    2.0956   -1.5474 H       1  UNL1        0.0624
     56 H          -2.3154    1.3227   -1.6470 H       1  UNL1        0.0636
     57 H           1.1817    0.1238   -1.8403 H       1  UNL1        0.0303
     58 H           1.3529    1.4626   -0.6931 H       1  UNL1        0.0303
     59 H           3.4502   -0.4296   -1.7916 H       1  UNL1        0.0427
     60 H           3.4459    1.3200   -1.5208 H       1  UNL1        0.0427
     61 H           3.2082    1.8614    1.0669 H       1  UNL1        0.0491
     62 H           4.6986    1.2146    1.8025 H       1  UNL1        0.0491
     63 H           4.6679    5.2005   -1.7257 H       1  UNL1        0.0829
     64 H           7.0609    4.7872   -2.0727 H       1  UNL1        0.0633
     65 H           8.1270    2.8068   -1.0778 H       1  UNL1        0.0621
     66 H           6.6914    0.7966    1.5016 H       1  UNL1        0.0278
     67 H           6.7460   -0.0160   -0.1512 H       1  UNL1        0.0278
     68 H           8.0731    1.0335    0.3850 H       1  UNL1        0.0278
     69 H           4.0808   -0.9460    1.8453 H       1  UNL1        0.0427
     70 H           3.6574   -1.8547    0.3682 H       1  UNL1        0.0427
     71 H           1.9440    0.1122    2.0039 H       1  UNL1        0.0303
     72 H           1.7172   -1.6562    1.8767 H       1  UNL1        0.0303
     73 H           3.0182   -4.4661   -3.1506 H       1  UNL1        0.1049
@<TRIPOS>BOND
     1     1     2    1
     2     2     3    1
     3     3     4   ar
     4     4     5   ar
     5     5     6    1
     6     6     7   am
     7     7     8    2
     8     7     9   am
     9     9    10    1
    10    10    11   ar
    11    11    12   ar
    12    12    13   ar
    13    13    14    1
    14    14    15   ar
    15    15    16   ar
    16    16    17   ar
    17    17    18   ar
    18    18    19   ar
    19    19    20   ar
    20    20    21   ar
    21    21    22   ar
    22    13    23   ar
    23    23    24   ar
    24     9    25   am
    25    25    26    2
    26    25    27    1
    27    27    28    1
    28    28    29    1
    29    29    30    1
    30    30    31    1
    31    31    32    1
    32    32    33   ar
    33    33    34   ar
    34    34    35   ar
    35    35    36   ar
    36    36    37   ar
    37    37    38    1
    38    30    39    1
    39    39    40    1
    40     5    41   ar
    41    41    42   ar
    42    42    43   ar
    43    43     3   ar
    44    27     6    1
    45    37    32   ar
    46    24    10   ar
    47    40    27    1
    48    22    14   ar
    49    21    17   ar
    50     1    44    1
    51     1    45    1
    52     1    46    1
    53     4    47    1
    54    11    48    1
    55    12    49    1
    56    15    50    1
    57    16    51    1
    58    19    52    1
    59    20    53    1
    60    22    54    1
    61    23    55    1
    62    24    56    1
    63    28    57    1
    64    28    58    1
    65    29    59    1
    66    29    60    1
    67    31    61    1
    68    31    62    1
    69    34    63    1
    70    35    64    1
    71    36    65    1
    72    38    66    1
    73    38    67    1
    74    38    68    1
    75    39    69    1
    76    39    70    1
    77    40    71    1
    78    40    72    1
    79    42    73    1
