
     RDKit          3D

 55 59  0  0  0  0  0  0  0  0999 V2000
    1.7388   -0.4423    0.0506 O   0  0  0  0  0  0  0  0  0  0  0  0
    1.0959    0.4566   -0.5225 C   0  0  0  0  0  0  0  0  0  0  0  0
   -0.3024    0.2660   -0.6147 N   0  0  0  0  0  0  0  0  0  0  0  0
   -1.0627   -0.8161   -0.1387 C   0  0  0  0  0  0  0  0  0  0  0  0
   -0.5370   -1.8851    0.5093 C   0  0  0  0  0  0  0  0  0  0  0  0
   -1.3559   -2.9372    0.9611 C   0  0  0  0  0  0  0  0  0  0  0  0
   -2.7082   -2.8707    0.7377 C   0  0  0  0  0  0  0  0  0  0  0  0
   -3.2916   -1.7848    0.0731 C   0  0  0  0  0  0  0  0  0  0  0  0
   -4.7204   -1.7791   -0.1540 C   0  0  0  0  0  0  0  0  0  0  0  0
   -5.2852   -2.8458   -0.8211 C   0  0  0  0  0  0  0  0  0  0  0  0
   -6.6106   -2.8572   -1.0785 N   0  0  0  0  0  0  0  0  0  0  0  0
   -7.4131   -1.8597   -0.7069 C   0  0  0  0  0  0  0  0  0  0  0  0
   -6.8967   -0.7661   -0.0339 C   0  0  0  0  0  0  0  0  0  0  0  0
   -7.7245    0.2638    0.3601 C   0  0  0  0  0  0  0  0  0  0  0  0
   -7.2208    1.3600    1.0435 C   0  0  0  0  0  0  0  0  0  0  0  0
   -5.8726    1.3528    1.2970 C   0  0  0  0  0  0  0  0  0  0  0  0
   -5.0306    0.3266    0.9073 C   0  0  0  0  0  0  0  0  0  0  0  0
   -5.5351   -0.7437    0.2364 C   0  0  0  0  0  0  0  0  0  0  0  0
   -2.4389   -0.8045   -0.3362 C   0  0  0  0  0  0  0  0  0  0  0  0
    1.7995    1.6223   -1.0515 C   0  0  0  0  0  0  0  0  0  0  0  0
    1.1030    2.6173   -1.7046 C   0  0  0  0  0  0  0  0  0  0  0  0
    1.7068    3.7567   -2.2392 C   0  0  0  0  0  0  0  0  0  0  0  0
    3.0612    3.8940   -2.1086 C   0  0  0  0  0  0  0  0  0  0  0  0
    3.7476    2.9149   -1.4657 C   0  0  0  0  0  0  0  0  0  0  0  0
    3.1622    1.7523   -0.9154 C   0  0  0  0  0  0  0  0  0  0  0  0
    4.0001    0.8085   -0.2645 N   0  0  0  0  0  0  0  0  0  0  0  0
    5.4306    1.1223   -0.2220 C   0  0  0  0  0  0  0  0  0  0  0  0
    6.2023    0.0890    0.4754 C   0  0  0  0  0  0  0  0  0  0  0  0
    6.4712    0.0748    1.8237 C   0  0  0  0  0  0  0  0  0  0  0  0
    7.2041   -0.9229    2.4337 C   0  0  0  0  0  0  0  0  0  0  0  0
    7.6659   -1.9143    1.6599 N   0  0  0  0  0  0  0  0  0  0  0  0
    7.4267   -1.9407    0.3359 C   0  0  0  0  0  0  0  0  0  0  0  0
    6.6996   -0.9541   -0.2799 C   0  0  0  0  0  0  0  0  0  0  0  0
   -0.8170    1.0630   -1.1140 H   0  0  0  0  0  0  0  0  0  0  0  0
    0.5002   -2.0331    0.7329 H   0  0  0  0  0  0  0  0  0  0  0  0
   -0.9504   -3.7925    1.4771 H   0  0  0  0  0  0  0  0  0  0  0  0
   -3.3986   -3.6492    1.0605 H   0  0  0  0  0  0  0  0  0  0  0  0
   -4.6519   -3.6632   -1.1301 H   0  0  0  0  0  0  0  0  0  0  0  0
   -8.4785   -1.8440   -0.9013 H   0  0  0  0  0  0  0  0  0  0  0  0
   -8.7913    0.2016    0.1235 H   0  0  0  0  0  0  0  0  0  0  0  0
   -7.8985    2.1387    1.3314 H   0  0  0  0  0  0  0  0  0  0  0  0
   -5.4784    2.2220    1.8384 H   0  0  0  0  0  0  0  0  0  0  0  0
   -3.9830    0.3828    1.1508 H   0  0  0  0  0  0  0  0  0  0  0  0
   -2.8734    0.0505   -0.8724 H   0  0  0  0  0  0  0  0  0  0  0  0
    0.0441    2.5534   -1.8312 H   0  0  0  0  0  0  0  0  0  0  0  0
    1.0922    4.5026   -2.7428 H   0  0  0  0  0  0  0  0  0  0  0  0
    3.5526    4.7670   -2.5138 H   0  0  0  0  0  0  0  0  0  0  0  0
    4.8217    3.0550   -1.3788 H   0  0  0  0  0  0  0  0  0  0  0  0
    3.6638   -0.0456    0.1599 H   0  0  0  0  0  0  0  0  0  0  0  0
    5.5206    2.0757    0.3364 H   0  0  0  0  0  0  0  0  0  0  0  0
    5.7823    1.2641   -1.2550 H   0  0  0  0  0  0  0  0  0  0  0  0
    6.0918    0.8781    2.4241 H   0  0  0  0  0  0  0  0  0  0  0  0
    7.4077   -0.9226    3.4899 H   0  0  0  0  0  0  0  0  0  0  0  0
    7.8175   -2.7600   -0.2562 H   0  0  0  0  0  0  0  0  0  0  0  0
    6.5173   -0.9980   -1.3643 H   0  0  0  0  0  0  0  0  0  0  0  0
  1  2  2  0
  2  3  1  0
  3  4  1  0
  4  5  2  0
  5  6  1  0
  6  7  2  0
  7  8  1  0
  8  9  1  0
  9 10  2  0
 10 11  1  0
 11 12  2  0
 12 13  1  0
 13 14  2  0
 14 15  1  0
 15 16  2  0
 16 17  1  0
 17 18  2  0
  8 19  2  0
  2 20  1  0
 20 21  2  0
 21 22  1  0
 22 23  2  0
 23 24  1  0
 24 25  2  0
 25 26  1  0
 26 27  1  0
 27 28  1  0
 28 29  2  0
 29 30  1  0
 30 31  2  0
 31 32  1  0
 32 33  2  0
 19  4  1  0
 25 20  1  0
 33 28  1  0
 18  9  1  0
 18 13  1  0
  3 34  1  0
  5 35  1  0
  6 36  1  0
  7 37  1  0
 10 38  1  0
 12 39  1  0
 14 40  1  0
 15 41  1  0
 16 42  1  0
 17 43  1  0
 19 44  1  0
 21 45  1  0
 22 46  1  0
 23 47  1  0
 24 48  1  0
 26 49  1  0
 27 50  1  0
 27 51  1  0
 29 52  1  0
 30 53  1  0
 32 54  1  0
 33 55  1  0
M  END
$$$$
