@<TRIPOS>MOLECULE
*****
 55 59 0 0 0
SMALL
GASTEIGER

@<TRIPOS>ATOM
      1 O           1.7388   -0.4423    0.0506 O.2     1  UNL1       -0.2698
      2 C           1.0959    0.4566   -0.5225 C.2     1  UNL1        0.2500
      3 N          -0.3024    0.2660   -0.6147 N.am    1  UNL1       -0.2814
      4 C          -1.0627   -0.8161   -0.1387 C.ar    1  UNL1        0.0342
      5 C          -0.5370   -1.8851    0.5093 C.ar    1  UNL1       -0.0404
      6 C          -1.3559   -2.9372    0.9611 C.ar    1  UNL1       -0.0594
      7 C          -2.7082   -2.8707    0.7377 C.ar    1  UNL1       -0.0539
      8 C          -3.2916   -1.7848    0.0731 C.ar    1  UNL1       -0.0141
      9 C          -4.7204   -1.7791   -0.1540 C.ar    1  UNL1        0.0080
     10 C          -5.2852   -2.8458   -0.8211 C.ar    1  UNL1        0.0359
     11 N          -6.6106   -2.8572   -1.0785 N.ar    1  UNL1       -0.2620
     12 C          -7.4131   -1.8597   -0.7069 C.ar    1  UNL1        0.0353
     13 C          -6.8967   -0.7661   -0.0339 C.ar    1  UNL1        0.0008
     14 C          -7.7245    0.2638    0.3601 C.ar    1  UNL1       -0.0526
     15 C          -7.2208    1.3600    1.0435 C.ar    1  UNL1       -0.0611
     16 C          -5.8726    1.3528    1.2970 C.ar    1  UNL1       -0.0611
     17 C          -5.0306    0.3266    0.9073 C.ar    1  UNL1       -0.0534
     18 C          -5.5351   -0.7437    0.2364 C.ar    1  UNL1       -0.0073
     19 C          -2.4389   -0.8045   -0.3362 C.ar    1  UNL1       -0.0327
     20 C           1.7995    1.6223   -1.0515 C.ar    1  UNL1        0.0578
     21 C           1.1030    2.6173   -1.7046 C.ar    1  UNL1       -0.0478
     22 C           1.7068    3.7567   -2.2392 C.ar    1  UNL1       -0.0609
     23 C           3.0612    3.8940   -2.1086 C.ar    1  UNL1       -0.0600
     24 C           3.7476    2.9149   -1.4657 C.ar    1  UNL1       -0.0401
     25 C           3.1622    1.7523   -0.9154 C.ar    1  UNL1        0.0396
     26 N           4.0001    0.8085   -0.2645 N.pl3   1  UNL1       -0.3391
     27 C           5.4306    1.1223   -0.2220 C.3     1  UNL1        0.0345
     28 C           6.2023    0.0890    0.4754 C.ar    1  UNL1       -0.0276
     29 C           6.4712    0.0748    1.8237 C.ar    1  UNL1       -0.0389
     30 C           7.2041   -0.9229    2.4337 C.ar    1  UNL1        0.0279
     31 N           7.6659   -1.9143    1.6599 N.ar    1  UNL1       -0.2632
     32 C           7.4267   -1.9407    0.3359 C.ar    1  UNL1        0.0279
     33 C           6.6996   -0.9541   -0.2799 C.ar    1  UNL1       -0.0389
     34 H          -0.8170    1.0630   -1.1140 H       1  UNL1        0.1551
     35 H           0.5002   -2.0331    0.7329 H       1  UNL1        0.0636
     36 H          -0.9504   -3.7925    1.4771 H       1  UNL1        0.0618
     37 H          -3.3986   -3.6492    1.0605 H       1  UNL1        0.0624
     38 H          -4.6519   -3.6632   -1.1301 H       1  UNL1        0.0836
     39 H          -8.4785   -1.8440   -0.9013 H       1  UNL1        0.0836
     40 H          -8.7913    0.2016    0.1235 H       1  UNL1        0.0624
     41 H          -7.8985    2.1387    1.3314 H       1  UNL1        0.0618
     42 H          -5.4784    2.2220    1.8384 H       1  UNL1        0.0618
     43 H          -3.9830    0.3828    1.1508 H       1  UNL1        0.0624
     44 H          -2.8734    0.0505   -0.8724 H       1  UNL1        0.0642
     45 H           0.0441    2.5534   -1.8312 H       1  UNL1        0.0626
     46 H           1.0922    4.5026   -2.7428 H       1  UNL1        0.0618
     47 H           3.5526    4.7670   -2.5138 H       1  UNL1        0.0618
     48 H           4.8217    3.0550   -1.3788 H       1  UNL1        0.0636
     49 H           3.6638   -0.0456    0.1599 H       1  UNL1        0.1464
     50 H           5.5206    2.0757    0.3364 H       1  UNL1        0.0511
     51 H           5.7823    1.2641   -1.2550 H       1  UNL1        0.0511
     52 H           6.0918    0.8781    2.4241 H       1  UNL1        0.0636
     53 H           7.4077   -0.9226    3.4899 H       1  UNL1        0.0829
     54 H           7.8175   -2.7600   -0.2562 H       1  UNL1        0.0829
     55 H           6.5173   -0.9980   -1.3643 H       1  UNL1        0.0636
@<TRIPOS>BOND
     1     1     2    2
     2     2     3   am
     3     3     4    1
     4     4     5   ar
     5     5     6   ar
     6     6     7   ar
     7     7     8   ar
     8     8     9    1
     9     9    10   ar
    10    10    11   ar
    11    11    12   ar
    12    12    13   ar
    13    13    14   ar
    14    14    15   ar
    15    15    16   ar
    16    16    17   ar
    17    17    18   ar
    18     8    19   ar
    19     2    20    1
    20    20    21   ar
    21    21    22   ar
    22    22    23   ar
    23    23    24   ar
    24    24    25   ar
    25    25    26    1
    26    26    27    1
    27    27    28    1
    28    28    29   ar
    29    29    30   ar
    30    30    31   ar
    31    31    32   ar
    32    32    33   ar
    33    19     4   ar
    34    25    20   ar
    35    33    28   ar
    36    18     9   ar
    37    18    13   ar
    38     3    34    1
    39     5    35    1
    40     6    36    1
    41     7    37    1
    42    10    38    1
    43    12    39    1
    44    14    40    1
    45    15    41    1
    46    16    42    1
    47    17    43    1
    48    19    44    1
    49    21    45    1
    50    22    46    1
    51    23    47    1
    52    24    48    1
    53    26    49    1
    54    27    50    1
    55    27    51    1
    56    29    52    1
    57    30    53    1
    58    32    54    1
    59    33    55    1
