@<TRIPOS>MOLECULE
*****
 61 64 0 0 0
SMALL
GASTEIGER

@<TRIPOS>ATOM
      1 C          -3.8478   -0.4790   -1.6173 C.3     1  UNL1        0.1320
      2 F          -4.1436    0.7135   -2.1759 F       1  UNL1       -0.2422
      3 C          -5.1526   -1.1814   -1.3040 C.3     1  UNL1        0.0315
      4 N          -5.8131   -0.6011   -0.1542 N.3     1  UNL1       -0.3025
      5 C          -6.5828    0.5681   -0.4373 C.3     1  UNL1       -0.0127
      6 C          -4.9811   -0.5148    1.0058 C.3     1  UNL1        0.0005
      7 C          -3.7992    0.3964    0.6463 C.3     1  UNL1       -0.0187
      8 C          -2.9915   -0.3963   -0.3592 C.3     1  UNL1        0.0605
      9 N          -1.7243    0.1742   -0.6091 N.am    1  UNL1       -0.2826
     10 C          -1.7735    1.5872   -1.0525 C.3     1  UNL1        0.0050
     11 C          -0.3875   -0.2727   -0.5090 C.2     1  UNL1        0.3061
     12 O          -1.3992   -0.9238   -0.2274 O.2     1  UNL1       -0.2524
     13 N           0.9885   -0.2517   -0.5797 N.am    1  UNL1       -0.2657
     14 C           1.6461    0.9711   -1.0736 C.3     1  UNL1        0.0428
     15 C           2.7535    1.1650   -0.1106 C.2     1  UNL1       -0.0216
     16 C           3.0271   -0.0443    0.3270 C.2     1  UNL1       -0.0487
     17 C           2.1081   -1.0582   -0.3382 C.3     1  UNL1        0.1063
     18 C           2.8641   -1.4439   -1.6073 C.3     1  UNL1        0.0735
     19 O           2.0894   -2.1365   -2.5140 O.3     1  UNL1       -0.3922
     20 C           2.0395   -2.2008    0.5523 C.ar    1  UNL1       -0.0178
     21 C           1.0950   -3.0284    1.0951 C.ar    1  UNL1       -0.0561
     22 C           1.2815   -4.0938    1.9315 C.ar    1  UNL1       -0.0614
     23 C           2.5721   -4.4022    2.2946 C.ar    1  UNL1       -0.0617
     24 C           3.5939   -3.6478    1.8151 C.ar    1  UNL1       -0.0614
     25 C           3.3364   -2.5722    0.9640 C.ar    1  UNL1       -0.0561
     26 C           3.4223    2.3927    0.2950 C.ar    1  UNL1        0.0173
     27 C           4.4329    2.3831    1.2190 C.ar    1  UNL1       -0.0163
     28 C           5.0974    3.5151    1.6331 C.ar    1  UNL1        0.1241
     29 F           6.0955    3.4883    2.5485 F       1  UNL1       -0.2055
     30 C           4.7615    4.7480    1.1172 C.ar    1  UNL1       -0.0237
     31 C           3.7541    4.7931    0.1901 C.ar    1  UNL1       -0.0231
     32 C           3.1127    3.6358   -0.1988 C.ar    1  UNL1        0.1310
     33 F           2.1342    3.7824   -1.1204 F       1  UNL1       -0.2049
     34 H          -3.3058   -1.1107   -2.3467 H       1  UNL1        0.0683
     35 H          -4.9834   -2.2541   -1.1717 H       1  UNL1        0.0455
     36 H          -5.8189   -1.0449   -2.1808 H       1  UNL1        0.0455
     37 H          -7.6824    0.3293   -0.4942 H       1  UNL1        0.0391
     38 H          -6.4910    1.2486    0.4360 H       1  UNL1        0.0391
     39 H          -6.3036    1.1025   -1.3490 H       1  UNL1        0.0391
     40 H          -4.5311   -1.5174    1.1693 H       1  UNL1        0.0427
     41 H          -5.5623   -0.1515    1.8514 H       1  UNL1        0.0427
     42 H          -4.2545    1.2734    0.1633 H       1  UNL1        0.0296
     43 H          -3.2049    0.6717    1.5349 H       1  UNL1        0.0296
     44 H          -2.9701   -1.4345    0.0382 H       1  UNL1        0.0530
     45 H          -1.1858    2.1641   -0.2700 H       1  UNL1        0.0429
     46 H          -1.2167    1.6871   -1.9896 H       1  UNL1        0.0429
     47 H          -2.7728    2.0161   -1.0217 H       1  UNL1        0.0429
     48 H           2.0292    0.8078   -2.1233 H       1  UNL1        0.0515
     49 H           0.9733    1.8395   -1.0670 H       1  UNL1        0.0515
     50 H           3.8236   -0.2029    1.0721 H       1  UNL1        0.0601
     51 H           3.6534   -2.1584   -1.2401 H       1  UNL1        0.0585
     52 H           3.4013   -0.6250   -2.0603 H       1  UNL1        0.0585
     53 H           1.1528   -1.8946   -2.3405 H       1  UNL1        0.2095
     54 H           0.1079   -2.7613    0.7847 H       1  UNL1        0.0621
     55 H           0.4040   -4.6202    2.2499 H       1  UNL1        0.0618
     56 H           2.7020   -5.2359    2.9478 H       1  UNL1        0.0618
     57 H           4.5719   -3.9606    2.1509 H       1  UNL1        0.0618
     58 H           4.2976   -2.1037    0.6899 H       1  UNL1        0.0621
     59 H           4.7843    1.4788    1.6933 H       1  UNL1        0.0653
     60 H           5.2820    5.6356    1.4414 H       1  UNL1        0.0647
     61 H           3.4903    5.7562   -0.2143 H       1  UNL1        0.0647
@<TRIPOS>BOND
     1     1     2    1
     2     1     3    1
     3     3     4    1
     4     4     5    1
     5     4     6    1
     6     6     7    1
     7     7     8    1
     8     8     9    1
     9     9    10    1
    10     9    11   am
    11    11    12    2
    12    11    13   am
    13    13    14    1
    14    14    15    1
    15    15    16    2
    16    16    17    1
    17    17    18    1
    18    18    19    1
    19    17    20    1
    20    20    21   ar
    21    21    22   ar
    22    22    23   ar
    23    23    24   ar
    24    24    25   ar
    25    15    26    1
    26    26    27   ar
    27    27    28   ar
    28    28    29    1
    29    28    30   ar
    30    30    31   ar
    31    31    32   ar
    32    32    33    1
    33     8     1    1
    34    17    13    1
    35    25    20   ar
    36    32    26   ar
    37     1    34    1
    38     3    35    1
    39     3    36    1
    40     5    37    1
    41     5    38    1
    42     5    39    1
    43     6    40    1
    44     6    41    1
    45     7    42    1
    46     7    43    1
    47     8    44    1
    48    10    45    1
    49    10    46    1
    50    10    47    1
    51    14    48    1
    52    14    49    1
    53    16    50    1
    54    18    51    1
    55    18    52    1
    56    19    53    1
    57    21    54    1
    58    22    55    1
    59    23    56    1
    60    24    57    1
    61    25    58    1
    62    27    59    1
    63    30    60    1
    64    31    61    1
