@<TRIPOS>MOLECULE
*****
 38 38 0 0 0
SMALL
GASTEIGER

@<TRIPOS>ATOM
      1 C           5.0272   -0.2841    0.6376 C.3     1  UNL1       -0.0653
      2 C           3.5565   -0.5660    0.3648 C.3     1  UNL1       -0.0559
      3 C           3.2116   -0.3682   -1.0740 C.3     1  UNL1       -0.0533
      4 C           1.7661   -0.6425   -1.3925 C.3     1  UNL1       -0.0516
      5 C           0.8446    0.2452   -0.6370 C.3     1  UNL1       -0.0371
      6 C          -0.6088    0.0074   -0.9323 C.3     1  UNL1        0.0151
      7 N          -1.0710   -1.2997   -0.6395 N.3     1  UNL1       -0.3103
      8 C          -2.4181   -1.4754   -1.0450 C.3     1  UNL1        0.0247
      9 C          -3.3632   -0.3983   -0.6638 C.3     1  UNL1        0.0938
     10 O          -3.9773   -0.6607    0.5835 O.3     1  UNL1       -0.3880
     11 C          -2.8036    0.9868   -0.7230 C.3     1  UNL1        0.0885
     12 O          -3.6664    1.8874   -0.1439 O.3     1  UNL1       -0.3888
     13 C          -1.4281    0.9953   -0.1126 C.3     1  UNL1        0.0260
     14 C          -1.4576    0.6232    1.3495 C.3     1  UNL1        0.0509
     15 O          -2.2197    1.5718    2.0078 O.3     1  UNL1       -0.3946
     16 H           5.3491    0.6691    0.1769 H       1  UNL1        0.0230
     17 H           5.6539   -1.0887    0.2474 H       1  UNL1        0.0230
     18 H           5.1254   -0.1514    1.7358 H       1  UNL1        0.0230
     19 H           3.3983   -1.6319    0.6135 H       1  UNL1        0.0263
     20 H           2.9603    0.0257    1.0595 H       1  UNL1        0.0263
     21 H           3.4428    0.6806   -1.4209 H       1  UNL1        0.0265
     22 H           3.8183   -1.0198   -1.7308 H       1  UNL1        0.0265
     23 H           1.6122   -0.6336   -2.4829 H       1  UNL1        0.0266
     24 H           1.5777   -1.7100   -1.0710 H       1  UNL1        0.0266
     25 H           1.0531    0.1787    0.4491 H       1  UNL1        0.0280
     26 H           1.0597    1.3070   -0.9203 H       1  UNL1        0.0280
     27 H          -0.8001    0.2386   -1.9928 H       1  UNL1        0.0465
     28 H          -0.8027   -1.6972    0.2604 H       1  UNL1        0.1223
     29 H          -2.4310   -1.6002   -2.1663 H       1  UNL1        0.0450
     30 H          -2.8414   -2.4515   -0.6673 H       1  UNL1        0.0450
     31 H          -4.2220   -0.4290   -1.3988 H       1  UNL1        0.0632
     32 H          -4.5560    0.1050    0.7967 H       1  UNL1        0.2099
     33 H          -2.6739    1.2460   -1.8043 H       1  UNL1        0.0623
     34 H          -3.1573    2.7527   -0.0423 H       1  UNL1        0.2099
     35 H          -0.9414    1.9694   -0.1978 H       1  UNL1        0.0364
     36 H          -0.4382    0.6683    1.7524 H       1  UNL1        0.0561
     37 H          -1.8723   -0.3620    1.5547 H       1  UNL1        0.0561
     38 H          -1.7068    2.3120    2.3840 H       1  UNL1        0.2094
@<TRIPOS>BOND
     1     1     2    1
     2     2     3    1
     3     3     4    1
     4     4     5    1
     5     5     6    1
     6     6     7    1
     7     7     8    1
     8     8     9    1
     9     9    10    1
    10     9    11    1
    11    11    12    1
    12    11    13    1
    13    13    14    1
    14    14    15    1
    15    13     6    1
    16     1    16    1
    17     1    17    1
    18     1    18    1
    19     2    19    1
    20     2    20    1
    21     3    21    1
    22     3    22    1
    23     4    23    1
    24     4    24    1
    25     5    25    1
    26     5    26    1
    27     6    27    1
    28     7    28    1
    29     8    29    1
    30     8    30    1
    31     9    31    1
    32    10    32    1
    33    11    33    1
    34    12    34    1
    35    13    35    1
    36    14    36    1
    37    14    37    1
    38    15    38    1
