
     RDKit          3D

 38 38  0  0  0  0  0  0  0  0999 V2000
    5.0272   -0.2841    0.6376 C   0  0  0  0  0  0  0  0  0  0  0  0
    3.5565   -0.5660    0.3648 C   0  0  0  0  0  0  0  0  0  0  0  0
    3.2116   -0.3682   -1.0740 C   0  0  0  0  0  0  0  0  0  0  0  0
    1.7661   -0.6425   -1.3925 C   0  0  0  0  0  0  0  0  0  0  0  0
    0.8446    0.2452   -0.6370 C   0  0  0  0  0  0  0  0  0  0  0  0
   -0.6088    0.0074   -0.9323 C   0  0  1  0  0  0  0  0  0  0  0  0
   -1.0710   -1.2997   -0.6395 N   0  0  0  0  0  0  0  0  0  0  0  0
   -2.4181   -1.4754   -1.0450 C   0  0  0  0  0  0  0  0  0  0  0  0
   -3.3632   -0.3983   -0.6638 C   0  0  1  0  0  0  0  0  0  0  0  0
   -3.9773   -0.6607    0.5835 O   0  0  0  0  0  0  0  0  0  0  0  0
   -2.8036    0.9868   -0.7230 C   0  0  1  0  0  0  0  0  0  0  0  0
   -3.6664    1.8874   -0.1439 O   0  0  0  0  0  0  0  0  0  0  0  0
   -1.4281    0.9953   -0.1126 C   0  0  1  0  0  0  0  0  0  0  0  0
   -1.4576    0.6232    1.3495 C   0  0  0  0  0  0  0  0  0  0  0  0
   -2.2197    1.5718    2.0078 O   0  0  0  0  0  0  0  0  0  0  0  0
    5.3491    0.6691    0.1769 H   0  0  0  0  0  0  0  0  0  0  0  0
    5.6539   -1.0887    0.2474 H   0  0  0  0  0  0  0  0  0  0  0  0
    5.1254   -0.1514    1.7358 H   0  0  0  0  0  0  0  0  0  0  0  0
    3.3983   -1.6319    0.6135 H   0  0  0  0  0  0  0  0  0  0  0  0
    2.9603    0.0257    1.0595 H   0  0  0  0  0  0  0  0  0  0  0  0
    3.4428    0.6806   -1.4209 H   0  0  0  0  0  0  0  0  0  0  0  0
    3.8183   -1.0198   -1.7308 H   0  0  0  0  0  0  0  0  0  0  0  0
    1.6122   -0.6336   -2.4829 H   0  0  0  0  0  0  0  0  0  0  0  0
    1.5777   -1.7100   -1.0710 H   0  0  0  0  0  0  0  0  0  0  0  0
    1.0531    0.1787    0.4491 H   0  0  0  0  0  0  0  0  0  0  0  0
    1.0597    1.3070   -0.9203 H   0  0  0  0  0  0  0  0  0  0  0  0
   -0.8001    0.2386   -1.9928 H   0  0  0  0  0  0  0  0  0  0  0  0
   -0.8027   -1.6972    0.2604 H   0  0  0  0  0  0  0  0  0  0  0  0
   -2.4310   -1.6002   -2.1663 H   0  0  0  0  0  0  0  0  0  0  0  0
   -2.8414   -2.4515   -0.6673 H   0  0  0  0  0  0  0  0  0  0  0  0
   -4.2220   -0.4290   -1.3988 H   0  0  0  0  0  0  0  0  0  0  0  0
   -4.5560    0.1050    0.7967 H   0  0  0  0  0  0  0  0  0  0  0  0
   -2.6739    1.2460   -1.8043 H   0  0  0  0  0  0  0  0  0  0  0  0
   -3.1573    2.7527   -0.0423 H   0  0  0  0  0  0  0  0  0  0  0  0
   -0.9414    1.9694   -0.1978 H   0  0  0  0  0  0  0  0  0  0  0  0
   -0.4382    0.6683    1.7524 H   0  0  0  0  0  0  0  0  0  0  0  0
   -1.8723   -0.3620    1.5547 H   0  0  0  0  0  0  0  0  0  0  0  0
   -1.7068    2.3120    2.3840 H   0  0  0  0  0  0  0  0  0  0  0  0
  1  2  1  0
  2  3  1  0
  3  4  1  0
  4  5  1  0
  5  6  1  0
  6  7  1  0
  7  8  1  0
  8  9  1  0
  9 10  1  0
  9 11  1  0
 11 12  1  0
 11 13  1  0
 13 14  1  0
 14 15  1  0
 13  6  1  0
  1 16  1  0
  1 17  1  0
  1 18  1  0
  2 19  1  0
  2 20  1  0
  3 21  1  0
  3 22  1  0
  4 23  1  0
  4 24  1  0
  5 25  1  0
  5 26  1  0
  6 27  1  6
  7 28  1  0
  8 29  1  0
  8 30  1  0
  9 31  1  6
 10 32  1  0
 11 33  1  6
 12 34  1  0
 13 35  1  1
 14 36  1  0
 14 37  1  0
 15 38  1  0
M  END
$$$$
