
     RDKit          3D

 59 62  0  0  0  0  0  0  0  0999 V2000
   -9.5540    0.0345   -2.6992 N   0  0  0  0  0  0  0  0  0  0  0  0
   -8.6900    0.5750   -1.7107 C   0  0  0  0  0  0  0  0  0  0  0  0
   -7.4672   -0.0628   -1.4936 C   0  0  0  0  0  0  0  0  0  0  0  0
   -6.8144   -1.1197   -1.9814 N   0  0  0  0  0  0  0  0  0  0  0  0
   -5.6151   -1.2456   -1.3475 C   0  0  0  0  0  0  0  0  0  0  0  0
   -5.5641   -0.2355   -0.4648 N   0  0  0  0  0  0  0  0  0  0  0  0
   -4.4588   -0.0045    0.4118 C   0  0  2  0  0  0  0  0  0  0  0  0
   -3.2171    0.0043   -0.2226 O   0  0  0  0  0  0  0  0  0  0  0  0
   -2.3498    0.1722    0.8661 C   0  0  2  0  0  0  0  0  0  0  0  0
   -0.9088   -0.1657    0.4602 C   0  0  0  0  0  0  0  0  0  0  0  0
   -0.0644   -0.0022    1.5201 O   0  0  0  0  0  0  0  0  0  0  0  0
    1.5391   -0.3384    1.2123 P   0  0  1  0  0  5  0  0  0  0  0  0
    2.5923    0.6232    2.1136 O   0  0  0  0  0  0  0  0  0  0  0  0
    1.7737   -1.7662    1.7181 O   0  0  0  0  0  0  0  0  0  0  0  0
    1.9753   -0.3312   -0.3927 O   0  0  0  0  0  0  0  0  0  0  0  0
    2.7064    1.0695   -0.9328 P   0  0  1  0  0  5  0  0  0  0  0  0
    1.9064    1.5306   -2.3604 O   0  0  0  0  0  0  0  0  0  0  0  0
    2.4333    2.2225    0.0402 O   0  0  0  0  0  0  0  0  0  0  0  0
    4.3580    0.9949   -1.0959 O   0  0  0  0  0  0  0  0  0  0  0  0
    4.9914   -0.0452   -0.4785 C   0  0  0  0  0  0  0  0  0  0  0  0
    6.4881   -0.0452   -0.6715 C   0  0  1  0  0  0  0  0  0  0  0  0
    7.0601    1.1403   -0.1542 O   0  0  0  0  0  0  0  0  0  0  0  0
    8.4178    0.8405   -0.1357 C   0  0  2  0  0  0  0  0  0  0  0  0
    8.9111    0.9930   -1.4261 O   0  0  0  0  0  0  0  0  0  0  0  0
    8.5506   -0.5908    0.3032 C   0  0  2  0  0  0  0  0  0  0  0  0
    9.2422   -1.3396   -0.6541 O   0  0  0  0  0  0  0  0  0  0  0  0
    7.1179   -1.0561    0.2701 C   0  0  2  0  0  0  0  0  0  0  0  0
    6.9609   -2.3608   -0.1375 O   0  0  0  0  0  0  0  0  0  0  0  0
   -2.8389   -0.7396    1.9464 C   0  0  1  0  0  0  0  0  0  0  0  0
   -3.0365    0.0411    3.0929 O   0  0  0  0  0  0  0  0  0  0  0  0
   -4.2456   -1.0874    1.4425 C   0  0  1  0  0  0  0  0  0  0  0  0
   -5.1886   -1.0494    2.4554 O   0  0  0  0  0  0  0  0  0  0  0  0
   -6.6759    0.5201   -0.5142 C   0  0  0  0  0  0  0  0  0  0  0  0
   -7.0996    1.6137    0.1460 N   0  0  0  0  0  0  0  0  0  0  0  0
   -8.2883    2.1929   -0.0994 C   0  0  0  0  0  0  0  0  0  0  0  0
   -9.0916    1.6666   -1.0386 N   0  0  0  0  0  0  0  0  0  0  0  0
   -9.7101   -0.1672   -3.7086 H   0  0  0  0  0  0  0  0  0  0  0  0
  -10.4119   -0.3156   -2.1920 H   0  0  0  0  0  0  0  0  0  0  0  0
   -4.8596   -2.0052   -1.5215 H   0  0  0  0  0  0  0  0  0  0  0  0
   -4.5206    0.9668    0.9498 H   0  0  0  0  0  0  0  0  0  0  0  0
   -2.3677    1.2449    1.1147 H   0  0  0  0  0  0  0  0  0  0  0  0
   -0.9427   -1.2684    0.2482 H   0  0  0  0  0  0  0  0  0  0  0  0
   -0.6380    0.3094   -0.4789 H   0  0  0  0  0  0  0  0  0  0  0  0
    2.1647    1.2398    2.7278 H   0  0  0  0  0  0  0  0  0  0  0  0
    2.5005    1.5490   -3.1476 H   0  0  0  0  0  0  0  0  0  0  0  0
    4.8259    0.0502    0.6152 H   0  0  0  0  0  0  0  0  0  0  0  0
    4.6384   -1.0566   -0.7524 H   0  0  0  0  0  0  0  0  0  0  0  0
    6.8247   -0.1346   -1.7036 H   0  0  0  0  0  0  0  0  0  0  0  0
    8.9798    1.4830    0.5712 H   0  0  0  0  0  0  0  0  0  0  0  0
    8.7159    1.9112   -1.7507 H   0  0  0  0  0  0  0  0  0  0  0  0
    9.0296   -0.6993    1.2889 H   0  0  0  0  0  0  0  0  0  0  0  0
    8.6589   -1.9248   -1.1976 H   0  0  0  0  0  0  0  0  0  0  0  0
    6.6858   -0.8412    1.2712 H   0  0  0  0  0  0  0  0  0  0  0  0
    6.6494   -2.3679   -1.0645 H   0  0  0  0  0  0  0  0  0  0  0  0
   -2.2248   -1.6280    2.1143 H   0  0  0  0  0  0  0  0  0  0  0  0
   -2.1983    0.2282    3.5787 H   0  0  0  0  0  0  0  0  0  0  0  0
   -4.1665   -2.0745    0.9630 H   0  0  0  0  0  0  0  0  0  0  0  0
   -5.0403   -0.2093    2.9549 H   0  0  0  0  0  0  0  0  0  0  0  0
   -8.4490    3.0610    0.5331 H   0  0  0  0  0  0  0  0  0  0  0  0
  1  2  1  0
  2  3  2  0
  3  4  1  0
  4  5  2  0
  5  6  1  0
  6  7  1  0
  7  8  1  0
  8  9  1  0
  9 10  1  0
 10 11  1  0
 12 11  1  6
 12 13  1  0
 12 14  2  0
 12 15  1  0
 16 15  1  1
 16 17  1  0
 16 18  2  0
 16 19  1  0
 19 20  1  0
 20 21  1  0
 21 22  1  0
 22 23  1  0
 23 24  1  0
 23 25  1  0
 25 26  1  0
 25 27  1  0
 27 28  1  0
  9 29  1  0
 29 30  1  0
 29 31  1  0
 31 32  1  0
  6 33  1  0
 33 34  2  0
 34 35  1  0
 35 36  2  0
 36  2  1  0
 33  3  1  0
 31  7  1  0
 27 21  1  0
  1 37  1  0
  1 38  1  0
  5 39  1  0
  7 40  1  1
  9 41  1  1
 10 42  1  0
 10 43  1  0
 13 44  1  0
 17 45  1  0
 20 46  1  0
 20 47  1  0
 21 48  1  6
 23 49  1  1
 24 50  1  0
 25 51  1  1
 26 52  1  0
 27 53  1  1
 28 54  1  0
 29 55  1  1
 30 56  1  0
 31 57  1  6
 32 58  1  0
 35 59  1  0
M  END
$$$$
