@<TRIPOS>MOLECULE
*****
 59 62 0 0 0
SMALL
GASTEIGER

@<TRIPOS>ATOM
      1 N          -9.5540    0.0345   -2.6992 N.pl3   1  UNL1       -0.3413
      2 C          -8.6900    0.5750   -1.7107 C.ar    1  UNL1        0.1472
      3 C          -7.4672   -0.0628   -1.4936 C.ar    1  UNL1        0.1473
      4 N          -6.8144   -1.1197   -1.9814 N.ar    1  UNL1       -0.2306
      5 C          -5.6151   -1.2456   -1.3475 C.ar    1  UNL1        0.1004
      6 N          -5.5641   -0.2355   -0.4648 N.ar    1  UNL1       -0.2855
      7 C          -4.4588   -0.0045    0.4118 C.3     1  UNL1        0.1667
      8 O          -3.2171    0.0043   -0.2226 O.3     1  UNL1       -0.3456
      9 C          -2.3498    0.1722    0.8661 C.3     1  UNL1        0.1134
     10 C          -0.9088   -0.1657    0.4602 C.3     1  UNL1        0.0879
     11 O          -0.0644   -0.0022    1.5201 O.3     1  UNL1       -0.2837
     12 P           1.5391   -0.3384    1.2123 P.3     1  UNL1        0.4835
     13 O           2.5923    0.6232    2.1136 O.3     1  UNL1       -0.3022
     14 O           1.7737   -1.7662    1.7181 O.2     1  UNL1       -0.2269
     15 O           1.9753   -0.3312   -0.3927 O.3     1  UNL1       -0.1861
     16 P           2.7064    1.0695   -0.9328 P.3     1  UNL1        0.4835
     17 O           1.9064    1.5306   -2.3604 O.3     1  UNL1       -0.3022
     18 O           2.4333    2.2225    0.0402 O.2     1  UNL1       -0.2269
     19 O           4.3580    0.9949   -1.0959 O.3     1  UNL1       -0.2837
     20 C           4.9914   -0.0452   -0.4785 C.3     1  UNL1        0.0879
     21 C           6.4881   -0.0452   -0.6715 C.3     1  UNL1        0.1139
     22 O           7.0601    1.1403   -0.1542 O.3     1  UNL1       -0.3407
     23 C           8.4178    0.8405   -0.1357 C.3     1  UNL1        0.1854
     24 O           8.9111    0.9930   -1.4261 O.3     1  UNL1       -0.3649
     25 C           8.5506   -0.5908    0.3032 C.3     1  UNL1        0.1339
     26 O           9.2422   -1.3396   -0.6541 O.3     1  UNL1       -0.3841
     27 C           7.1179   -1.0561    0.2701 C.3     1  UNL1        0.1141
     28 O           6.9609   -2.3608   -0.1375 O.3     1  UNL1       -0.3864
     29 C          -2.8389   -0.7396    1.9464 C.3     1  UNL1        0.1135
     30 O          -3.0365    0.0411    3.0929 O.3     1  UNL1       -0.3864
     31 C          -4.2456   -1.0874    1.4425 C.3     1  UNL1        0.1285
     32 O          -5.1886   -1.0494    2.4554 O.3     1  UNL1       -0.3847
     33 C          -6.6759    0.5201   -0.5142 C.ar    1  UNL1        0.1674
     34 N          -7.0996    1.6137    0.1460 N.ar    1  UNL1       -0.2159
     35 C          -8.2883    2.1929   -0.0994 C.ar    1  UNL1        0.1205
     36 N          -9.0916    1.6666   -1.0386 N.ar    1  UNL1       -0.2188
     37 H          -9.7101   -0.1672   -3.7086 H       1  UNL1        0.1438
     38 H         -10.4119   -0.3156   -2.1920 H       1  UNL1        0.1438
     39 H          -4.8596   -2.0052   -1.5215 H       1  UNL1        0.1030
     40 H          -4.5206    0.9668    0.9498 H       1  UNL1        0.0866
     41 H          -2.3677    1.2449    1.1147 H       1  UNL1        0.0647
     42 H          -0.9427   -1.2684    0.2482 H       1  UNL1        0.0592
     43 H          -0.6380    0.3094   -0.4789 H       1  UNL1        0.0592
     44 H           2.1647    1.2398    2.7278 H       1  UNL1        0.2220
     45 H           2.5005    1.5490   -3.1476 H       1  UNL1        0.2220
     46 H           4.8259    0.0502    0.6152 H       1  UNL1        0.0592
     47 H           4.6384   -1.0566   -0.7524 H       1  UNL1        0.0592
     48 H           6.8247   -0.1346   -1.7036 H       1  UNL1        0.0647
     49 H           8.9798    1.4830    0.5712 H       1  UNL1        0.0935
     50 H           8.7159    1.9112   -1.7507 H       1  UNL1        0.2126
     51 H           9.0296   -0.6993    1.2889 H       1  UNL1        0.0671
     52 H           8.6589   -1.9248   -1.1976 H       1  UNL1        0.2101
     53 H           6.6858   -0.8412    1.2712 H       1  UNL1        0.0648
     54 H           6.6494   -2.3679   -1.0645 H       1  UNL1        0.2100
     55 H          -2.2248   -1.6280    2.1143 H       1  UNL1        0.0647
     56 H          -2.1983    0.2282    3.5787 H       1  UNL1        0.2100
     57 H          -4.1665   -2.0745    0.9630 H       1  UNL1        0.0665
     58 H          -5.0403   -0.2093    2.9549 H       1  UNL1        0.2101
     59 H          -8.4490    3.0610    0.5331 H       1  UNL1        0.1048
@<TRIPOS>BOND
     1     1     2    1
     2     2     3   ar
     3     3     4   ar
     4     4     5   ar
     5     5     6   ar
     6     6     7    1
     7     7     8    1
     8     8     9    1
     9     9    10    1
    10    10    11    1
    11    12    11    1
    12    12    13    1
    13    12    14    2
    14    12    15    1
    15    16    15    1
    16    16    17    1
    17    16    18    2
    18    16    19    1
    19    19    20    1
    20    20    21    1
    21    21    22    1
    22    22    23    1
    23    23    24    1
    24    23    25    1
    25    25    26    1
    26    25    27    1
    27    27    28    1
    28     9    29    1
    29    29    30    1
    30    29    31    1
    31    31    32    1
    32     6    33   ar
    33    33    34   ar
    34    34    35   ar
    35    35    36   ar
    36    36     2   ar
    37    33     3   ar
    38    31     7    1
    39    27    21    1
    40     1    37    1
    41     1    38    1
    42     5    39    1
    43     7    40    1
    44     9    41    1
    45    10    42    1
    46    10    43    1
    47    13    44    1
    48    17    45    1
    49    20    46    1
    50    20    47    1
    51    21    48    1
    52    23    49    1
    53    24    50    1
    54    25    51    1
    55    26    52    1
    56    27    53    1
    57    28    54    1
    58    29    55    1
    59    30    56    1
    60    31    57    1
    61    32    58    1
    62    35    59    1
