@<TRIPOS>MOLECULE
*****
 41 43 0 0 0
SMALL
GASTEIGER

@<TRIPOS>ATOM
      1 C           5.4543    0.6409   -0.5480 C.3     1  UNL1       -0.0457
      2 C           4.6922   -0.6453   -0.7882 C.3     1  UNL1        0.0629
      3 S           3.7625   -1.0085    0.6855 S.O2    1  UNL1       -0.0310
      4 O           4.7266   -1.0602    1.8530 O.2     1  UNL1       -0.1744
      5 O           3.0466   -2.3117    0.5878 O.2     1  UNL1       -0.1744
      6 C           2.6407    0.3383    0.9993 C.3     1  UNL1        0.0687
      7 C           1.6817    0.5316   -0.1512 C.3     1  UNL1       -0.0183
      8 C           0.8102   -0.6670   -0.4559 C.3     1  UNL1       -0.0300
      9 C          -0.4381    0.1779   -0.3192 C.3     1  UNL1        0.0251
     10 N          -1.4359   -0.3605    0.5926 N.pl3   1  UNL1       -0.3146
     11 C          -1.1206   -0.5833    1.9906 C.3     1  UNL1        0.0023
     12 C          -2.7515   -0.6903    0.1634 C.ar    1  UNL1        0.1337
     13 N          -3.1466   -1.9679    0.3079 N.ar    1  UNL1       -0.2200
     14 C          -4.4018   -2.3240   -0.0920 C.ar    1  UNL1        0.1204
     15 N          -5.2482   -1.4294   -0.6247 N.ar    1  UNL1       -0.2178
     16 C          -4.9067   -0.1427   -0.7919 C.ar    1  UNL1        0.1432
     17 N          -5.5472    0.9319   -1.2872 N.ar    1  UNL1       -0.3457
     18 C          -4.6961    1.9687   -1.2005 C.ar    1  UNL1        0.0042
     19 C          -3.5030    1.5518   -0.6453 C.ar    1  UNL1       -0.0318
     20 C          -3.6248    0.2116   -0.3814 C.ar    1  UNL1        0.0585
     21 C           0.4217    1.2721    0.2534 C.3     1  UNL1       -0.0300
     22 H           6.5126    0.5083   -0.8750 H       1  UNL1        0.0245
     23 H           5.4646    0.9036    0.5332 H       1  UNL1        0.0245
     24 H           5.0161    1.4314   -1.1720 H       1  UNL1        0.0245
     25 H           4.0095   -0.5334   -1.6337 H       1  UNL1        0.0497
     26 H           5.3912   -1.4830   -1.0060 H       1  UNL1        0.0497
     27 H           2.1243    0.2294    1.9571 H       1  UNL1        0.0502
     28 H           3.2734    1.2614    1.0355 H       1  UNL1        0.0502
     29 H           2.1698    0.9432   -1.0456 H       1  UNL1        0.0318
     30 H           0.9931   -1.0694   -1.4721 H       1  UNL1        0.0286
     31 H           0.8438   -1.4758    0.3128 H       1  UNL1        0.0286
     32 H          -0.9259    0.4184   -1.2961 H       1  UNL1        0.0500
     33 H          -1.6774   -1.4765    2.3247 H       1  UNL1        0.0428
     34 H          -1.4761    0.3139    2.5461 H       1  UNL1        0.0428
     35 H          -0.0432   -0.7831    2.1489 H       1  UNL1        0.0428
     36 H          -4.7085   -3.3440    0.0267 H       1  UNL1        0.1048
     37 H          -6.5191    0.9845   -1.6730 H       1  UNL1        0.1668
     38 H          -4.9207    2.9741   -1.5200 H       1  UNL1        0.0807
     39 H          -2.6125    2.1321   -0.4377 H       1  UNL1        0.0640
     40 H           0.3079    2.2595   -0.2386 H       1  UNL1        0.0286
     41 H           0.3610    1.3713    1.3368 H       1  UNL1        0.0286
@<TRIPOS>BOND
     1     1     2    1
     2     2     3    1
     3     3     4    2
     4     3     5    2
     5     3     6    1
     6     6     7    1
     7     7     8    1
     8     8     9    1
     9     9    10    1
    10    10    11    1
    11    10    12    1
    12    12    13   ar
    13    13    14   ar
    14    14    15   ar
    15    15    16   ar
    16    16    17   ar
    17    17    18   ar
    18    18    19   ar
    19    19    20   ar
    20     9    21    1
    21    21     7    1
    22    20    12   ar
    23    20    16   ar
    24     1    22    1
    25     1    23    1
    26     1    24    1
    27     2    25    1
    28     2    26    1
    29     6    27    1
    30     6    28    1
    31     7    29    1
    32     8    30    1
    33     8    31    1
    34     9    32    1
    35    11    33    1
    36    11    34    1
    37    11    35    1
    38    14    36    1
    39    17    37    1
    40    18    38    1
    41    19    39    1
    42    21    40    1
    43    21    41    1
