@<TRIPOS>MOLECULE
*****
 52 54 0 0 0
SMALL
GASTEIGER

@<TRIPOS>ATOM
      1 C          -1.5173   -4.1856   -1.6815 C.2     1  UNL1       -0.0951
      2 C          -1.6351   -3.6122   -0.5047 C.2     1  UNL1       -0.0472
      3 C          -1.7562   -4.5293    0.6546 C.3     1  UNL1       -0.0396
      4 C          -1.8381   -2.1813   -0.4263 C.ar    1  UNL1        0.0167
      5 C          -2.5349   -1.6323   -1.5379 C.ar    1  UNL1        0.0374
      6 N          -2.8388   -0.3413   -1.5811 N.ar    1  UNL1       -0.2542
      7 C          -2.5279    0.5316   -0.6127 C.ar    1  UNL1        0.0755
      8 C          -2.8968    1.9492   -0.7222 C.ar    1  UNL1        0.0369
      9 C          -2.6239    2.8968    0.2321 C.ar    1  UNL1       -0.0314
     10 C          -2.9984    4.2276    0.0650 C.ar    1  UNL1        0.0418
     11 CL         -2.6498    5.4281    1.2895 Cl      1  UNL1       -0.0835
     12 C          -3.6604    4.6376   -1.0740 C.ar    1  UNL1       -0.0406
     13 C          -3.9359    3.6928   -2.0327 C.ar    1  UNL1       -0.0244
     14 C          -3.5585    2.3804   -1.8516 C.ar    1  UNL1        0.1326
     15 F          -3.8456    1.4554   -2.8257 F       1  UNL1       -0.2048
     16 C          -1.8595    0.0317    0.4578 C.ar    1  UNL1       -0.0138
     17 C          -1.4899   -1.3328    0.5816 C.ar    1  UNL1        0.0434
     18 N          -0.6914   -1.7071    1.6671 N.pl3   1  UNL1       -0.2982
     19 C           0.6001   -2.2777    1.6551 C.ar    1  UNL1        0.1383
     20 N           0.7404   -3.6193    1.9508 N.ar    1  UNL1       -0.2199
     21 C           1.9007   -4.2375    1.9181 C.ar    1  UNL1        0.1180
     22 N           3.0162   -3.5384    1.5810 N.ar    1  UNL1       -0.2428
     23 C           2.9469   -2.2368    1.2862 C.ar    1  UNL1        0.0447
     24 C           1.7163   -1.5605    1.3179 C.ar    1  UNL1        0.0947
     25 C           1.7478   -0.1201    1.1200 C.2     1  UNL1        0.2490
     26 O           0.9017    0.6797    1.5038 O.2     1  UNL1       -0.2700
     27 N           2.8521    0.4878    0.4080 N.am    1  UNL1       -0.3088
     28 C           2.8927    1.9371    0.2019 C.3     1  UNL1        0.0377
     29 C           4.1579    2.2636   -0.5590 C.3     1  UNL1        0.0679
     30 C           4.2859    3.7463   -0.8272 C.3     1  UNL1       -0.0375
     31 O           4.2072    1.6267   -1.7977 O.3     1  UNL1       -0.3905
     32 H          -1.4233   -3.6268   -2.5728 H       1  UNL1        0.0538
     33 H          -1.5106   -5.2755   -1.7862 H       1  UNL1        0.0538
     34 H          -1.9186   -4.0361    1.6157 H       1  UNL1        0.0278
     35 H          -0.9799   -5.2896    0.7226 H       1  UNL1        0.0278
     36 H          -2.7126   -5.1393    0.4692 H       1  UNL1        0.0278
     37 H          -2.8211   -2.3157   -2.3488 H       1  UNL1        0.0836
     38 H          -2.1163    2.6182    1.1201 H       1  UNL1        0.0639
     39 H          -3.9537    5.6910   -1.2005 H       1  UNL1        0.0633
     40 H          -4.4522    4.0081   -2.9218 H       1  UNL1        0.0647
     41 H          -1.6156    0.6867    1.2986 H       1  UNL1        0.0658
     42 H          -1.1030   -1.5444    2.6458 H       1  UNL1        0.1536
     43 H           1.9922   -5.2941    2.1544 H       1  UNL1        0.1047
     44 H           3.8355   -1.6653    1.0249 H       1  UNL1        0.0839
     45 H           3.6104   -0.0675    0.0289 H       1  UNL1        0.1491
     46 H           2.8217    2.5125    1.1235 H       1  UNL1        0.0487
     47 H           2.0494    2.2589   -0.4588 H       1  UNL1        0.0487
     48 H           5.0639    1.9040    0.0148 H       1  UNL1        0.0606
     49 H           4.8105    3.9506   -1.7868 H       1  UNL1        0.0255
     50 H           4.8886    4.2283   -0.0198 H       1  UNL1        0.0255
     51 H           3.2934    4.2177   -0.8716 H       1  UNL1        0.0255
     52 H           5.1336    1.3182   -2.0044 H       1  UNL1        0.2098
@<TRIPOS>BOND
     1     1     2    2
     2     2     3    1
     3     2     4    1
     4     4     5   ar
     5     5     6   ar
     6     6     7   ar
     7     7     8    1
     8     8     9   ar
     9     9    10   ar
    10    10    11    1
    11    10    12   ar
    12    12    13   ar
    13    13    14   ar
    14    14    15    1
    15     7    16   ar
    16    16    17   ar
    17    17    18    1
    18    18    19    1
    19    19    20   ar
    20    20    21   ar
    21    21    22   ar
    22    22    23   ar
    23    23    24   ar
    24    24    25    1
    25    25    26    2
    26    25    27   am
    27    27    28    1
    28    28    29    1
    29    29    30    1
    30    29    31    1
    31    17     4   ar
    32    24    19   ar
    33    14     8   ar
    34     1    32    1
    35     1    33    1
    36     3    34    1
    37     3    35    1
    38     3    36    1
    39     5    37    1
    40     9    38    1
    41    12    39    1
    42    13    40    1
    43    16    41    1
    44    18    42    1
    45    21    43    1
    46    23    44    1
    47    27    45    1
    48    28    46    1
    49    28    47    1
    50    29    48    1
    51    30    49    1
    52    30    50    1
    53    30    51    1
    54    31    52    1
