
     RDKit          3D

 52 54  0  0  0  0  0  0  0  0999 V2000
   -1.5173   -4.1856   -1.6815 C   0  0  0  0  0  0  0  0  0  0  0  0
   -1.6351   -3.6122   -0.5047 C   0  0  0  0  0  0  0  0  0  0  0  0
   -1.7562   -4.5293    0.6546 C   0  0  0  0  0  0  0  0  0  0  0  0
   -1.8381   -2.1813   -0.4263 C   0  0  0  0  0  0  0  0  0  0  0  0
   -2.5349   -1.6323   -1.5379 C   0  0  0  0  0  0  0  0  0  0  0  0
   -2.8388   -0.3413   -1.5811 N   0  0  0  0  0  0  0  0  0  0  0  0
   -2.5279    0.5316   -0.6127 C   0  0  0  0  0  0  0  0  0  0  0  0
   -2.8968    1.9492   -0.7222 C   0  0  0  0  0  0  0  0  0  0  0  0
   -2.6239    2.8968    0.2321 C   0  0  0  0  0  0  0  0  0  0  0  0
   -2.9984    4.2276    0.0650 C   0  0  0  0  0  0  0  0  0  0  0  0
   -2.6498    5.4281    1.2895 Cl  0  0  0  0  0  0  0  0  0  0  0  0
   -3.6604    4.6376   -1.0740 C   0  0  0  0  0  0  0  0  0  0  0  0
   -3.9359    3.6928   -2.0327 C   0  0  0  0  0  0  0  0  0  0  0  0
   -3.5585    2.3804   -1.8516 C   0  0  0  0  0  0  0  0  0  0  0  0
   -3.8456    1.4554   -2.8257 F   0  0  0  0  0  0  0  0  0  0  0  0
   -1.8595    0.0317    0.4578 C   0  0  0  0  0  0  0  0  0  0  0  0
   -1.4899   -1.3328    0.5816 C   0  0  0  0  0  0  0  0  0  0  0  0
   -0.6914   -1.7071    1.6671 N   0  0  0  0  0  0  0  0  0  0  0  0
    0.6001   -2.2777    1.6551 C   0  0  0  0  0  0  0  0  0  0  0  0
    0.7404   -3.6193    1.9508 N   0  0  0  0  0  0  0  0  0  0  0  0
    1.9007   -4.2375    1.9181 C   0  0  0  0  0  0  0  0  0  0  0  0
    3.0162   -3.5384    1.5810 N   0  0  0  0  0  0  0  0  0  0  0  0
    2.9469   -2.2368    1.2862 C   0  0  0  0  0  0  0  0  0  0  0  0
    1.7163   -1.5605    1.3179 C   0  0  0  0  0  0  0  0  0  0  0  0
    1.7478   -0.1201    1.1200 C   0  0  0  0  0  0  0  0  0  0  0  0
    0.9017    0.6797    1.5038 O   0  0  0  0  0  0  0  0  0  0  0  0
    2.8521    0.4878    0.4080 N   0  0  0  0  0  0  0  0  0  0  0  0
    2.8927    1.9371    0.2019 C   0  0  0  0  0  0  0  0  0  0  0  0
    4.1579    2.2636   -0.5590 C   0  0  2  0  0  0  0  0  0  0  0  0
    4.2859    3.7463   -0.8272 C   0  0  0  0  0  0  0  0  0  0  0  0
    4.2072    1.6267   -1.7977 O   0  0  0  0  0  0  0  0  0  0  0  0
   -1.4233   -3.6268   -2.5728 H   0  0  0  0  0  0  0  0  0  0  0  0
   -1.5106   -5.2755   -1.7862 H   0  0  0  0  0  0  0  0  0  0  0  0
   -1.9186   -4.0361    1.6157 H   0  0  0  0  0  0  0  0  0  0  0  0
   -0.9799   -5.2896    0.7226 H   0  0  0  0  0  0  0  0  0  0  0  0
   -2.7126   -5.1393    0.4692 H   0  0  0  0  0  0  0  0  0  0  0  0
   -2.8211   -2.3157   -2.3488 H   0  0  0  0  0  0  0  0  0  0  0  0
   -2.1163    2.6182    1.1201 H   0  0  0  0  0  0  0  0  0  0  0  0
   -3.9537    5.6910   -1.2005 H   0  0  0  0  0  0  0  0  0  0  0  0
   -4.4522    4.0081   -2.9218 H   0  0  0  0  0  0  0  0  0  0  0  0
   -1.6156    0.6867    1.2986 H   0  0  0  0  0  0  0  0  0  0  0  0
   -1.1030   -1.5444    2.6458 H   0  0  0  0  0  0  0  0  0  0  0  0
    1.9922   -5.2941    2.1544 H   0  0  0  0  0  0  0  0  0  0  0  0
    3.8355   -1.6653    1.0249 H   0  0  0  0  0  0  0  0  0  0  0  0
    3.6104   -0.0675    0.0289 H   0  0  0  0  0  0  0  0  0  0  0  0
    2.8217    2.5125    1.1235 H   0  0  0  0  0  0  0  0  0  0  0  0
    2.0494    2.2589   -0.4588 H   0  0  0  0  0  0  0  0  0  0  0  0
    5.0639    1.9040    0.0148 H   0  0  0  0  0  0  0  0  0  0  0  0
    4.8105    3.9506   -1.7868 H   0  0  0  0  0  0  0  0  0  0  0  0
    4.8886    4.2283   -0.0198 H   0  0  0  0  0  0  0  0  0  0  0  0
    3.2934    4.2177   -0.8716 H   0  0  0  0  0  0  0  0  0  0  0  0
    5.1336    1.3182   -2.0044 H   0  0  0  0  0  0  0  0  0  0  0  0
  1  2  2  3
  2  3  1  0
  2  4  1  0
  4  5  2  0
  5  6  1  0
  6  7  2  0
  7  8  1  0
  8  9  2  0
  9 10  1  0
 10 11  1  0
 10 12  2  0
 12 13  1  0
 13 14  2  0
 14 15  1  0
  7 16  1  0
 16 17  2  0
 17 18  1  0
 18 19  1  0
 19 20  2  0
 20 21  1  0
 21 22  2  0
 22 23  1  0
 23 24  2  0
 24 25  1  0
 25 26  2  0
 25 27  1  0
 27 28  1  0
 28 29  1  0
 29 30  1  0
 29 31  1  0
 17  4  1  0
 24 19  1  0
 14  8  1  0
  1 32  1  0
  1 33  1  0
  3 34  1  0
  3 35  1  0
  3 36  1  0
  5 37  1  0
  9 38  1  0
 12 39  1  0
 13 40  1  0
 16 41  1  0
 18 42  1  0
 21 43  1  0
 23 44  1  0
 27 45  1  0
 28 46  1  0
 28 47  1  0
 29 48  1  1
 30 49  1  0
 30 50  1  0
 30 51  1  0
 31 52  1  0
M  END
$$$$
