@<TRIPOS>MOLECULE
*****
 59 62 0 0 0
SMALL
GASTEIGER

@<TRIPOS>ATOM
      1 C          -6.1072    3.5041    0.5981 C.3     1  UNL1        0.0705
      2 S          -5.9313    1.9296    1.1437 S.O2    1  UNL1        0.0266
      3 O          -6.4166    0.9928   -0.1108 O.2     1  UNL1       -0.1585
      4 O          -6.6851    1.4123    2.2911 O.2     1  UNL1       -0.1585
      5 N          -4.2903    1.2398    1.3213 N.3     1  UNL1       -0.1927
      6 C          -3.8414    1.3577   -0.0039 C.3     1  UNL1        0.0396
      7 C          -2.6720    0.4491   -0.3369 C.3     1  UNL1        0.0625
      8 N          -1.4262    0.4225    0.2145 N.am    1  UNL1       -0.3057
      9 C          -0.4319   -0.2635   -0.5126 C.2     1  UNL1        0.2336
     10 O          -0.7538   -0.9252   -1.5146 O.2     1  UNL1       -0.2738
     11 C           1.0163   -0.1873   -0.1050 C.3     1  UNL1        0.0965
     12 N           1.3076    1.2376   -0.5984 N.3     1  UNL1       -0.3173
     13 C           1.8239   -1.1139   -0.9623 C.3     1  UNL1       -0.0104
     14 C           3.2226   -0.6391   -0.9912 C.3     1  UNL1        0.0156
     15 N           3.5780   -0.3120    0.4341 N.pl3   1  UNL1       -0.3144
     16 C           4.7868    0.4656    0.4731 C.ar    1  UNL1        0.1337
     17 N           4.8347    1.6904    0.2240 N.ar    1  UNL1       -0.2200
     18 C           5.9370    2.4075   -0.0136 C.ar    1  UNL1        0.1204
     19 N           7.1083    1.6827    0.0745 N.ar    1  UNL1       -0.2178
     20 C           7.1327    0.4084    0.3745 C.ar    1  UNL1        0.1432
     21 N           8.1680   -0.5000    0.5197 N.ar    1  UNL1       -0.3457
     22 C           7.6157   -1.7002    0.7833 C.ar    1  UNL1        0.0042
     23 C           6.2858   -1.5771    0.7755 C.ar    1  UNL1       -0.0318
     24 C           5.9375   -0.2901    0.5726 C.ar    1  UNL1        0.0585
     25 C           2.7391   -0.7932    1.4530 C.3     1  UNL1        0.0156
     26 C           1.3227   -0.2211    1.3245 C.3     1  UNL1       -0.0104
     27 C          -3.4584   -0.9470   -0.2875 C.ar    1  UNL1       -0.0259
     28 C          -3.9700   -1.3253    0.9300 C.ar    1  UNL1       -0.0554
     29 C          -4.8310   -2.4203    1.0220 C.ar    1  UNL1       -0.0431
     30 C          -5.1425   -3.0632   -0.1582 C.ar    1  UNL1        0.0410
     31 CL         -6.5866   -4.1540   -0.1505 Cl      1  UNL1       -0.0835
     32 C          -4.5845   -2.6987   -1.3429 C.ar    1  UNL1       -0.0431
     33 C          -3.7290   -1.6069   -1.3960 C.ar    1  UNL1       -0.0554
     34 H          -5.6563    4.2648    1.3039 H       1  UNL1        0.0479
     35 H          -5.7121    3.6532   -0.4177 H       1  UNL1        0.0479
     36 H          -7.2180    3.7460    0.5641 H       1  UNL1        0.0479
     37 H          -3.8574    2.1132    1.8681 H       1  UNL1        0.1477
     38 H          -4.2256    1.9867   -0.7684 H       1  UNL1        0.0463
     39 H          -2.9807    2.3486    0.2077 H       1  UNL1        0.0463
     40 H          -2.5642    0.5429   -1.5115 H       1  UNL1        0.0561
     41 H          -1.1619    0.7102    1.2170 H       1  UNL1        0.1494
     42 H           0.8539    1.8571    0.0954 H       1  UNL1        0.1192
     43 H           0.7426    1.3613   -1.4974 H       1  UNL1        0.1192
     44 H           1.3654   -1.1342   -1.9922 H       1  UNL1        0.0303
     45 H           1.7500   -2.1382   -0.5268 H       1  UNL1        0.0303
     46 H           3.3057    0.2789   -1.6095 H       1  UNL1        0.0465
     47 H           3.8741   -1.4486   -1.3436 H       1  UNL1        0.0465
     48 H           5.9009    3.4077   -0.3346 H       1  UNL1        0.1048
     49 H           9.1748   -0.2764    0.2729 H       1  UNL1        0.1668
     50 H           8.1901   -2.5885    1.0274 H       1  UNL1        0.0807
     51 H           5.5208   -2.4379    0.8732 H       1  UNL1        0.0640
     52 H           3.1549   -0.6206    2.4499 H       1  UNL1        0.0465
     53 H           2.6559   -1.9203    1.3100 H       1  UNL1        0.0465
     54 H           0.6055   -0.7897    1.9444 H       1  UNL1        0.0303
     55 H           1.4233    0.8183    1.7470 H       1  UNL1        0.0303
     56 H          -3.7501   -0.8123    1.8446 H       1  UNL1        0.0621
     57 H          -5.2265   -2.7331    1.9528 H       1  UNL1        0.0632
     58 H          -4.7200   -3.3627   -2.1847 H       1  UNL1        0.0632
     59 H          -3.4038   -1.2886   -2.3791 H       1  UNL1        0.0621
@<TRIPOS>BOND
     1     1     2    1
     2     2     3    2
     3     2     4    2
     4     2     5    1
     5     5     6    1
     6     6     7    1
     7     7     8    1
     8     8     9   am
     9     9    10    2
    10     9    11    1
    11    11    12    1
    12    11    13    1
    13    13    14    1
    14    14    15    1
    15    15    16    1
    16    16    17   ar
    17    17    18   ar
    18    18    19   ar
    19    19    20   ar
    20    20    21   ar
    21    21    22   ar
    22    22    23   ar
    23    23    24   ar
    24    15    25    1
    25    25    26    1
    26     7    27    1
    27    27    28   ar
    28    28    29   ar
    29    29    30   ar
    30    30    31    1
    31    30    32   ar
    32    32    33   ar
    33    26    11    1
    34    33    27   ar
    35    24    16   ar
    36    24    20   ar
    37     1    34    1
    38     1    35    1
    39     1    36    1
    40     5    37    1
    41     6    38    1
    42     6    39    1
    43     7    40    1
    44     8    41    1
    45    12    42    1
    46    12    43    1
    47    13    44    1
    48    13    45    1
    49    14    46    1
    50    14    47    1
    51    18    48    1
    52    21    49    1
    53    22    50    1
    54    23    51    1
    55    25    52    1
    56    25    53    1
    57    26    54    1
    58    26    55    1
    59    28    56    1
    60    29    57    1
    61    32    58    1
    62    33    59    1
