
     RDKit          3D

 81 84  0  0  0  0  0  0  0  0999 V2000
  -11.0307    0.7093    0.2444 C   0  0  0  0  0  0  0  0  0  0  0  0
  -10.0286    0.2300    1.0628 O   0  0  0  0  0  0  0  0  0  0  0  0
   -8.7536    0.4291    0.5436 C   0  0  0  0  0  0  0  0  0  0  0  0
   -8.4736    1.9006    0.3330 C   0  0  0  0  0  0  0  0  0  0  0  0
   -7.1091    2.1527   -0.2228 C   0  0  0  0  0  0  0  0  0  0  0  0
   -6.0243    1.6579    0.6462 C   0  0  0  0  0  0  0  0  0  0  0  0
   -5.4836    2.4724    1.6162 C   0  0  0  0  0  0  0  0  0  0  0  0
   -4.4719    1.9987    2.4206 C   0  0  0  0  0  0  0  0  0  0  0  0
   -3.9725    0.7012    2.2790 C   0  0  0  0  0  0  0  0  0  0  0  0
   -2.7538    0.1734    3.4230 Cl  0  0  0  0  0  0  0  0  0  0  0  0
   -4.4727   -0.1294    1.3373 C   0  0  0  0  0  0  0  0  0  0  0  0
   -4.0255   -1.5095    1.0133 C   0  0  0  0  0  0  0  0  0  0  0  0
   -2.8723   -1.4118    0.0628 N   0  0  0  0  0  0  0  0  0  0  0  0
   -1.5969   -1.4763    0.6123 C   0  0  0  0  0  0  0  0  0  0  0  0
   -1.4548   -1.8976    1.8325 O   0  0  0  0  0  0  0  0  0  0  0  0
   -0.3476   -1.1011   -0.0561 C   0  0  1  0  0  0  0  0  0  0  0  0
   -0.2406    0.3962   -0.2408 C   0  0  0  0  0  0  0  0  0  0  0  0
    0.9353    0.8146   -0.9298 N   0  0  0  0  0  0  0  0  0  0  0  0
    0.7737   -1.5126    0.9223 C   0  0  0  0  0  0  0  0  0  0  0  0
    2.0721   -1.1887    0.3649 C   0  0  0  0  0  0  0  0  0  0  0  0
    2.6275   -2.0851   -0.5505 C   0  0  0  0  0  0  0  0  0  0  0  0
    3.8727   -1.8778   -1.0885 C   0  0  0  0  0  0  0  0  0  0  0  0
    4.6362   -0.7803   -0.7555 C   0  0  0  0  0  0  0  0  0  0  0  0
    5.9028   -0.5711   -1.3039 O   0  0  0  0  0  0  0  0  0  0  0  0
    6.3863   -1.5283   -2.2258 C   0  0  0  0  0  0  0  0  0  0  0  0
    7.7422   -1.1637   -2.7101 C   0  0  0  0  0  0  0  0  0  0  0  0
    8.7551   -1.0675   -1.7670 O   0  0  0  0  0  0  0  0  0  0  0  0
    8.7740   -0.2343   -0.6717 C   0  0  0  0  0  0  0  0  0  0  0  0
    9.2471    1.0814   -0.7725 C   0  0  0  0  0  0  0  0  0  0  0  0
    9.8025    1.5878   -2.3648 Cl  0  0  0  0  0  0  0  0  0  0  0  0
    9.2788    1.9355    0.3080 C   0  0  0  0  0  0  0  0  0  0  0  0
    8.8415    1.5297    1.5514 C   0  0  0  0  0  0  0  0  0  0  0  0
    8.8679    2.4391    2.7333 C   0  0  0  0  0  0  0  0  0  0  0  0
    8.3749    0.2378    1.6608 C   0  0  0  0  0  0  0  0  0  0  0  0
    8.3404   -0.6311    0.5729 C   0  0  0  0  0  0  0  0  0  0  0  0
    7.7613   -2.2824    0.7931 Cl  0  0  0  0  0  0  0  0  0  0  0  0
    4.0738    0.0942    0.1487 C   0  0  0  0  0  0  0  0  0  0  0  0
    2.8303   -0.0904    0.7012 C   0  0  0  0  0  0  0  0  0  0  0  0
   -3.1799   -1.3589   -1.3284 C   0  0  0  0  0  0  0  0  0  0  0  0
   -2.5553   -2.4420   -2.1697 C   0  0  0  0  0  0  0  0  0  0  0  0
   -2.4105   -1.0241   -2.4904 C   0  0  0  0  0  0  0  0  0  0  0  0
   -5.5105    0.4020    0.5388 C   0  0  0  0  0  0  0  0  0  0  0  0
  -11.0461    0.2371   -0.7616 H   0  0  0  0  0  0  0  0  0  0  0  0
  -11.0807    1.8121    0.1939 H   0  0  0  0  0  0  0  0  0  0  0  0
  -12.0056    0.4014    0.7171 H   0  0  0  0  0  0  0  0  0  0  0  0
   -8.0443    0.0451    1.3284 H   0  0  0  0  0  0  0  0  0  0  0  0
   -8.6325   -0.1033   -0.3983 H   0  0  0  0  0  0  0  0  0  0  0  0
   -9.2015    2.2383   -0.4620 H   0  0  0  0  0  0  0  0  0  0  0  0
   -8.6784    2.5231    1.2065 H   0  0  0  0  0  0  0  0  0  0  0  0
   -6.9828    3.2586   -0.2915 H   0  0  0  0  0  0  0  0  0  0  0  0
   -6.9929    1.7567   -1.2532 H   0  0  0  0  0  0  0  0  0  0  0  0
   -5.8113    3.4896    1.7925 H   0  0  0  0  0  0  0  0  0  0  0  0
   -4.0231    2.6038    3.1899 H   0  0  0  0  0  0  0  0  0  0  0  0
   -4.7859   -2.1009    0.5134 H   0  0  0  0  0  0  0  0  0  0  0  0
   -3.6869   -2.0033    1.9223 H   0  0  0  0  0  0  0  0  0  0  0  0
   -0.1554   -1.5979   -1.0089 H   0  0  0  0  0  0  0  0  0  0  0  0
   -0.1846    0.9016    0.7809 H   0  0  0  0  0  0  0  0  0  0  0  0
   -1.1477    0.7915   -0.6900 H   0  0  0  0  0  0  0  0  0  0  0  0
    0.8708    1.7597   -1.3217 H   0  0  0  0  0  0  0  0  0  0  0  0
    1.2153    0.1690   -1.7044 H   0  0  0  0  0  0  0  0  0  0  0  0
    0.7042   -2.6154    1.1155 H   0  0  0  0  0  0  0  0  0  0  0  0
    0.5951   -1.0298    1.9082 H   0  0  0  0  0  0  0  0  0  0  0  0
    2.0496   -2.9740   -0.8425 H   0  0  0  0  0  0  0  0  0  0  0  0
    4.3159   -2.5765   -1.8075 H   0  0  0  0  0  0  0  0  0  0  0  0
    6.3620   -2.5656   -1.8336 H   0  0  0  0  0  0  0  0  0  0  0  0
    5.7022   -1.4541   -3.1247 H   0  0  0  0  0  0  0  0  0  0  0  0
    7.6415   -0.1319   -3.1719 H   0  0  0  0  0  0  0  0  0  0  0  0
    8.0231   -1.8002   -3.5843 H   0  0  0  0  0  0  0  0  0  0  0  0
    9.6471    2.9290    0.1860 H   0  0  0  0  0  0  0  0  0  0  0  0
    8.9838    3.4919    2.4120 H   0  0  0  0  0  0  0  0  0  0  0  0
    9.7845    2.1663    3.3053 H   0  0  0  0  0  0  0  0  0  0  0  0
    7.9530    2.3587    3.3460 H   0  0  0  0  0  0  0  0  0  0  0  0
    8.0241   -0.1004    2.6393 H   0  0  0  0  0  0  0  0  0  0  0  0
    4.6742    0.9749    0.4226 H   0  0  0  0  0  0  0  0  0  0  0  0
    2.4275    0.6255    1.4134 H   0  0  0  0  0  0  0  0  0  0  0  0
   -4.3237   -1.2727   -1.4841 H   0  0  0  0  0  0  0  0  0  0  0  0
   -1.7775   -3.0529   -1.7095 H   0  0  0  0  0  0  0  0  0  0  0  0
   -3.2178   -3.0347   -2.8395 H   0  0  0  0  0  0  0  0  0  0  0  0
   -1.3975   -0.6331   -2.5658 H   0  0  0  0  0  0  0  0  0  0  0  0
   -3.0002   -0.6287   -3.4108 H   0  0  0  0  0  0  0  0  0  0  0  0
   -5.9258   -0.2715   -0.2017 H   0  0  0  0  0  0  0  0  0  0  0  0
  1  2  1  0
  2  3  1  0
  3  4  1  0
  4  5  1  0
  5  6  1  0
  6  7  2  0
  7  8  1  0
  8  9  2  0
  9 10  1  0
  9 11  1  0
 11 12  1  0
 12 13  1  0
 13 14  1  0
 14 15  2  0
 14 16  1  0
 16 17  1  0
 17 18  1  0
 16 19  1  0
 19 20  1  0
 20 21  2  0
 21 22  1  0
 22 23  2  0
 23 24  1  0
 24 25  1  0
 25 26  1  0
 26 27  1  0
 27 28  1  0
 28 29  2  0
 29 30  1  0
 29 31  1  0
 31 32  2  0
 32 33  1  0
 32 34  1  0
 34 35  2  0
 35 36  1  0
 23 37  1  0
 37 38  2  0
 13 39  1  0
 39 40  1  0
 40 41  1  0
 11 42  2  0
 42  6  1  0
 38 20  1  0
 41 39  1  0
 35 28  1  0
  1 43  1  0
  1 44  1  0
  1 45  1  0
  3 46  1  0
  3 47  1  0
  4 48  1  0
  4 49  1  0
  5 50  1  0
  5 51  1  0
  7 52  1  0
  8 53  1  0
 12 54  1  0
 12 55  1  0
 16 56  1  6
 17 57  1  0
 17 58  1  0
 18 59  1  0
 18 60  1  0
 19 61  1  0
 19 62  1  0
 21 63  1  0
 22 64  1  0
 25 65  1  0
 25 66  1  0
 26 67  1  0
 26 68  1  0
 31 69  1  0
 33 70  1  0
 33 71  1  0
 33 72  1  0
 34 73  1  0
 37 74  1  0
 38 75  1  0
 39 76  1  0
 40 77  1  0
 40 78  1  0
 41 79  1  0
 41 80  1  0
 42 81  1  0
M  END
$$$$
