@<TRIPOS>MOLECULE
*****
 81 84 0 0 0
SMALL
GASTEIGER

@<TRIPOS>ATOM
      1 C         -11.0307    0.7093    0.2444 C.3     1  UNL1        0.0364
      2 O         -10.0286    0.2300    1.0628 O.3     1  UNL1       -0.3830
      3 C          -8.7536    0.4291    0.5436 C.3     1  UNL1        0.0476
      4 C          -8.4736    1.9006    0.3330 C.3     1  UNL1       -0.0255
      5 C          -7.1091    2.1527   -0.2228 C.3     1  UNL1       -0.0256
      6 C          -6.0243    1.6579    0.6462 C.ar    1  UNL1       -0.0469
      7 C          -5.4836    2.4724    1.6162 C.ar    1  UNL1       -0.0572
      8 C          -4.4719    1.9987    2.4206 C.ar    1  UNL1       -0.0428
      9 C          -3.9725    0.7012    2.2790 C.ar    1  UNL1        0.0457
     10 CL         -2.7538    0.1734    3.4230 Cl      1  UNL1       -0.0832
     11 C          -4.4727   -0.1294    1.3373 C.ar    1  UNL1       -0.0116
     12 C          -4.0255   -1.5095    1.0133 C.3     1  UNL1        0.0414
     13 N          -2.8723   -1.4118    0.0628 N.am    1  UNL1       -0.2938
     14 C          -1.5969   -1.4763    0.6123 C.2     1  UNL1        0.2207
     15 O          -1.4548   -1.8976    1.8325 O.2     1  UNL1       -0.2752
     16 C          -0.3476   -1.1011   -0.0561 C.3     1  UNL1        0.0520
     17 C          -0.2406    0.3962   -0.2408 C.3     1  UNL1        0.0045
     18 N           0.9353    0.8146   -0.9298 N.3     1  UNL1       -0.3292
     19 C           0.7737   -1.5126    0.9223 C.3     1  UNL1       -0.0154
     20 C           2.0721   -1.1887    0.3649 C.ar    1  UNL1       -0.0464
     21 C           2.6275   -2.0851   -0.5505 C.ar    1  UNL1       -0.0551
     22 C           3.8727   -1.8778   -1.0885 C.ar    1  UNL1       -0.0197
     23 C           4.6362   -0.7803   -0.7555 C.ar    1  UNL1        0.1207
     24 O           5.9028   -0.5711   -1.3039 O.3     1  UNL1       -0.4886
     25 C           6.3863   -1.5283   -2.2258 C.3     1  UNL1        0.1235
     26 C           7.7422   -1.1637   -2.7101 C.3     1  UNL1        0.1236
     27 O           8.7551   -1.0675   -1.7670 O.3     1  UNL1       -0.4857
     28 C           8.7740   -0.2343   -0.6717 C.ar    1  UNL1        0.1571
     29 C           9.2471    1.0814   -0.7725 C.ar    1  UNL1        0.0842
     30 CL          9.8025    1.5878   -2.3648 Cl      1  UNL1       -0.0797
     31 C           9.2788    1.9355    0.3080 C.ar    1  UNL1       -0.0368
     32 C           8.8415    1.5297    1.5514 C.ar    1  UNL1       -0.0475
     33 C           8.8679    2.4391    2.7333 C.3     1  UNL1       -0.0396
     34 C           8.3749    0.2378    1.6608 C.ar    1  UNL1       -0.0368
     35 C           8.3404   -0.6311    0.5729 C.ar    1  UNL1        0.0842
     36 CL          7.7613   -2.2824    0.7931 Cl      1  UNL1       -0.0797
     37 C           4.0738    0.0942    0.1487 C.ar    1  UNL1       -0.0197
     38 C           2.8303   -0.0904    0.7012 C.ar    1  UNL1       -0.0551
     39 C          -3.1799   -1.3589   -1.3284 C.3     1  UNL1        0.0265
     40 C          -2.5553   -2.4420   -2.1697 C.3     1  UNL1       -0.0326
     41 C          -2.4105   -1.0241   -2.4904 C.3     1  UNL1       -0.0326
     42 C          -5.5105    0.4020    0.5388 C.ar    1  UNL1       -0.0525
     43 H         -11.0461    0.2371   -0.7616 H       1  UNL1        0.0523
     44 H         -11.0807    1.8121    0.1939 H       1  UNL1        0.0523
     45 H         -12.0056    0.4014    0.7171 H       1  UNL1        0.0523
     46 H          -8.0443    0.0451    1.3284 H       1  UNL1        0.0560
     47 H          -8.6325   -0.1033   -0.3983 H       1  UNL1        0.0560
     48 H          -9.2015    2.2383   -0.4620 H       1  UNL1        0.0290
     49 H          -8.6784    2.5231    1.2065 H       1  UNL1        0.0290
     50 H          -6.9828    3.2586   -0.2915 H       1  UNL1        0.0314
     51 H          -6.9929    1.7567   -1.2532 H       1  UNL1        0.0314
     52 H          -5.8113    3.4896    1.7925 H       1  UNL1        0.0621
     53 H          -4.0231    2.6038    3.1899 H       1  UNL1        0.0632
     54 H          -4.7859   -2.1009    0.5134 H       1  UNL1        0.0514
     55 H          -3.6869   -2.0033    1.9223 H       1  UNL1        0.0514
     56 H          -0.1554   -1.5979   -1.0089 H       1  UNL1        0.0410
     57 H          -0.1846    0.9016    0.7809 H       1  UNL1        0.0429
     58 H          -1.1477    0.7915   -0.6900 H       1  UNL1        0.0429
     59 H           0.8708    1.7597   -1.3217 H       1  UNL1        0.1182
     60 H           1.2153    0.1690   -1.7044 H       1  UNL1        0.1182
     61 H           0.7042   -2.6154    1.1155 H       1  UNL1        0.0321
     62 H           0.5951   -1.0298    1.9082 H       1  UNL1        0.0321
     63 H           2.0496   -2.9740   -0.8425 H       1  UNL1        0.0621
     64 H           4.3159   -2.5765   -1.8075 H       1  UNL1        0.0654
     65 H           6.3620   -2.5656   -1.8336 H       1  UNL1        0.0731
     66 H           5.7022   -1.4541   -3.1247 H       1  UNL1        0.0731
     67 H           7.6415   -0.1319   -3.1719 H       1  UNL1        0.0731
     68 H           8.0231   -1.8002   -3.5843 H       1  UNL1        0.0731
     69 H           9.6471    2.9290    0.1860 H       1  UNL1        0.0636
     70 H           8.9838    3.4919    2.4120 H       1  UNL1        0.0278
     71 H           9.7845    2.1663    3.3053 H       1  UNL1        0.0278
     72 H           7.9530    2.3587    3.3460 H       1  UNL1        0.0278
     73 H           8.0241   -0.1004    2.6393 H       1  UNL1        0.0636
     74 H           4.6742    0.9749    0.4226 H       1  UNL1        0.0654
     75 H           2.4275    0.6255    1.4134 H       1  UNL1        0.0621
     76 H          -4.3237   -1.2727   -1.4841 H       1  UNL1        0.0500
     77 H          -1.7775   -3.0529   -1.7095 H       1  UNL1        0.0284
     78 H          -3.2178   -3.0347   -2.8395 H       1  UNL1        0.0284
     79 H          -1.3975   -0.6331   -2.5658 H       1  UNL1        0.0284
     80 H          -3.0002   -0.6287   -3.4108 H       1  UNL1        0.0284
     81 H          -5.9258   -0.2715   -0.2017 H       1  UNL1        0.0624
@<TRIPOS>BOND
     1     1     2    1
     2     2     3    1
     3     3     4    1
     4     4     5    1
     5     5     6    1
     6     6     7   ar
     7     7     8   ar
     8     8     9   ar
     9     9    10    1
    10     9    11   ar
    11    11    12    1
    12    12    13    1
    13    13    14   am
    14    14    15    2
    15    14    16    1
    16    16    17    1
    17    17    18    1
    18    16    19    1
    19    19    20    1
    20    20    21   ar
    21    21    22   ar
    22    22    23   ar
    23    23    24    1
    24    24    25    1
    25    25    26    1
    26    26    27    1
    27    27    28    1
    28    28    29   ar
    29    29    30    1
    30    29    31   ar
    31    31    32   ar
    32    32    33    1
    33    32    34   ar
    34    34    35   ar
    35    35    36    1
    36    23    37   ar
    37    37    38   ar
    38    13    39    1
    39    39    40    1
    40    40    41    1
    41    11    42   ar
    42    42     6   ar
    43    38    20   ar
    44    41    39    1
    45    35    28   ar
    46     1    43    1
    47     1    44    1
    48     1    45    1
    49     3    46    1
    50     3    47    1
    51     4    48    1
    52     4    49    1
    53     5    50    1
    54     5    51    1
    55     7    52    1
    56     8    53    1
    57    12    54    1
    58    12    55    1
    59    16    56    1
    60    17    57    1
    61    17    58    1
    62    18    59    1
    63    18    60    1
    64    19    61    1
    65    19    62    1
    66    21    63    1
    67    22    64    1
    68    25    65    1
    69    25    66    1
    70    26    67    1
    71    26    68    1
    72    31    69    1
    73    33    70    1
    74    33    71    1
    75    33    72    1
    76    34    73    1
    77    37    74    1
    78    38    75    1
    79    39    76    1
    80    40    77    1
    81    40    78    1
    82    41    79    1
    83    41    80    1
    84    42    81    1
