@<TRIPOS>MOLECULE
*****
 58 62 0 0 0
SMALL
GASTEIGER

@<TRIPOS>ATOM
      1 C           6.3271   -0.2437   -0.2626 C.3     1  UNL1        0.0381
      2 P           5.0512    0.9707   -0.6485 P.3     1  UNL1        0.3298
      3 O           5.7241    2.3057   -0.9827 O.2     1  UNL1       -0.2587
      4 O           4.1289    0.5474   -1.9849 O.3     1  UNL1       -0.3080
      5 C           3.3685   -0.5939   -1.7711 C.3     1  UNL1        0.0575
      6 C           1.9563   -0.2720   -1.3057 C.3     1  UNL1       -0.0208
      7 C           1.8612    0.3501    0.0186 C.3     1  UNL1        0.0050
      8 C           1.6991    1.8745   -0.0984 C.3     1  UNL1       -0.0447
      9 C           0.4265    2.2286   -0.7438 C.3     1  UNL1       -0.0501
     10 C          -0.6678    1.2217   -0.7388 C.3     1  UNL1       -0.0227
     11 C          -0.6527    0.1729    0.3068 C.3     1  UNL1        0.1302
     12 S          -1.6907    0.5892    1.7058 S.O2    1  UNL1        0.0072
     13 O          -1.4639   -0.4554    2.7919 O.2     1  UNL1       -0.1685
     14 O          -1.1540    1.8831    2.3070 O.2     1  UNL1       -0.1685
     15 C          -3.3453    0.8207    1.3593 C.ar    1  UNL1        0.0893
     16 C          -4.2157   -0.2335    1.4441 C.ar    1  UNL1       -0.0355
     17 C          -5.5615   -0.1267    1.1846 C.ar    1  UNL1       -0.0416
     18 C          -6.0571    1.1004    0.8220 C.ar    1  UNL1        0.0411
     19 CL         -7.7704    1.2395    0.4910 Cl      1  UNL1       -0.0835
     20 C          -5.1996    2.1751    0.7303 C.ar    1  UNL1       -0.0416
     21 C          -3.8561    2.0362    0.9966 C.ar    1  UNL1       -0.0355
     22 C          -1.2520   -1.0686   -0.2564 C.ar    1  UNL1        0.0600
     23 C          -2.3520   -0.9864   -1.0817 C.ar    1  UNL1        0.1323
     24 F          -2.9253    0.1844   -1.4229 F       1  UNL1       -0.2050
     25 C          -2.9494   -2.1195   -1.6278 C.ar    1  UNL1       -0.0232
     26 C          -2.4541   -3.3776   -1.3578 C.ar    1  UNL1       -0.0201
     27 C          -1.3590   -3.4892   -0.5390 C.ar    1  UNL1        0.1653
     28 F          -0.8561   -4.7144   -0.2607 F       1  UNL1       -0.2016
     29 C          -0.7755   -2.3309   -0.0015 C.ar    1  UNL1        0.1635
     30 O           0.3150   -2.4918    0.8077 O.3     1  UNL1       -0.4883
     31 C           0.9248   -1.4392    1.4490 C.3     1  UNL1        0.0955
     32 C           0.7146   -0.0745    0.8989 C.3     1  UNL1        0.0308
     33 C           3.1256    0.2046    0.8636 C.3     1  UNL1        0.0631
     34 O           4.0151    1.2551    0.6347 O.3     1  UNL1       -0.3075
     35 H           6.5081   -0.3563    0.8195 H       1  UNL1        0.0352
     36 H           7.2862    0.1011   -0.7234 H       1  UNL1        0.0352
     37 H           6.0893   -1.2188   -0.7649 H       1  UNL1        0.0352
     38 H           3.2255   -1.0396   -2.8038 H       1  UNL1        0.0565
     39 H           3.8600   -1.3724   -1.1925 H       1  UNL1        0.0565
     40 H           1.3719   -1.1668   -1.5078 H       1  UNL1        0.0294
     41 H           1.6009    0.4855   -2.0704 H       1  UNL1        0.0294
     42 H           1.7773    2.2472    0.9550 H       1  UNL1        0.0271
     43 H           2.5710    2.2511   -0.6573 H       1  UNL1        0.0271
     44 H           0.1149    3.2294   -0.3121 H       1  UNL1        0.0266
     45 H           0.6398    2.4979   -1.8230 H       1  UNL1        0.0266
     46 H          -0.7538    0.7407   -1.7508 H       1  UNL1        0.0290
     47 H          -1.6117    1.8412   -0.6428 H       1  UNL1        0.0290
     48 H          -3.8672   -1.2341    1.7301 H       1  UNL1        0.0637
     49 H          -6.2386   -0.9650    1.2547 H       1  UNL1        0.0633
     50 H          -5.6290    3.1432    0.4375 H       1  UNL1        0.0633
     51 H          -3.2412    2.9314    0.9028 H       1  UNL1        0.0637
     52 H          -3.8104   -2.0541   -2.2736 H       1  UNL1        0.0647
     53 H          -2.9451   -4.2427   -1.8009 H       1  UNL1        0.0648
     54 H           2.0144   -1.6623    1.4986 H       1  UNL1        0.0700
     55 H           0.6144   -1.4728    2.5410 H       1  UNL1        0.0700
     56 H           0.8433    0.6204    1.7967 H       1  UNL1        0.0365
     57 H           2.8501    0.2821    1.9370 H       1  UNL1        0.0570
     58 H           3.6500   -0.7290    0.7232 H       1  UNL1        0.0570
@<TRIPOS>BOND
     1     1     2    1
     2     2     3    2
     3     2     4    1
     4     4     5    1
     5     5     6    1
     6     7     6    1
     7     7     8    1
     8     8     9    1
     9     9    10    1
    10    10    11    1
    11    11    12    1
    12    12    13    2
    13    12    14    2
    14    12    15    1
    15    15    16   ar
    16    16    17   ar
    17    17    18   ar
    18    18    19    1
    19    18    20   ar
    20    20    21   ar
    21    11    22    1
    22    22    23   ar
    23    23    24    1
    24    23    25   ar
    25    25    26   ar
    26    26    27   ar
    27    27    28    1
    28    27    29   ar
    29    29    30    1
    30    30    31    1
    31    31    32    1
    32     7    33    1
    33    33    34    1
    34    34     2    1
    35    32     7    1
    36    32    11    1
    37    21    15   ar
    38    29    22   ar
    39     1    35    1
    40     1    36    1
    41     1    37    1
    42     5    38    1
    43     5    39    1
    44     6    40    1
    45     6    41    1
    46     8    42    1
    47     8    43    1
    48     9    44    1
    49     9    45    1
    50    10    46    1
    51    10    47    1
    52    16    48    1
    53    17    49    1
    54    20    50    1
    55    21    51    1
    56    25    52    1
    57    26    53    1
    58    31    54    1
    59    31    55    1
    60    32    56    1
    61    33    57    1
    62    33    58    1
