
     RDKit          3D

 85 89  0  0  0  0  0  0  0  0999 V2000
   -0.9020   -5.0702   -1.6568 C   0  0  0  0  0  0  0  0  0  0  0  0
   -1.1727   -3.9828   -0.6100 C   0  0  0  0  0  0  0  0  0  0  0  0
   -2.5766   -4.0236   -0.1360 C   0  0  0  0  0  0  0  0  0  0  0  0
   -3.0002   -3.0589    0.8976 C   0  0  0  0  0  0  0  0  0  0  0  0
   -2.8641   -1.6681    0.6281 N   0  0  0  0  0  0  0  0  0  0  0  0
   -3.9068   -1.0328   -0.1250 C   0  0  0  0  0  0  0  0  0  0  0  0
   -4.6770   -1.7992   -0.8023 O   0  0  0  0  0  0  0  0  0  0  0  0
   -4.0980    0.4364   -0.1307 C   0  0  1  0  0  0  0  0  0  0  0  0
   -5.5494    0.7311   -0.3099 C   0  0  1  0  0  0  0  0  0  0  0  0
   -6.2887    0.3188    0.7885 O   0  0  0  0  0  0  0  0  0  0  0  0
   -5.9512    2.0137   -0.9183 C   0  0  0  0  0  0  0  0  0  0  0  0
   -7.4843    2.1218   -0.9891 C   0  0  0  0  0  0  0  0  0  0  0  0
   -7.9844    3.3338   -0.2583 C   0  0  0  0  0  0  0  0  0  0  0  0
   -7.3836    4.5654   -0.8566 C   0  0  0  0  0  0  0  0  0  0  0  0
   -5.8952    4.5221   -0.8175 C   0  0  0  0  0  0  0  0  0  0  0  0
   -5.4222    3.2042   -0.1929 C   0  0  0  0  0  0  0  0  0  0  0  0
   -3.5015    0.9829    1.0640 N   0  0  0  0  0  0  0  0  0  0  0  0
   -2.5240    0.2762    1.8550 C   0  0  0  0  0  0  0  0  0  0  0  0
   -2.3178    0.5598    3.0541 O   0  0  0  0  0  0  0  0  0  0  0  0
   -1.7755   -0.8248    1.1329 C   0  0  0  0  0  0  0  0  0  0  0  0
   -0.9173   -1.5117    2.1551 C   0  0  0  0  0  0  0  0  0  0  0  0
    0.2048   -0.5951    2.5108 C   0  0  0  0  0  0  0  0  0  0  0  0
    1.1780   -0.3895    1.4472 N   0  0  0  0  0  0  0  0  0  0  0  0
    2.3080   -1.2462    1.6679 C   0  0  0  0  0  0  0  0  0  0  0  0
    3.4359   -1.0975    0.7525 C   0  0  0  0  0  0  0  0  0  0  0  0
    3.5619   -1.7989   -0.4245 C   0  0  0  0  0  0  0  0  0  0  0  0
    4.6705   -1.6436   -1.2574 C   0  0  0  0  0  0  0  0  0  0  0  0
    5.6968   -0.7782   -0.9405 C   0  0  0  0  0  0  0  0  0  0  0  0
    6.7611   -0.6759   -1.8021 O   0  0  0  0  0  0  0  0  0  0  0  0
    7.9006    0.0790   -1.6352 C   0  0  0  0  0  0  0  0  0  0  0  0
    7.9911    1.3621   -2.1214 C   0  0  0  0  0  0  0  0  0  0  0  0
    9.1384    2.1289   -1.9560 C   0  0  0  0  0  0  0  0  0  0  0  0
   10.2513    1.6291   -1.2882 C   0  0  0  0  0  0  0  0  0  0  0  0
   11.4646    2.4154   -1.1082 C   0  0  0  0  0  0  0  0  0  0  0  0
   12.4327    1.9302   -0.5025 O   0  0  0  0  0  0  0  0  0  0  0  0
   11.5621    3.7029   -1.6054 O   0  0  0  0  0  0  0  0  0  0  0  0
   10.1524    0.3438   -0.8039 C   0  0  0  0  0  0  0  0  0  0  0  0
    9.0185   -0.4204   -0.9648 C   0  0  0  0  0  0  0  0  0  0  0  0
    5.5839   -0.0689    0.2348 C   0  0  0  0  0  0  0  0  0  0  0  0
    4.4894   -0.2219    1.0555 C   0  0  0  0  0  0  0  0  0  0  0  0
    0.5652   -0.6896    0.1870 C   0  0  0  0  0  0  0  0  0  0  0  0
   -0.8921   -0.2790    0.0733 C   0  0  0  0  0  0  0  0  0  0  0  0
   -1.4788   -4.8870   -2.5885 H   0  0  0  0  0  0  0  0  0  0  0  0
    0.1706   -5.1088   -1.9170 H   0  0  0  0  0  0  0  0  0  0  0  0
   -1.1397   -6.0736   -1.2295 H   0  0  0  0  0  0  0  0  0  0  0  0
   -0.9633   -3.0078   -1.1427 H   0  0  0  0  0  0  0  0  0  0  0  0
   -0.3953   -4.1066    0.1507 H   0  0  0  0  0  0  0  0  0  0  0  0
   -3.2960   -4.0614   -1.0157 H   0  0  0  0  0  0  0  0  0  0  0  0
   -2.7251   -5.0584    0.3153 H   0  0  0  0  0  0  0  0  0  0  0  0
   -4.0419   -3.3364    1.2056 H   0  0  0  0  0  0  0  0  0  0  0  0
   -2.3795   -3.2832    1.8223 H   0  0  0  0  0  0  0  0  0  0  0  0
   -3.5195    0.8694   -0.9997 H   0  0  0  0  0  0  0  0  0  0  0  0
   -5.8598   -0.0512   -1.1349 H   0  0  0  0  0  0  0  0  0  0  0  0
   -7.0052   -0.2991    0.5703 H   0  0  0  0  0  0  0  0  0  0  0  0
   -5.6356    2.1058   -1.9923 H   0  0  0  0  0  0  0  0  0  0  0  0
   -7.9113    1.1934   -0.5315 H   0  0  0  0  0  0  0  0  0  0  0  0
   -7.8561    2.1586   -2.0272 H   0  0  0  0  0  0  0  0  0  0  0  0
   -7.8445    3.2520    0.8378 H   0  0  0  0  0  0  0  0  0  0  0  0
   -9.0913    3.3943   -0.4253 H   0  0  0  0  0  0  0  0  0  0  0  0
   -7.7797    5.4801   -0.3221 H   0  0  0  0  0  0  0  0  0  0  0  0
   -7.7003    4.5884   -1.9384 H   0  0  0  0  0  0  0  0  0  0  0  0
   -5.4374    5.3086   -0.1502 H   0  0  0  0  0  0  0  0  0  0  0  0
   -5.4176    4.5954   -1.8129 H   0  0  0  0  0  0  0  0  0  0  0  0
   -4.3016    3.2818   -0.2800 H   0  0  0  0  0  0  0  0  0  0  0  0
   -5.6529    3.2207    0.8866 H   0  0  0  0  0  0  0  0  0  0  0  0
   -3.7375    1.9369    1.4640 H   0  0  0  0  0  0  0  0  0  0  0  0
   -1.4813   -1.7195    3.0988 H   0  0  0  0  0  0  0  0  0  0  0  0
   -0.5213   -2.4698    1.8275 H   0  0  0  0  0  0  0  0  0  0  0  0
    0.7230   -1.0776    3.3967 H   0  0  0  0  0  0  0  0  0  0  0  0
   -0.0844    0.3927    2.8611 H   0  0  0  0  0  0  0  0  0  0  0  0
    2.6852   -1.0091    2.7072 H   0  0  0  0  0  0  0  0  0  0  0  0
    1.9433   -2.3057    1.7440 H   0  0  0  0  0  0  0  0  0  0  0  0
    2.7961   -2.4936   -0.7179 H   0  0  0  0  0  0  0  0  0  0  0  0
    4.7331   -2.2215   -2.1959 H   0  0  0  0  0  0  0  0  0  0  0  0
    7.1481    1.8209   -2.6603 H   0  0  0  0  0  0  0  0  0  0  0  0
    9.2362    3.1399   -2.3306 H   0  0  0  0  0  0  0  0  0  0  0  0
   12.3079    4.3567   -1.4021 H   0  0  0  0  0  0  0  0  0  0  0  0
   11.0027   -0.0700   -0.2768 H   0  0  0  0  0  0  0  0  0  0  0  0
    8.9187   -1.4338   -0.5926 H   0  0  0  0  0  0  0  0  0  0  0  0
    6.3997    0.6050    0.4634 H   0  0  0  0  0  0  0  0  0  0  0  0
    4.4167    0.3432    1.9684 H   0  0  0  0  0  0  0  0  0  0  0  0
    0.6403   -1.7649   -0.0728 H   0  0  0  0  0  0  0  0  0  0  0  0
    1.0737   -0.1651   -0.6679 H   0  0  0  0  0  0  0  0  0  0  0  0
   -0.9903    0.8304   -0.0092 H   0  0  0  0  0  0  0  0  0  0  0  0
   -1.2305   -0.6510   -0.9265 H   0  0  0  0  0  0  0  0  0  0  0  0
  1  2  1  0
  2  3  1  0
  3  4  1  0
  4  5  1  0
  5  6  1  0
  6  7  2  0
  6  8  1  0
  8  9  1  0
  9 10  1  0
  9 11  1  0
 11 12  1  0
 12 13  1  0
 13 14  1  0
 14 15  1  0
 15 16  1  0
  8 17  1  0
 17 18  1  0
 18 19  2  0
 18 20  1  0
 20 21  1  0
 21 22  1  0
 22 23  1  0
 23 24  1  0
 24 25  1  0
 25 26  2  0
 26 27  1  0
 27 28  2  0
 28 29  1  0
 29 30  1  0
 30 31  2  0
 31 32  1  0
 32 33  2  0
 33 34  1  0
 34 35  2  0
 34 36  1  0
 33 37  1  0
 37 38  2  0
 28 39  1  0
 39 40  2  0
 23 41  1  0
 41 42  1  0
 20  5  1  0
 40 25  1  0
 16 11  1  0
 42 20  1  0
 38 30  1  0
  1 43  1  0
  1 44  1  0
  1 45  1  0
  2 46  1  0
  2 47  1  0
  3 48  1  0
  3 49  1  0
  4 50  1  0
  4 51  1  0
  8 52  1  6
  9 53  1  6
 10 54  1  0
 11 55  1  0
 12 56  1  0
 12 57  1  0
 13 58  1  0
 13 59  1  0
 14 60  1  0
 14 61  1  0
 15 62  1  0
 15 63  1  0
 16 64  1  0
 16 65  1  0
 17 66  1  0
 21 67  1  0
 21 68  1  0
 22 69  1  0
 22 70  1  0
 24 71  1  0
 24 72  1  0
 26 73  1  0
 27 74  1  0
 31 75  1  0
 32 76  1  0
 36 77  1  0
 37 78  1  0
 38 79  1  0
 39 80  1  0
 40 81  1  0
 41 82  1  0
 41 83  1  0
 42 84  1  0
 42 85  1  0
M  END
$$$$
