@<TRIPOS>MOLECULE
*****
 85 89 0 0 0
SMALL
GASTEIGER

@<TRIPOS>ATOM
      1 C          -0.9020   -5.0702   -1.6568 C.3     1  UNL1       -0.0652
      2 C          -1.1727   -3.9828   -0.6100 C.3     1  UNL1       -0.0545
      3 C          -2.5766   -4.0236   -0.1360 C.3     1  UNL1       -0.0374
      4 C          -3.0002   -3.0589    0.8976 C.3     1  UNL1        0.0158
      5 N          -2.8641   -1.6681    0.6281 N.am    1  UNL1       -0.2855
      6 C          -3.9068   -1.0328   -0.1250 C.2     1  UNL1        0.2393
      7 O          -4.6770   -1.7992   -0.8023 O.2     1  UNL1       -0.2734
      8 C          -4.0980    0.4364   -0.1307 C.3     1  UNL1        0.1259
      9 C          -5.5494    0.7311   -0.3099 C.3     1  UNL1        0.0848
     10 O          -6.2887    0.3188    0.7885 O.3     1  UNL1       -0.3892
     11 C          -5.9512    2.0137   -0.9183 C.3     1  UNL1       -0.0127
     12 C          -7.4843    2.1218   -0.9891 C.3     1  UNL1       -0.0478
     13 C          -7.9844    3.3338   -0.2583 C.3     1  UNL1       -0.0527
     14 C          -7.3836    4.5654   -0.8566 C.3     1  UNL1       -0.0530
     15 C          -5.8952    4.5221   -0.8175 C.3     1  UNL1       -0.0527
     16 C          -5.4222    3.2042   -0.1929 C.3     1  UNL1       -0.0478
     17 N          -3.5015    0.9829    1.0640 N.am    1  UNL1       -0.3001
     18 C          -2.5240    0.2762    1.8550 C.2     1  UNL1        0.2375
     19 O          -2.3178    0.5598    3.0541 O.2     1  UNL1       -0.2734
     20 C          -1.7755   -0.8248    1.1329 C.3     1  UNL1        0.1156
     21 C          -0.9173   -1.5117    2.1551 C.3     1  UNL1       -0.0100
     22 C           0.2048   -0.5951    2.5108 C.3     1  UNL1        0.0016
     23 N           1.1780   -0.3895    1.4472 N.3     1  UNL1       -0.2980
     24 C           2.3080   -1.2462    1.6679 C.3     1  UNL1        0.0240
     25 C           3.4359   -1.0975    0.7525 C.ar    1  UNL1       -0.0331
     26 C           3.5619   -1.7989   -0.4245 C.ar    1  UNL1       -0.0539
     27 C           4.6705   -1.6436   -1.2574 C.ar    1  UNL1       -0.0190
     28 C           5.6968   -0.7782   -0.9405 C.ar    1  UNL1        0.1285
     29 O           6.7611   -0.6759   -1.8021 O.3     1  UNL1       -0.4560
     30 C           7.9006    0.0790   -1.6352 C.ar    1  UNL1        0.1285
     31 C           7.9911    1.3621   -2.1214 C.ar    1  UNL1       -0.0186
     32 C           9.1384    2.1289   -1.9560 C.ar    1  UNL1       -0.0443
     33 C          10.2513    1.6291   -1.2882 C.ar    1  UNL1        0.0591
     34 C          11.4646    2.4154   -1.1082 C.2     1  UNL1        0.3368
     35 O          12.4327    1.9302   -0.5025 O.2     1  UNL1       -0.2451
     36 O          11.5621    3.7029   -1.6054 O.3     1  UNL1       -0.4771
     37 C          10.1524    0.3438   -0.8039 C.ar    1  UNL1       -0.0443
     38 C           9.0185   -0.4204   -0.9648 C.ar    1  UNL1       -0.0186
     39 C           5.5839   -0.0689    0.2348 C.ar    1  UNL1       -0.0190
     40 C           4.4894   -0.2219    1.0555 C.ar    1  UNL1       -0.0539
     41 C           0.5652   -0.6896    0.1870 C.3     1  UNL1        0.0016
     42 C          -0.8921   -0.2790    0.0733 C.3     1  UNL1       -0.0100
     43 H          -1.4788   -4.8870   -2.5885 H       1  UNL1        0.0230
     44 H           0.1706   -5.1088   -1.9170 H       1  UNL1        0.0230
     45 H          -1.1397   -6.0736   -1.2295 H       1  UNL1        0.0230
     46 H          -0.9633   -3.0078   -1.1427 H       1  UNL1        0.0263
     47 H          -0.3953   -4.1066    0.1507 H       1  UNL1        0.0263
     48 H          -3.2960   -4.0614   -1.0157 H       1  UNL1        0.0280
     49 H          -2.7251   -5.0584    0.3153 H       1  UNL1        0.0280
     50 H          -4.0419   -3.3364    1.2056 H       1  UNL1        0.0465
     51 H          -2.3795   -3.2832    1.8223 H       1  UNL1        0.0465
     52 H          -3.5195    0.8694   -0.9997 H       1  UNL1        0.0621
     53 H          -5.8598   -0.0512   -1.1349 H       1  UNL1        0.0619
     54 H          -7.0052   -0.2991    0.5703 H       1  UNL1        0.2099
     55 H          -5.6356    2.1058   -1.9923 H       1  UNL1        0.0326
     56 H          -7.9113    1.1934   -0.5315 H       1  UNL1        0.0269
     57 H          -7.8561    2.1586   -2.0272 H       1  UNL1        0.0269
     58 H          -7.8445    3.2520    0.8378 H       1  UNL1        0.0265
     59 H          -9.0913    3.3943   -0.4253 H       1  UNL1        0.0265
     60 H          -7.7797    5.4801   -0.3221 H       1  UNL1        0.0265
     61 H          -7.7003    4.5884   -1.9384 H       1  UNL1        0.0265
     62 H          -5.4374    5.3086   -0.1502 H       1  UNL1        0.0265
     63 H          -5.4176    4.5954   -1.8129 H       1  UNL1        0.0265
     64 H          -4.3016    3.2818   -0.2800 H       1  UNL1        0.0269
     65 H          -5.6529    3.2207    0.8866 H       1  UNL1        0.0269
     66 H          -3.7375    1.9369    1.4640 H       1  UNL1        0.1496
     67 H          -1.4813   -1.7195    3.0988 H       1  UNL1        0.0303
     68 H          -0.5213   -2.4698    1.8275 H       1  UNL1        0.0303
     69 H           0.7230   -1.0776    3.3967 H       1  UNL1        0.0427
     70 H          -0.0844    0.3927    2.8611 H       1  UNL1        0.0427
     71 H           2.6852   -1.0091    2.7072 H       1  UNL1        0.0476
     72 H           1.9433   -2.3057    1.7440 H       1  UNL1        0.0476
     73 H           2.7961   -2.4936   -0.7179 H       1  UNL1        0.0622
     74 H           4.7331   -2.2215   -2.1959 H       1  UNL1        0.0654
     75 H           7.1481    1.8209   -2.6603 H       1  UNL1        0.0654
     76 H           9.2362    3.1399   -2.3306 H       1  UNL1        0.0627
     77 H          12.3079    4.3567   -1.4021 H       1  UNL1        0.2954
     78 H          11.0027   -0.0700   -0.2768 H       1  UNL1        0.0627
     79 H           8.9187   -1.4338   -0.5926 H       1  UNL1        0.0654
     80 H           6.3997    0.6050    0.4634 H       1  UNL1        0.0654
     81 H           4.4167    0.3432    1.9684 H       1  UNL1        0.0622
     82 H           0.6403   -1.7649   -0.0728 H       1  UNL1        0.0427
     83 H           1.0737   -0.1651   -0.6679 H       1  UNL1        0.0427
     84 H          -0.9903    0.8304   -0.0092 H       1  UNL1        0.0303
     85 H          -1.2305   -0.6510   -0.9265 H       1  UNL1        0.0303
@<TRIPOS>BOND
     1     1     2    1
     2     2     3    1
     3     3     4    1
     4     4     5    1
     5     5     6   am
     6     6     7    2
     7     6     8    1
     8     8     9    1
     9     9    10    1
    10     9    11    1
    11    11    12    1
    12    12    13    1
    13    13    14    1
    14    14    15    1
    15    15    16    1
    16     8    17    1
    17    17    18   am
    18    18    19    2
    19    18    20    1
    20    20    21    1
    21    21    22    1
    22    22    23    1
    23    23    24    1
    24    24    25    1
    25    25    26   ar
    26    26    27   ar
    27    27    28   ar
    28    28    29    1
    29    29    30    1
    30    30    31   ar
    31    31    32   ar
    32    32    33   ar
    33    33    34    1
    34    34    35    2
    35    34    36    1
    36    33    37   ar
    37    37    38   ar
    38    28    39   ar
    39    39    40   ar
    40    23    41    1
    41    41    42    1
    42    20     5    1
    43    40    25   ar
    44    16    11    1
    45    42    20    1
    46    38    30   ar
    47     1    43    1
    48     1    44    1
    49     1    45    1
    50     2    46    1
    51     2    47    1
    52     3    48    1
    53     3    49    1
    54     4    50    1
    55     4    51    1
    56     8    52    1
    57     9    53    1
    58    10    54    1
    59    11    55    1
    60    12    56    1
    61    12    57    1
    62    13    58    1
    63    13    59    1
    64    14    60    1
    65    14    61    1
    66    15    62    1
    67    15    63    1
    68    16    64    1
    69    16    65    1
    70    17    66    1
    71    21    67    1
    72    21    68    1
    73    22    69    1
    74    22    70    1
    75    24    71    1
    76    24    72    1
    77    26    73    1
    78    27    74    1
    79    31    75    1
    80    32    76    1
    81    36    77    1
    82    37    78    1
    83    38    79    1
    84    39    80    1
    85    40    81    1
    86    41    82    1
    87    41    83    1
    88    42    84    1
    89    42    85    1
