@<TRIPOS>MOLECULE
*****
 102 107 0 0 0
SMALL
GASTEIGER

@<TRIPOS>ATOM
      1 C          -7.7492   -5.9641   -0.9451 C.3     1  UNL1        0.0364
      2 O          -6.4233   -6.3113   -0.9203 O.3     1  UNL1       -0.3830
      3 C          -5.6422   -5.6605   -1.8397 C.3     1  UNL1        0.0476
      4 C          -5.6123   -4.1695   -1.6857 C.3     1  UNL1       -0.0255
      5 C          -5.0679   -3.7585   -0.3157 C.3     1  UNL1       -0.0255
      6 C          -5.0701   -2.2629   -0.2389 C.ar    1  UNL1       -0.0435
      7 C          -3.9396   -1.6199   -0.6778 C.ar    1  UNL1       -0.0537
      8 C          -3.8192   -0.2192   -0.6633 C.ar    1  UNL1       -0.0264
      9 C          -2.5837    0.3690   -1.1632 C.3     1  UNL1        0.0401
     10 N          -1.4872    0.5608   -0.2529 N.am    1  UNL1       -0.2938
     11 C          -0.5428   -0.4763   -0.0248 C.2     1  UNL1        0.2210
     12 O          -0.6051   -1.5585   -0.6955 O.2     1  UNL1       -0.2752
     13 C           0.5356   -0.3481    0.9885 C.3     1  UNL1        0.0550
     14 C          -0.1347   -0.2837    2.3344 C.3     1  UNL1        0.0076
     15 N          -0.6866   -1.5568    2.7770 N.3     1  UNL1       -0.3152
     16 C           0.2599   -2.6335    2.6111 C.3     1  UNL1       -0.0035
     17 C           1.6399   -2.0820    2.3331 C.3     1  UNL1       -0.0329
     18 C           1.5323   -1.4259    0.9490 C.3     1  UNL1       -0.0024
     19 C           2.9029   -1.1180    0.5594 C.ar    1  UNL1       -0.0432
     20 C           3.6493   -2.1717    0.0124 C.ar    1  UNL1       -0.0548
     21 C           4.9442   -1.9707   -0.3708 C.ar    1  UNL1       -0.0197
     22 C           5.6068   -0.7357   -0.2524 C.ar    1  UNL1        0.1207
     23 O           6.8974   -0.6245   -0.6578 O.3     1  UNL1       -0.4886
     24 C           7.7970    0.4226   -0.6682 C.3     1  UNL1        0.1235
     25 C           8.2032    0.9652    0.6595 C.3     1  UNL1        0.1236
     26 O           9.1167    2.0186    0.6395 O.3     1  UNL1       -0.4857
     27 C          10.3790    1.9411    0.1131 C.ar    1  UNL1        0.1571
     28 C          11.4022    1.4740    0.9347 C.ar    1  UNL1        0.0842
     29 CL         11.0130    1.0162    2.5767 Cl      1  UNL1       -0.0797
     30 C          12.7030    1.3635    0.4924 C.ar    1  UNL1       -0.0368
     31 C          12.9947    1.7233   -0.7904 C.ar    1  UNL1       -0.0475
     32 C          14.3785    1.6275   -1.3044 C.3     1  UNL1       -0.0396
     33 C          12.0102    2.1872   -1.6264 C.ar    1  UNL1       -0.0368
     34 C          10.6903    2.2968   -1.1677 C.ar    1  UNL1        0.0842
     35 CL          9.4647    2.9212   -2.2478 Cl      1  UNL1       -0.0797
     36 C           4.8338    0.2703    0.2887 C.ar    1  UNL1       -0.0197
     37 C           3.5205    0.0899    0.6852 C.ar    1  UNL1       -0.0548
     38 C          -1.2599    1.8549    0.3328 C.3     1  UNL1        0.0265
     39 C          -2.2875    2.6174    1.0978 C.3     1  UNL1       -0.0326
     40 C          -1.7924    3.1039   -0.2276 C.3     1  UNL1       -0.0326
     41 C          -4.9068    0.4396   -0.1840 C.ar    1  UNL1       -0.0152
     42 C          -6.0666   -0.1394    0.2711 C.ar    1  UNL1        0.1211
     43 O          -7.1630    0.5472    0.7583 O.3     1  UNL1       -0.4914
     44 C          -7.3597    1.8816    0.8644 C.3     1  UNL1        0.0957
     45 C          -7.5315    2.7446   -0.3297 C.3     1  UNL1        0.0149
     46 C          -7.6807    4.2327    0.0347 C.3     1  UNL1        0.0535
     47 C          -6.5091    4.7561    0.7083 C.2     1  UNL1        0.3053
     48 O          -5.4445    4.1202    0.8775 O.2     1  UNL1       -0.2510
     49 O          -6.5834    6.0700    1.2025 O.3     1  UNL1       -0.4806
     50 C          -8.5863    2.3339   -1.3353 C.3     1  UNL1       -0.0431
     51 C          -7.1276    2.3567   -1.6822 C.3     1  UNL1       -0.0431
     52 C          -6.1264   -1.5478    0.2321 C.ar    1  UNL1       -0.0167
     53 H          -7.8601   -4.8955   -0.7459 H       1  UNL1        0.0523
     54 H          -8.2282   -6.2220   -1.9356 H       1  UNL1        0.0523
     55 H          -8.3254   -6.5170   -0.1713 H       1  UNL1        0.0523
     56 H          -4.5905   -6.0559   -1.7338 H       1  UNL1        0.0560
     57 H          -5.9215   -5.8860   -2.8928 H       1  UNL1        0.0560
     58 H          -6.6098   -3.7212   -1.8254 H       1  UNL1        0.0290
     59 H          -4.9073   -3.7782   -2.4551 H       1  UNL1        0.0290
     60 H          -4.0646   -4.1598   -0.1463 H       1  UNL1        0.0314
     61 H          -5.7845   -4.1376    0.4280 H       1  UNL1        0.0314
     62 H          -3.1215   -2.1917   -1.0581 H       1  UNL1        0.0624
     63 H          -2.1767   -0.2837   -1.9809 H       1  UNL1        0.0514
     64 H          -2.8835    1.3026   -1.7170 H       1  UNL1        0.0514
     65 H           1.0619    0.6030    0.7370 H       1  UNL1        0.0413
     66 H           0.5552    0.1457    3.0634 H       1  UNL1        0.0432
     67 H          -1.0728    0.3683    2.3128 H       1  UNL1        0.0432
     68 H          -1.6037   -1.7383    2.3220 H       1  UNL1        0.1220
     69 H          -0.0514   -3.1545    1.6573 H       1  UNL1        0.0424
     70 H           0.2178   -3.3933    3.3931 H       1  UNL1        0.0424
     71 H           1.8660   -1.3136    3.0805 H       1  UNL1        0.0283
     72 H           2.4079   -2.8857    2.3176 H       1  UNL1        0.0283
     73 H           1.1869   -2.2899    0.2868 H       1  UNL1        0.0357
     74 H           3.2282   -3.1638   -0.1198 H       1  UNL1        0.0622
     75 H           5.5564   -2.7740   -0.8015 H       1  UNL1        0.0654
     76 H           7.3092    1.2370   -1.2900 H       1  UNL1        0.0731
     77 H           8.6923    0.1194   -1.2508 H       1  UNL1        0.0731
     78 H           7.3253    1.2499    1.2445 H       1  UNL1        0.0731
     79 H           8.6969    0.1503    1.2877 H       1  UNL1        0.0731
     80 H          13.5087    0.9979    1.1307 H       1  UNL1        0.0636
     81 H          14.3605    1.6343   -2.4312 H       1  UNL1        0.0278
     82 H          14.9722    2.5391   -1.0152 H       1  UNL1        0.0278
     83 H          14.9312    0.7535   -0.9616 H       1  UNL1        0.0278
     84 H          12.2191    2.4765   -2.6458 H       1  UNL1        0.0636
     85 H           5.2224    1.2648    0.4117 H       1  UNL1        0.0654
     86 H           2.9429    0.9048    1.1171 H       1  UNL1        0.0622
     87 H          -0.2511    1.9353    0.8713 H       1  UNL1        0.0500
     88 H          -1.9227    3.2687    1.9639 H       1  UNL1        0.0284
     89 H          -3.2760    2.2311    1.2834 H       1  UNL1        0.0284
     90 H          -1.0852    3.9714   -0.2596 H       1  UNL1        0.0284
     91 H          -2.5433    3.1301   -1.0282 H       1  UNL1        0.0284
     92 H          -4.8646    1.5272   -0.1699 H       1  UNL1        0.0657
     93 H          -8.2811    2.0383    1.5492 H       1  UNL1        0.0702
     94 H          -6.5281    2.3103    1.5196 H       1  UNL1        0.0702
     95 H          -8.6096    4.2788    0.6593 H       1  UNL1        0.0384
     96 H          -7.8827    4.7935   -0.9036 H       1  UNL1        0.0384
     97 H          -5.7275    6.5042    1.5387 H       1  UNL1        0.2951
     98 H          -9.1228    1.3895   -1.2072 H       1  UNL1        0.0272
     99 H          -9.1945    3.1333   -1.7833 H       1  UNL1        0.0272
    100 H          -6.8006    3.2292   -2.3402 H       1  UNL1        0.0272
    101 H          -6.6388    1.4436   -2.0054 H       1  UNL1        0.0272
    102 H          -7.0168   -2.0375    0.5806 H       1  UNL1        0.0657
@<TRIPOS>BOND
     1     1     2    1
     2     2     3    1
     3     3     4    1
     4     4     5    1
     5     5     6    1
     6     6     7   ar
     7     7     8   ar
     8     8     9    1
     9     9    10    1
    10    10    11   am
    11    11    12    2
    12    11    13    1
    13    13    14    1
    14    14    15    1
    15    15    16    1
    16    16    17    1
    17    17    18    1
    18    18    19    1
    19    19    20   ar
    20    20    21   ar
    21    21    22   ar
    22    22    23    1
    23    23    24    1
    24    24    25    1
    25    25    26    1
    26    26    27    1
    27    27    28   ar
    28    28    29    1
    29    28    30   ar
    30    30    31   ar
    31    31    32    1
    32    31    33   ar
    33    33    34   ar
    34    34    35    1
    35    22    36   ar
    36    36    37   ar
    37    10    38    1
    38    38    39    1
    39    39    40    1
    40     8    41   ar
    41    41    42   ar
    42    42    43    1
    43    43    44    1
    44    44    45    1
    45    45    46    1
    46    46    47    1
    47    47    48    2
    48    47    49    1
    49    45    50    1
    50    50    51    1
    51    42    52   ar
    52    52     6   ar
    53    18    13    1
    54    37    19   ar
    55    40    38    1
    56    51    45    1
    57    34    27   ar
    58     1    53    1
    59     1    54    1
    60     1    55    1
    61     3    56    1
    62     3    57    1
    63     4    58    1
    64     4    59    1
    65     5    60    1
    66     5    61    1
    67     7    62    1
    68     9    63    1
    69     9    64    1
    70    13    65    1
    71    14    66    1
    72    14    67    1
    73    15    68    1
    74    16    69    1
    75    16    70    1
    76    17    71    1
    77    17    72    1
    78    18    73    1
    79    20    74    1
    80    21    75    1
    81    24    76    1
    82    24    77    1
    83    25    78    1
    84    25    79    1
    85    30    80    1
    86    32    81    1
    87    32    82    1
    88    32    83    1
    89    33    84    1
    90    36    85    1
    91    37    86    1
    92    38    87    1
    93    39    88    1
    94    39    89    1
    95    40    90    1
    96    40    91    1
    97    41    92    1
    98    44    93    1
    99    44    94    1
   100    46    95    1
   101    46    96    1
   102    49    97    1
   103    50    98    1
   104    50    99    1
   105    51   100    1
   106    51   101    1
   107    52   102    1
