@<TRIPOS>MOLECULE
*****
 50 52 0 0 0
SMALL
GASTEIGER

@<TRIPOS>ATOM
      1 C          -5.8688   -0.2362   -1.4726 C.3     1  UNL1       -0.0288
      2 C          -4.4490    0.3070   -1.3775 C.3     1  UNL1        0.1831
      3 C          -4.4127    1.5049   -2.3469 C.3     1  UNL1       -0.0288
      4 C          -3.4495   -0.6798   -1.7539 C.2     1  UNL1        0.3067
      5 N          -3.8303   -1.5964   -2.8488 N.pl3   1  UNL1       -0.2488
      6 N          -2.3519   -0.7898   -1.2168 N.2     1  UNL1       -0.0727
      7 C          -1.7445   -0.0636   -0.1459 C.3     1  UNL1        0.1959
      8 C          -1.0913    1.2236   -0.5595 C.3     1  UNL1       -0.0112
      9 C          -0.7027   -0.9756    0.4284 C.ar    1  UNL1        0.0420
     10 C           0.5865   -0.6215    0.4258 C.ar    1  UNL1       -0.0301
     11 C           1.6507   -1.4251    0.9227 C.ar    1  UNL1        0.0343
     12 N           2.9563   -0.9187    0.7684 N.am    1  UNL1       -0.2802
     13 C           3.6898   -0.1004    1.6326 C.2     1  UNL1        0.2666
     14 O           3.1388    0.2491    2.7228 O.2     1  UNL1       -0.2682
     15 C           5.0523    0.3681    1.3135 C.ar    1  UNL1        0.1257
     16 C           5.6872    1.2757    2.0779 C.ar    1  UNL1       -0.0300
     17 C           6.9629    1.8009    1.7628 C.ar    1  UNL1       -0.0407
     18 C           7.5188    1.3242    0.6181 C.ar    1  UNL1        0.0699
     19 C           8.7845    1.8457    0.1280 C.1     1  UNL1        0.1007
     20 N           9.8348    2.2603   -0.2694 N.1     1  UNL1       -0.1908
     21 C           6.8637    0.4041   -0.1424 C.ar    1  UNL1        0.0458
     22 N           5.6328   -0.0973    0.1683 N.ar    1  UNL1       -0.2491
     23 C           1.2859   -2.6130    1.4200 C.ar    1  UNL1       -0.0377
     24 C          -0.0539   -3.0454    1.4535 C.ar    1  UNL1       -0.0243
     25 C          -1.0725   -2.2224    0.9512 C.ar    1  UNL1        0.1311
     26 F          -2.3490   -2.6197    0.9330 F       1  UNL1       -0.2050
     27 C          -2.7670    0.1880    0.9663 C.3     1  UNL1        0.1183
     28 S          -4.1976    0.9237    0.2409 S.O2    1  UNL1       -0.0101
     29 O          -5.4016    0.6261    1.1233 O.2     1  UNL1       -0.1731
     30 O          -4.0068    2.4340    0.2176 O.2     1  UNL1       -0.1731
     31 H          -6.4293    0.1914   -2.3330 H       1  UNL1        0.0256
     32 H          -6.4136    0.0358   -0.5524 H       1  UNL1        0.0256
     33 H          -5.8548   -1.3487   -1.5660 H       1  UNL1        0.0256
     34 H          -4.1405    1.0484   -3.3436 H       1  UNL1        0.0256
     35 H          -3.6458    2.2369   -2.0960 H       1  UNL1        0.0256
     36 H          -5.4311    1.9219   -2.4888 H       1  UNL1        0.0256
     37 H          -3.0877   -2.2352   -3.1740 H       1  UNL1        0.2881
     38 H          -4.7623   -1.5969   -3.2536 H       1  UNL1        0.2881
     39 H          -1.8962    2.0447   -0.5291 H       1  UNL1        0.0279
     40 H          -0.3797    1.5744    0.2048 H       1  UNL1        0.0279
     41 H          -0.7010    1.1888   -1.5965 H       1  UNL1        0.0279
     42 H           0.9749    0.3322    0.0291 H       1  UNL1        0.0641
     43 H           3.4987   -1.1612   -0.1450 H       1  UNL1        0.1552
     44 H           5.2274    1.6317    2.9586 H       1  UNL1        0.0641
     45 H           7.4584    2.5282    2.3623 H       1  UNL1        0.0631
     46 H           7.3123    0.0005   -1.0574 H       1  UNL1        0.0843
     47 H           2.0199   -3.2954    1.8263 H       1  UNL1        0.0637
     48 H          -0.3191   -4.0044    1.8685 H       1  UNL1        0.0647
     49 H          -2.2652    0.8781    1.6885 H       1  UNL1        0.0550
     50 H          -3.0611   -0.7018    1.5208 H       1  UNL1        0.0550
@<TRIPOS>BOND
     1     1     2    1
     2     2     3    1
     3     2     4    1
     4     4     5    1
     5     4     6    2
     6     6     7    1
     7     7     8    1
     8     7     9    1
     9     9    10   ar
    10    10    11   ar
    11    11    12    1
    12    12    13   am
    13    13    14    2
    14    13    15    1
    15    15    16   ar
    16    16    17   ar
    17    17    18   ar
    18    18    19    1
    19    19    20    3
    20    18    21   ar
    21    21    22   ar
    22    11    23   ar
    23    23    24   ar
    24    24    25   ar
    25    25    26    1
    26     7    27    1
    27    27    28    1
    28    28    29    2
    29    28    30    2
    30    28     2    1
    31    25     9   ar
    32    22    15   ar
    33     1    31    1
    34     1    32    1
    35     1    33    1
    36     3    34    1
    37     3    35    1
    38     3    36    1
    39     5    37    1
    40     5    38    1
    41     8    39    1
    42     8    40    1
    43     8    41    1
    44    10    42    1
    45    12    43    1
    46    16    44    1
    47    17    45    1
    48    21    46    1
    49    23    47    1
    50    24    48    1
    51    27    49    1
    52    27    50    1
