
     RDKit          3D

 59 64  0  0  0  0  0  0  0  0999 V2000
   -3.1512   -1.8641    2.6951 C   0  0  0  0  0  0  0  0  0  0  0  0
   -3.1570   -1.0628    1.5276 O   0  0  0  0  0  0  0  0  0  0  0  0
   -4.1343   -1.2874    0.5913 C   0  0  0  0  0  0  0  0  0  0  0  0
   -5.1117   -2.2772    0.7626 C   0  0  0  0  0  0  0  0  0  0  0  0
   -6.0893   -2.4930   -0.1869 C   0  0  0  0  0  0  0  0  0  0  0  0
   -6.0670   -1.6957   -1.3121 C   0  0  0  0  0  0  0  0  0  0  0  0
   -5.1066   -0.7059   -1.5054 C   0  0  0  0  0  0  0  0  0  0  0  0
   -4.1443   -0.5149   -0.5400 C   0  0  0  0  0  0  0  0  0  0  0  0
   -3.1278    0.5005   -0.6997 N   0  0  0  0  0  0  0  0  0  0  0  0
   -3.3262    1.7984   -0.8504 N   0  0  0  0  0  0  0  0  0  0  0  0
   -2.1795    2.4703   -0.9727 C   0  0  0  0  0  0  0  0  0  0  0  0
   -1.9164    3.9150   -1.1578 C   0  0  0  0  0  0  0  0  0  0  0  0
   -1.1766    1.5213   -0.8929 C   0  0  0  0  0  0  0  0  0  0  0  0
   -1.8013    0.3137   -0.7242 C   0  0  0  0  0  0  0  0  0  0  0  0
   -0.7319   -0.6857   -0.6458 C   0  0  0  0  0  0  0  0  0  0  0  0
   -0.9617   -1.9135   -0.4892 O   0  0  0  0  0  0  0  0  0  0  0  0
    0.5266   -0.0470   -0.7719 N   0  0  0  0  0  0  0  0  0  0  0  0
    1.7724   -0.7137   -0.7574 C   0  0  0  0  0  0  0  0  0  0  0  0
    2.2960   -1.1480   -1.9756 C   0  0  0  0  0  0  0  0  0  0  0  0
    3.5001   -1.8066   -2.0608 C   0  0  0  0  0  0  0  0  0  0  0  0
    4.0356   -2.2589   -3.3715 C   0  0  0  0  0  0  0  0  0  0  0  0
    4.1955   -2.0336   -0.8856 C   0  0  0  0  0  0  0  0  0  0  0  0
    5.3739   -2.6389   -0.6537 N   0  0  0  0  0  0  0  0  0  0  0  0
    5.5704   -2.5817    0.6488 N   0  0  0  0  0  0  0  0  0  0  0  0
    4.5442   -1.9541    1.2502 C   0  0  0  0  0  0  0  0  0  0  0  0
    4.3630   -1.6760    2.6950 C   0  0  0  0  0  0  0  0  0  0  0  0
    3.6756   -1.6085    0.2757 N   0  0  0  0  0  0  0  0  0  0  0  0
    2.4988   -0.9628    0.3747 C   0  0  0  0  0  0  0  0  0  0  0  0
    0.3208    1.3504   -0.9200 C   0  0  0  0  0  0  0  0  0  0  0  0
    0.9460    2.2142    0.0810 C   0  0  0  0  0  0  0  0  0  0  0  0
    1.7342    3.2749   -0.3152 C   0  0  0  0  0  0  0  0  0  0  0  0
    2.3501    4.1197    0.5960 C   0  0  0  0  0  0  0  0  0  0  0  0
    2.1786    3.9055    1.9649 C   0  0  0  0  0  0  0  0  0  0  0  0
    2.9578    4.9739    3.1125 Cl  0  0  0  0  0  0  0  0  0  0  0  0
    1.3926    2.8480    2.3724 C   0  0  0  0  0  0  0  0  0  0  0  0
    0.7867    2.0165    1.4240 C   0  0  0  0  0  0  0  0  0  0  0  0
    0.0271    1.0005    1.8529 F   0  0  0  0  0  0  0  0  0  0  0  0
   -4.1206   -1.7638    3.2188 H   0  0  0  0  0  0  0  0  0  0  0  0
   -2.3193   -1.5195    3.3609 H   0  0  0  0  0  0  0  0  0  0  0  0
   -3.0378   -2.9417    2.4471 H   0  0  0  0  0  0  0  0  0  0  0  0
   -5.0992   -2.8839    1.6571 H   0  0  0  0  0  0  0  0  0  0  0  0
   -6.8416   -3.2610   -0.0463 H   0  0  0  0  0  0  0  0  0  0  0  0
   -6.8197   -1.8431   -2.0704 H   0  0  0  0  0  0  0  0  0  0  0  0
   -5.1000   -0.0906   -2.3875 H   0  0  0  0  0  0  0  0  0  0  0  0
   -1.4167    4.3633   -0.2662 H   0  0  0  0  0  0  0  0  0  0  0  0
   -1.2647    4.0972   -2.0463 H   0  0  0  0  0  0  0  0  0  0  0  0
   -2.8883    4.3977   -1.3885 H   0  0  0  0  0  0  0  0  0  0  0  0
    1.7339   -0.9587   -2.8787 H   0  0  0  0  0  0  0  0  0  0  0  0
    4.0376   -3.3521   -3.4126 H   0  0  0  0  0  0  0  0  0  0  0  0
    3.3544   -1.8931   -4.1654 H   0  0  0  0  0  0  0  0  0  0  0  0
    5.0252   -1.8055   -3.5820 H   0  0  0  0  0  0  0  0  0  0  0  0
    5.1695   -2.2014    3.2769 H   0  0  0  0  0  0  0  0  0  0  0  0
    4.3960   -0.5919    2.9157 H   0  0  0  0  0  0  0  0  0  0  0  0
    3.4106   -2.1413    3.0808 H   0  0  0  0  0  0  0  0  0  0  0  0
    2.0999   -0.6294    1.3263 H   0  0  0  0  0  0  0  0  0  0  0  0
    0.7019    1.6236   -1.9488 H   0  0  0  0  0  0  0  0  0  0  0  0
    1.8855    3.4658   -1.3723 H   0  0  0  0  0  0  0  0  0  0  0  0
    2.9680    4.9515    0.3127 H   0  0  0  0  0  0  0  0  0  0  0  0
    1.2621    2.6853    3.4330 H   0  0  0  0  0  0  0  0  0  0  0  0
  1  2  1  0
  2  3  1  0
  3  4  2  0
  4  5  1  0
  5  6  2  0
  6  7  1  0
  7  8  2  0
  8  9  1  0
  9 10  1  0
 10 11  2  0
 11 12  1  0
 11 13  1  0
 13 14  2  0
 14 15  1  0
 15 16  2  0
 15 17  1  0
 17 18  1  0
 18 19  1  0
 19 20  2  0
 20 21  1  0
 20 22  1  0
 22 23  2  0
 23 24  1  0
 24 25  2  0
 25 26  1  0
 25 27  1  0
 27 28  1  0
 17 29  1  0
 29 30  1  0
 30 31  2  0
 31 32  1  0
 32 33  2  0
 33 34  1  0
 33 35  1  0
 35 36  2  0
 36 37  1  0
  8  3  1  0
 14  9  1  0
 28 18  2  0
 36 30  1  0
 29 13  1  0
 27 22  1  0
  1 38  1  0
  1 39  1  0
  1 40  1  0
  4 41  1  0
  5 42  1  0
  6 43  1  0
  7 44  1  0
 12 45  1  0
 12 46  1  0
 12 47  1  0
 19 48  1  0
 21 49  1  0
 21 50  1  0
 21 51  1  0
 26 52  1  0
 26 53  1  0
 26 54  1  0
 28 55  1  0
 29 56  1  0
 31 57  1  0
 32 58  1  0
 35 59  1  0
M  END
$$$$
