@<TRIPOS>MOLECULE
*****
 59 64 0 0 0
SMALL
GASTEIGER

@<TRIPOS>ATOM
      1 C          -3.1512   -1.8641    2.6951 C.3     1  UNL1        0.0789
      2 O          -3.1570   -1.0628    1.5276 O.3     1  UNL1       -0.4930
      3 C          -4.1343   -1.2874    0.5913 C.ar    1  UNL1        0.1454
      4 C          -5.1117   -2.2772    0.7626 C.ar    1  UNL1       -0.0178
      5 C          -6.0893   -2.4930   -0.1869 C.ar    1  UNL1       -0.0582
      6 C          -6.0670   -1.6957   -1.3121 C.ar    1  UNL1       -0.0595
      7 C          -5.1066   -0.7059   -1.5054 C.ar    1  UNL1       -0.0327
      8 C          -4.1443   -0.5149   -0.5400 C.ar    1  UNL1        0.1077
      9 N          -3.1278    0.5005   -0.6997 N.ar    1  UNL1       -0.2235
     10 N          -3.3262    1.7984   -0.8504 N.ar    1  UNL1       -0.1705
     11 C          -2.1795    2.4703   -0.9727 C.ar    1  UNL1        0.0664
     12 C          -1.9164    3.9150   -1.1578 C.3     1  UNL1       -0.0202
     13 C          -1.1766    1.5213   -0.8929 C.ar    1  UNL1        0.0310
     14 C          -1.8013    0.3137   -0.7242 C.ar    1  UNL1        0.1352
     15 C          -0.7319   -0.6857   -0.6458 C.2     1  UNL1        0.2705
     16 O          -0.9617   -1.9135   -0.4892 O.2     1  UNL1       -0.2679
     17 N           0.5266   -0.0470   -0.7719 N.am    1  UNL1       -0.2530
     18 C           1.7724   -0.7137   -0.7574 C.ar    1  UNL1        0.0545
     19 C           2.2960   -1.1480   -1.9756 C.ar    1  UNL1       -0.0324
     20 C           3.5001   -1.8066   -2.0608 C.ar    1  UNL1       -0.0041
     21 C           4.0356   -2.2589   -3.3715 C.3     1  UNL1       -0.0361
     22 C           4.1955   -2.0336   -0.8856 C.ar    1  UNL1        0.1641
     23 N           5.3739   -2.6389   -0.6537 N.ar    1  UNL1       -0.1292
     24 N           5.5704   -2.5817    0.6488 N.ar    1  UNL1       -0.1340
     25 C           4.5442   -1.9541    1.2502 C.ar    1  UNL1        0.1347
     26 C           4.3630   -1.6760    2.6950 C.3     1  UNL1       -0.0041
     27 N           3.6756   -1.6085    0.2757 N.ar    1  UNL1       -0.2846
     28 C           2.4988   -0.9628    0.3747 C.ar    1  UNL1        0.0344
     29 C           0.3208    1.3504   -0.9200 C.3     1  UNL1        0.0881
     30 C           0.9460    2.2142    0.0810 C.ar    1  UNL1        0.0131
     31 C           1.7342    3.2749   -0.3152 C.ar    1  UNL1       -0.0523
     32 C           2.3501    4.1197    0.5960 C.ar    1  UNL1       -0.0429
     33 C           2.1786    3.9055    1.9649 C.ar    1  UNL1        0.0437
     34 CL          2.9578    4.9739    3.1125 Cl      1  UNL1       -0.0835
     35 C           1.3926    2.8480    2.3724 C.ar    1  UNL1       -0.0078
     36 C           0.7867    2.0165    1.4240 C.ar    1  UNL1        0.1300
     37 F           0.0271    1.0005    1.8529 F       1  UNL1       -0.2051
     38 H          -4.1206   -1.7638    3.2188 H       1  UNL1        0.0660
     39 H          -2.3193   -1.5195    3.3609 H       1  UNL1        0.0660
     40 H          -3.0378   -2.9417    2.4471 H       1  UNL1        0.0660
     41 H          -5.0992   -2.8839    1.6571 H       1  UNL1        0.0655
     42 H          -6.8416   -3.2610   -0.0463 H       1  UNL1        0.0619
     43 H          -6.8197   -1.8431   -2.0704 H       1  UNL1        0.0618
     44 H          -5.1000   -0.0906   -2.3875 H       1  UNL1        0.0640
     45 H          -1.4167    4.3633   -0.2662 H       1  UNL1        0.0293
     46 H          -1.2647    4.0972   -2.0463 H       1  UNL1        0.0293
     47 H          -2.8883    4.3977   -1.3885 H       1  UNL1        0.0293
     48 H           1.7339   -0.9587   -2.8787 H       1  UNL1        0.0640
     49 H           4.0376   -3.3521   -3.4126 H       1  UNL1        0.0279
     50 H           3.3544   -1.8931   -4.1654 H       1  UNL1        0.0279
     51 H           5.0252   -1.8055   -3.5820 H       1  UNL1        0.0279
     52 H           5.1695   -2.2014    3.2769 H       1  UNL1        0.0308
     53 H           4.3960   -0.5919    2.9157 H       1  UNL1        0.0308
     54 H           3.4106   -2.1413    3.0808 H       1  UNL1        0.0308
     55 H           2.0999   -0.6294    1.3263 H       1  UNL1        0.0833
     56 H           0.7019    1.6236   -1.9488 H       1  UNL1        0.0607
     57 H           1.8855    3.4658   -1.3723 H       1  UNL1        0.0622
     58 H           2.9680    4.9515    0.3127 H       1  UNL1        0.0632
     59 H           1.2621    2.6853    3.4330 H       1  UNL1        0.0661
@<TRIPOS>BOND
     1     1     2    1
     2     2     3    1
     3     3     4   ar
     4     4     5   ar
     5     5     6   ar
     6     6     7   ar
     7     7     8   ar
     8     8     9    1
     9     9    10   ar
    10    10    11   ar
    11    11    12    1
    12    11    13   ar
    13    13    14   ar
    14    14    15    1
    15    15    16    2
    16    15    17   am
    17    17    18    1
    18    18    19   ar
    19    19    20   ar
    20    20    21    1
    21    20    22   ar
    22    22    23   ar
    23    23    24   ar
    24    24    25   ar
    25    25    26    1
    26    25    27   ar
    27    27    28   ar
    28    17    29    1
    29    29    30    1
    30    30    31   ar
    31    31    32   ar
    32    32    33   ar
    33    33    34    1
    34    33    35   ar
    35    35    36   ar
    36    36    37    1
    37     8     3   ar
    38    14     9   ar
    39    28    18   ar
    40    36    30   ar
    41    29    13    1
    42    27    22   ar
    43     1    38    1
    44     1    39    1
    45     1    40    1
    46     4    41    1
    47     5    42    1
    48     6    43    1
    49     7    44    1
    50    12    45    1
    51    12    46    1
    52    12    47    1
    53    19    48    1
    54    21    49    1
    55    21    50    1
    56    21    51    1
    57    26    52    1
    58    26    53    1
    59    26    54    1
    60    28    55    1
    61    29    56    1
    62    31    57    1
    63    32    58    1
    64    35    59    1
