
     RDKit          3D

 78 81  0  0  0  0  0  0  0  0999 V2000
    8.9690    0.6069    4.4841 C   0  0  0  0  0  0  0  0  0  0  0  0
    8.2600    0.7453    3.1770 C   0  0  0  0  0  0  0  0  0  0  0  0
    6.9710    0.3184    2.9858 C   0  0  0  0  0  0  0  0  0  0  0  0
    6.2945    0.4352    1.8012 C   0  0  0  0  0  0  0  0  0  0  0  0
    4.8995   -0.0268    1.6203 C   0  0  0  0  0  0  0  0  0  0  0  0
    4.8275   -1.2363    0.8860 O   0  0  0  0  0  0  0  0  0  0  0  0
    3.5622   -1.7667    0.6494 C   0  0  0  0  0  0  0  0  0  0  0  0
    3.4494   -2.9585   -0.0761 C   0  0  0  0  0  0  0  0  0  0  0  0
    2.2302   -3.5353   -0.3464 C   0  0  0  0  0  0  0  0  0  0  0  0
    1.0397   -2.9455    0.0987 C   0  0  0  0  0  0  0  0  0  0  0  0
   -0.4947   -3.7142   -0.2825 S   0  0  0  0  0  6  0  0  0  0  0  0
   -1.4244   -3.7596    0.8672 O   0  0  0  0  0  0  0  0  0  0  0  0
   -0.1798   -5.1817   -0.6088 O   0  0  0  0  0  0  0  0  0  0  0  0
   -1.1319   -3.0244   -1.7554 C   0  0  0  0  0  0  0  0  0  0  0  0
   -1.4073   -1.5276   -1.6976 C   0  0  0  0  0  0  0  0  0  0  0  0
   -2.4135   -1.2790   -0.6427 C   0  0  0  0  0  0  0  0  0  0  0  0
   -2.8341    0.1321   -0.3818 C   0  0  0  0  0  0  0  0  0  0  0  0
   -3.4568    0.8957   -1.4566 C   0  0  0  0  0  0  0  0  0  0  0  0
   -4.6046    1.7648   -0.8660 C   0  0  0  0  0  0  0  0  0  0  0  0
   -5.5796    0.9480   -0.3016 N   0  0  0  0  0  0  0  0  0  0  0  0
   -6.9367    1.1707   -0.3430 C   0  0  0  0  0  0  0  0  0  0  0  0
   -7.4970    2.3407    0.4425 C   0  0  0  0  0  0  0  0  0  0  0  0
   -9.0072    2.3054    0.2046 C   0  0  0  0  0  0  0  0  0  0  0  0
   -7.0064    3.6270   -0.1854 C   0  0  0  0  0  0  0  0  0  0  0  0
   -5.1296   -0.0490    0.5980 C   0  0  0  0  0  0  0  0  0  0  0  0
   -3.6424    0.1237    0.8878 C   0  0  0  0  0  0  0  0  0  0  0  0
   -1.7884   -1.1856   -3.0433 N   0  0  0  0  0  0  0  0  0  0  0  0
   -1.0792   -0.2661   -3.7166 O   0  0  0  0  0  0  0  0  0  0  0  0
   -2.8984   -1.8070   -3.6496 C   0  0  0  0  0  0  0  0  0  0  0  0
   -3.2776   -1.5540   -4.8267 O   0  0  0  0  0  0  0  0  0  0  0  0
    1.1576   -1.7789    0.8085 C   0  0  0  0  0  0  0  0  0  0  0  0
    2.3889   -1.1976    1.0817 C   0  0  0  0  0  0  0  0  0  0  0  0
    6.9334    1.0164    0.7157 C   0  0  0  0  0  0  0  0  0  0  0  0
    6.2932    1.1552   -0.4956 C   0  0  0  0  0  0  0  0  0  0  0  0
    6.9717    1.7472   -1.5561 C   0  0  0  0  0  0  0  0  0  0  0  0
    8.2556    2.1765   -1.3796 C   0  0  0  0  0  0  0  0  0  0  0  0
    8.8819    2.0309   -0.1684 C   0  0  0  0  0  0  0  0  0  0  0  0
    8.2341    1.4448    0.9136 C   0  0  0  0  0  0  0  0  0  0  0  0
    8.8616    1.3089    2.1028 N   0  0  0  0  0  0  0  0  0  0  0  0
    8.7682    1.5038    5.1061 H   0  0  0  0  0  0  0  0  0  0  0  0
    8.6233   -0.2760    5.0516 H   0  0  0  0  0  0  0  0  0  0  0  0
   10.0639    0.5957    4.2801 H   0  0  0  0  0  0  0  0  0  0  0  0
    6.4202   -0.1457    3.8059 H   0  0  0  0  0  0  0  0  0  0  0  0
    4.4084   -0.2086    2.6138 H   0  0  0  0  0  0  0  0  0  0  0  0
    4.3307    0.7963    1.1496 H   0  0  0  0  0  0  0  0  0  0  0  0
    4.3729   -3.4156   -0.4190 H   0  0  0  0  0  0  0  0  0  0  0  0
    2.1348   -4.4565   -0.9063 H   0  0  0  0  0  0  0  0  0  0  0  0
   -2.0854   -3.5086   -2.0574 H   0  0  0  0  0  0  0  0  0  0  0  0
   -0.4046   -3.2420   -2.5787 H   0  0  0  0  0  0  0  0  0  0  0  0
   -0.4800   -0.9615   -1.4038 H   0  0  0  0  0  0  0  0  0  0  0  0
   -1.9474   -1.6240    0.3262 H   0  0  0  0  0  0  0  0  0  0  0  0
   -3.2844   -1.9406   -0.8128 H   0  0  0  0  0  0  0  0  0  0  0  0
   -1.8900    0.7301   -0.0830 H   0  0  0  0  0  0  0  0  0  0  0  0
   -4.0207    0.3100   -2.2354 H   0  0  0  0  0  0  0  0  0  0  0  0
   -2.7824    1.6384   -1.9355 H   0  0  0  0  0  0  0  0  0  0  0  0
   -4.1586    2.5354   -0.2019 H   0  0  0  0  0  0  0  0  0  0  0  0
   -4.9934    2.3120   -1.7609 H   0  0  0  0  0  0  0  0  0  0  0  0
   -7.5589    0.2743    0.0047 H   0  0  0  0  0  0  0  0  0  0  0  0
   -7.3374    1.2887   -1.4114 H   0  0  0  0  0  0  0  0  0  0  0  0
   -7.3002    2.2666    1.5106 H   0  0  0  0  0  0  0  0  0  0  0  0
   -9.3599    1.2575    0.2904 H   0  0  0  0  0  0  0  0  0  0  0  0
   -9.4938    2.8970    1.0034 H   0  0  0  0  0  0  0  0  0  0  0  0
   -9.2628    2.6819   -0.7920 H   0  0  0  0  0  0  0  0  0  0  0  0
   -6.9784    3.5315   -1.2906 H   0  0  0  0  0  0  0  0  0  0  0  0
   -7.7055    4.4529    0.1131 H   0  0  0  0  0  0  0  0  0  0  0  0
   -6.0472    3.8829    0.2736 H   0  0  0  0  0  0  0  0  0  0  0  0
   -5.6914   -0.0367    1.5303 H   0  0  0  0  0  0  0  0  0  0  0  0
   -5.2565   -1.0499    0.1089 H   0  0  0  0  0  0  0  0  0  0  0  0
   -3.5219    1.0789    1.4737 H   0  0  0  0  0  0  0  0  0  0  0  0
   -3.3409   -0.7512    1.4999 H   0  0  0  0  0  0  0  0  0  0  0  0
   -0.6137    0.3617   -3.0873 H   0  0  0  0  0  0  0  0  0  0  0  0
   -3.5063   -2.5545   -3.1318 H   0  0  0  0  0  0  0  0  0  0  0  0
    0.2613   -1.2941    1.1721 H   0  0  0  0  0  0  0  0  0  0  0  0
    2.4530   -0.2677    1.6486 H   0  0  0  0  0  0  0  0  0  0  0  0
    5.2912    0.8164   -0.6373 H   0  0  0  0  0  0  0  0  0  0  0  0
    6.4901    1.8668   -2.5134 H   0  0  0  0  0  0  0  0  0  0  0  0
    8.8239    2.6495   -2.1910 H   0  0  0  0  0  0  0  0  0  0  0  0
    9.8884    2.3750   -0.0581 H   0  0  0  0  0  0  0  0  0  0  0  0
  1  2  1  0
  2  3  2  0
  3  4  1  0
  4  5  1  0
  5  6  1  0
  6  7  1  0
  7  8  2  0
  8  9  1  0
  9 10  2  0
 10 11  1  0
 11 12  2  0
 11 13  2  0
 11 14  1  0
 14 15  1  0
 15 16  1  0
 16 17  1  0
 17 18  1  0
 18 19  1  0
 19 20  1  0
 20 21  1  0
 21 22  1  0
 22 23  1  0
 22 24  1  0
 20 25  1  0
 25 26  1  0
 15 27  1  0
 27 28  1  0
 27 29  1  0
 29 30  2  0
 10 31  1  0
 31 32  2  0
  4 33  2  0
 33 34  1  0
 34 35  2  0
 35 36  1  0
 36 37  2  0
 37 38  1  0
 38 39  2  0
 39  2  1  0
 32  7  1  0
 38 33  1  0
 26 17  1  0
  1 40  1  0
  1 41  1  0
  1 42  1  0
  3 43  1  0
  5 44  1  0
  5 45  1  0
  8 46  1  0
  9 47  1  0
 14 48  1  0
 14 49  1  0
 15 50  1  0
 16 51  1  0
 16 52  1  0
 17 53  1  0
 18 54  1  0
 18 55  1  0
 19 56  1  0
 19 57  1  0
 21 58  1  0
 21 59  1  0
 22 60  1  0
 23 61  1  0
 23 62  1  0
 23 63  1  0
 24 64  1  0
 24 65  1  0
 24 66  1  0
 25 67  1  0
 25 68  1  0
 26 69  1  0
 26 70  1  0
 28 71  1  0
 29 72  1  0
 31 73  1  0
 32 74  1  0
 34 75  1  0
 35 76  1  0
 36 77  1  0
 37 78  1  0
M  END
$$$$
