@<TRIPOS>MOLECULE
*****
 78 81 0 0 0
SMALL
GASTEIGER

@<TRIPOS>ATOM
      1 C           8.9690    0.6069    4.4841 C.3     1  UNL1       -0.0223
      2 C           8.2600    0.7453    3.1770 C.ar    1  UNL1        0.0393
      3 C           6.9710    0.3184    2.9858 C.ar    1  UNL1       -0.0337
      4 C           6.2945    0.4352    1.8012 C.ar    1  UNL1        0.0004
      5 C           4.8995   -0.0268    1.6203 C.3     1  UNL1        0.1153
      6 O           4.8275   -1.2363    0.8860 O.3     1  UNL1       -0.4874
      7 C           3.5622   -1.7667    0.6494 C.ar    1  UNL1        0.1211
      8 C           3.4494   -2.9585   -0.0761 C.ar    1  UNL1       -0.0181
      9 C           2.2302   -3.5353   -0.3464 C.ar    1  UNL1       -0.0334
     10 C           1.0397   -2.9455    0.0987 C.ar    1  UNL1        0.0885
     11 S          -0.4947   -3.7142   -0.2825 S.O2    1  UNL1       -0.0013
     12 O          -1.4244   -3.7596    0.8672 O.2     1  UNL1       -0.1693
     13 O          -0.1798   -5.1817   -0.6088 O.2     1  UNL1       -0.1693
     14 C          -1.1319   -3.0244   -1.7554 C.3     1  UNL1        0.0917
     15 C          -1.4073   -1.5276   -1.6976 C.3     1  UNL1        0.0725
     16 C          -2.4135   -1.2790   -0.6427 C.3     1  UNL1       -0.0275
     17 C          -2.8341    0.1321   -0.3818 C.3     1  UNL1       -0.0369
     18 C          -3.4568    0.8957   -1.4566 C.3     1  UNL1       -0.0373
     19 C          -4.6046    1.7648   -0.8660 C.3     1  UNL1       -0.0009
     20 N          -5.5796    0.9480   -0.3016 N.3     1  UNL1       -0.3021
     21 C          -6.9367    1.1707   -0.3430 C.3     1  UNL1        0.0012
     22 C          -7.4970    2.3407    0.4425 C.3     1  UNL1       -0.0339
     23 C          -9.0072    2.3054    0.2046 C.3     1  UNL1       -0.0615
     24 C          -7.0064    3.6270   -0.1854 C.3     1  UNL1       -0.0615
     25 C          -5.1296   -0.0490    0.5980 C.3     1  UNL1       -0.0009
     26 C          -3.6424    0.1237    0.8878 C.3     1  UNL1       -0.0373
     27 N          -1.7884   -1.1856   -3.0433 N.am    1  UNL1       -0.1817
     28 O          -1.0792   -0.2661   -3.7166 O.3     1  UNL1       -0.2924
     29 C          -2.8984   -1.8070   -3.6496 C.2     1  UNL1        0.2253
     30 O          -3.2776   -1.5540   -4.8267 O.2     1  UNL1       -0.2772
     31 C           1.1576   -1.7789    0.8085 C.ar    1  UNL1       -0.0334
     32 C           2.3889   -1.1976    1.0817 C.ar    1  UNL1       -0.0181
     33 C           6.9334    1.0164    0.7157 C.ar    1  UNL1        0.0068
     34 C           6.2932    1.1552   -0.4956 C.ar    1  UNL1       -0.0522
     35 C           6.9717    1.7472   -1.5561 C.ar    1  UNL1       -0.0611
     36 C           8.2556    2.1765   -1.3796 C.ar    1  UNL1       -0.0597
     37 C           8.8819    2.0309   -0.1684 C.ar    1  UNL1       -0.0357
     38 C           8.2341    1.4448    0.9136 C.ar    1  UNL1        0.0716
     39 N           8.8616    1.3089    2.1028 N.ar    1  UNL1       -0.2519
     40 H           8.7682    1.5038    5.1061 H       1  UNL1        0.0292
     41 H           8.6233   -0.2760    5.0516 H       1  UNL1        0.0292
     42 H          10.0639    0.5957    4.2801 H       1  UNL1        0.0292
     43 H           6.4202   -0.1457    3.8059 H       1  UNL1        0.0639
     44 H           4.4084   -0.2086    2.6138 H       1  UNL1        0.0748
     45 H           4.3307    0.7963    1.1496 H       1  UNL1        0.0748
     46 H           4.3729   -3.4156   -0.4190 H       1  UNL1        0.0655
     47 H           2.1348   -4.4565   -0.9063 H       1  UNL1        0.0638
     48 H          -2.0854   -3.5086   -2.0574 H       1  UNL1        0.0523
     49 H          -0.4046   -3.2420   -2.5787 H       1  UNL1        0.0523
     50 H          -0.4800   -0.9615   -1.4038 H       1  UNL1        0.0541
     51 H          -1.9474   -1.6240    0.3262 H       1  UNL1        0.0287
     52 H          -3.2844   -1.9406   -0.8128 H       1  UNL1        0.0287
     53 H          -1.8900    0.7301   -0.0830 H       1  UNL1        0.0302
     54 H          -4.0207    0.3100   -2.2354 H       1  UNL1        0.0280
     55 H          -2.7824    1.6384   -1.9355 H       1  UNL1        0.0280
     56 H          -4.1586    2.5354   -0.2019 H       1  UNL1        0.0427
     57 H          -4.9934    2.3120   -1.7609 H       1  UNL1        0.0427
     58 H          -7.5589    0.2743    0.0047 H       1  UNL1        0.0429
     59 H          -7.3374    1.2887   -1.4114 H       1  UNL1        0.0429
     60 H          -7.3002    2.2666    1.5106 H       1  UNL1        0.0308
     61 H          -9.3599    1.2575    0.2904 H       1  UNL1        0.0233
     62 H          -9.4938    2.8970    1.0034 H       1  UNL1        0.0233
     63 H          -9.2628    2.6819   -0.7920 H       1  UNL1        0.0233
     64 H          -6.9784    3.5315   -1.2906 H       1  UNL1        0.0233
     65 H          -7.7055    4.4529    0.1131 H       1  UNL1        0.0233
     66 H          -6.0472    3.8829    0.2736 H       1  UNL1        0.0233
     67 H          -5.6914   -0.0367    1.5303 H       1  UNL1        0.0427
     68 H          -5.2565   -1.0499    0.1089 H       1  UNL1        0.0427
     69 H          -3.5219    1.0789    1.4737 H       1  UNL1        0.0280
     70 H          -3.3409   -0.7512    1.4999 H       1  UNL1        0.0280
     71 H          -0.6137    0.3617   -3.0873 H       1  UNL1        0.2417
     72 H          -3.5063   -2.5545   -3.1318 H       1  UNL1        0.1274
     73 H           0.2613   -1.2941    1.1721 H       1  UNL1        0.0638
     74 H           2.4530   -0.2677    1.6486 H       1  UNL1        0.0655
     75 H           5.2912    0.8164   -0.6373 H       1  UNL1        0.0624
     76 H           6.4901    1.8668   -2.5134 H       1  UNL1        0.0618
     77 H           8.8239    2.6495   -2.1910 H       1  UNL1        0.0618
     78 H           9.8884    2.3750   -0.0581 H       1  UNL1        0.0639
@<TRIPOS>BOND
     1     1     2    1
     2     2     3   ar
     3     3     4   ar
     4     4     5    1
     5     5     6    1
     6     6     7    1
     7     7     8   ar
     8     8     9   ar
     9     9    10   ar
    10    10    11    1
    11    11    12    2
    12    11    13    2
    13    11    14    1
    14    14    15    1
    15    15    16    1
    16    16    17    1
    17    17    18    1
    18    18    19    1
    19    19    20    1
    20    20    21    1
    21    21    22    1
    22    22    23    1
    23    22    24    1
    24    20    25    1
    25    25    26    1
    26    15    27    1
    27    27    28    1
    28    27    29   am
    29    29    30    2
    30    10    31   ar
    31    31    32   ar
    32     4    33   ar
    33    33    34   ar
    34    34    35   ar
    35    35    36   ar
    36    36    37   ar
    37    37    38   ar
    38    38    39   ar
    39    39     2   ar
    40    32     7   ar
    41    38    33   ar
    42    26    17    1
    43     1    40    1
    44     1    41    1
    45     1    42    1
    46     3    43    1
    47     5    44    1
    48     5    45    1
    49     8    46    1
    50     9    47    1
    51    14    48    1
    52    14    49    1
    53    15    50    1
    54    16    51    1
    55    16    52    1
    56    17    53    1
    57    18    54    1
    58    18    55    1
    59    19    56    1
    60    19    57    1
    61    21    58    1
    62    21    59    1
    63    22    60    1
    64    23    61    1
    65    23    62    1
    66    23    63    1
    67    24    64    1
    68    24    65    1
    69    24    66    1
    70    25    67    1
    71    25    68    1
    72    26    69    1
    73    26    70    1
    74    28    71    1
    75    29    72    1
    76    31    73    1
    77    32    74    1
    78    34    75    1
    79    35    76    1
    80    36    77    1
    81    37    78    1
