@<TRIPOS>MOLECULE
*****
 49 51 0 0 0
SMALL
GASTEIGER

@<TRIPOS>ATOM
      1 C           1.7383   -4.2248   -1.5790 C.3     1  UNL1        0.0707
      2 S           1.5692   -2.6732   -2.4416 S.O2    1  UNL1        0.0290
      3 O           2.5891   -2.5784   -3.5546 O.2     1  UNL1       -0.1583
      4 O           0.2292   -2.8000   -3.1905 O.2     1  UNL1       -0.1583
      5 N           1.5322   -1.3360   -1.4930 N.3     1  UNL1       -0.1796
      6 C           2.5978   -0.9819   -0.6833 C.3     1  UNL1        0.0219
      7 C           2.5172    0.5173   -0.5401 C.3     1  UNL1       -0.0187
      8 C           1.0652    0.8140   -0.7264 C.3     1  UNL1        0.0394
      9 N           0.3240    0.9299    0.4999 N.pl3   1  UNL1       -0.3211
     10 C          -0.1887   -0.1495    1.2537 C.3     1  UNL1        0.0381
     11 C          -1.1114   -1.1140    0.6924 C.ar    1  UNL1       -0.0186
     12 C          -0.6464   -2.4218    0.4516 C.ar    1  UNL1       -0.0565
     13 C          -1.4374   -3.4196   -0.0468 C.ar    1  UNL1       -0.0614
     14 C          -2.7505   -3.1721   -0.3367 C.ar    1  UNL1       -0.0612
     15 C          -3.2293   -1.9248   -0.1173 C.ar    1  UNL1       -0.0498
     16 C          -2.4162   -0.9108    0.3916 C.ar    1  UNL1        0.0595
     17 C          -3.0688    0.3907    0.6207 C.3     1  UNL1        0.4177
     18 F          -3.1376    0.7881    1.9182 F       1  UNL1       -0.1659
     19 F          -2.5127    1.3312   -0.2392 F       1  UNL1       -0.1659
     20 F          -4.4132    0.3471    0.2086 F       1  UNL1       -0.1659
     21 C           0.1938    2.2691    1.0017 C.ar    1  UNL1        0.0317
     22 C           0.7204    3.3907    0.3798 C.ar    1  UNL1       -0.0393
     23 C           0.5749    4.6758    0.8400 C.ar    1  UNL1       -0.0412
     24 C          -0.1629    4.8426    2.0335 C.ar    1  UNL1        0.0701
     25 C          -0.3139    6.1874    2.5234 C.1     1  UNL1        0.1006
     26 N          -0.4574    7.3086    2.9402 N.1     1  UNL1       -0.1908
     27 C          -0.6883    3.7963    2.6762 C.ar    1  UNL1        0.0600
     28 CL         -1.6010    3.9488    4.1621 Cl      1  UNL1       -0.0822
     29 C          -0.5091    2.5070    2.1590 C.ar    1  UNL1       -0.0210
     30 C           0.6297   -0.2678   -1.6876 C.3     1  UNL1        0.0387
     31 H           0.8872   -4.8978   -1.7082 H       1  UNL1        0.0479
     32 H           1.9654   -4.0041   -0.5206 H       1  UNL1        0.0479
     33 H           2.6381   -4.7711   -1.9825 H       1  UNL1        0.0479
     34 H           2.6597   -1.4837    0.3095 H       1  UNL1        0.0444
     35 H           3.5808   -1.1526   -1.2446 H       1  UNL1        0.0444
     36 H           2.8747    0.7412    0.4955 H       1  UNL1        0.0296
     37 H           3.1591    1.0366   -1.3005 H       1  UNL1        0.0296
     38 H           0.9988    1.7478   -1.3536 H       1  UNL1        0.0513
     39 H           0.7993   -0.7274    1.5427 H       1  UNL1        0.0513
     40 H          -0.5282    0.0689    2.2886 H       1  UNL1        0.0513
     41 H           0.3763   -2.6774    0.6591 H       1  UNL1        0.0621
     42 H          -1.0847   -4.4355   -0.2370 H       1  UNL1        0.0618
     43 H          -3.3966   -3.9639   -0.7377 H       1  UNL1        0.0618
     44 H          -4.2584   -1.7233   -0.3421 H       1  UNL1        0.0623
     45 H           1.3080    3.2623   -0.5286 H       1  UNL1        0.0636
     46 H           0.9300    5.5269    0.3553 H       1  UNL1        0.0631
     47 H          -0.9520    1.7423    2.7655 H       1  UNL1        0.0651
     48 H           0.8452    0.1310   -2.7353 H       1  UNL1        0.0462
     49 H          -0.4391   -0.4903   -1.6341 H       1  UNL1        0.0462
@<TRIPOS>BOND
     1     1     2    1
     2     2     3    2
     3     2     4    2
     4     2     5    1
     5     5     6    1
     6     6     7    1
     7     7     8    1
     8     8     9    1
     9     9    10    1
    10    10    11    1
    11    11    12   ar
    12    12    13   ar
    13    13    14   ar
    14    14    15   ar
    15    15    16   ar
    16    16    17    1
    17    17    18    1
    18    17    19    1
    19    17    20    1
    20     9    21    1
    21    21    22   ar
    22    22    23   ar
    23    23    24   ar
    24    24    25    1
    25    25    26    3
    26    24    27   ar
    27    27    28    1
    28    27    29   ar
    29     8    30    1
    30    30     5    1
    31    16    11   ar
    32    29    21   ar
    33     1    31    1
    34     1    32    1
    35     1    33    1
    36     6    34    1
    37     6    35    1
    38     7    36    1
    39     7    37    1
    40     8    38    1
    41    10    39    1
    42    10    40    1
    43    12    41    1
    44    13    42    1
    45    14    43    1
    46    15    44    1
    47    22    45    1
    48    23    46    1
    49    29    47    1
    50    30    48    1
    51    30    49    1
