
     RDKit          3D

 49 51  0  0  0  0  0  0  0  0999 V2000
    1.7383   -4.2248   -1.5790 C   0  0  0  0  0  0  0  0  0  0  0  0
    1.5692   -2.6732   -2.4416 S   0  0  0  0  0  6  0  0  0  0  0  0
    2.5891   -2.5784   -3.5546 O   0  0  0  0  0  0  0  0  0  0  0  0
    0.2292   -2.8000   -3.1905 O   0  0  0  0  0  0  0  0  0  0  0  0
    1.5322   -1.3360   -1.4930 N   0  0  0  0  0  0  0  0  0  0  0  0
    2.5978   -0.9819   -0.6833 C   0  0  0  0  0  0  0  0  0  0  0  0
    2.5172    0.5173   -0.5401 C   0  0  0  0  0  0  0  0  0  0  0  0
    1.0652    0.8140   -0.7264 C   0  0  2  0  0  0  0  0  0  0  0  0
    0.3240    0.9299    0.4999 N   0  0  0  0  0  0  0  0  0  0  0  0
   -0.1887   -0.1495    1.2537 C   0  0  0  0  0  0  0  0  0  0  0  0
   -1.1114   -1.1140    0.6924 C   0  0  0  0  0  0  0  0  0  0  0  0
   -0.6464   -2.4218    0.4516 C   0  0  0  0  0  0  0  0  0  0  0  0
   -1.4374   -3.4196   -0.0468 C   0  0  0  0  0  0  0  0  0  0  0  0
   -2.7505   -3.1721   -0.3367 C   0  0  0  0  0  0  0  0  0  0  0  0
   -3.2293   -1.9248   -0.1173 C   0  0  0  0  0  0  0  0  0  0  0  0
   -2.4162   -0.9108    0.3916 C   0  0  0  0  0  0  0  0  0  0  0  0
   -3.0688    0.3907    0.6207 C   0  0  0  0  0  0  0  0  0  0  0  0
   -3.1376    0.7881    1.9182 F   0  0  0  0  0  0  0  0  0  0  0  0
   -2.5127    1.3312   -0.2392 F   0  0  0  0  0  0  0  0  0  0  0  0
   -4.4132    0.3471    0.2086 F   0  0  0  0  0  0  0  0  0  0  0  0
    0.1938    2.2691    1.0017 C   0  0  0  0  0  0  0  0  0  0  0  0
    0.7204    3.3907    0.3798 C   0  0  0  0  0  0  0  0  0  0  0  0
    0.5749    4.6758    0.8400 C   0  0  0  0  0  0  0  0  0  0  0  0
   -0.1629    4.8426    2.0335 C   0  0  0  0  0  0  0  0  0  0  0  0
   -0.3139    6.1874    2.5234 C   0  0  0  0  0  0  0  0  0  0  0  0
   -0.4574    7.3086    2.9402 N   0  0  0  0  0  0  0  0  0  0  0  0
   -0.6883    3.7963    2.6762 C   0  0  0  0  0  0  0  0  0  0  0  0
   -1.6010    3.9488    4.1621 Cl  0  0  0  0  0  0  0  0  0  0  0  0
   -0.5091    2.5070    2.1590 C   0  0  0  0  0  0  0  0  0  0  0  0
    0.6297   -0.2678   -1.6876 C   0  0  0  0  0  0  0  0  0  0  0  0
    0.8872   -4.8978   -1.7082 H   0  0  0  0  0  0  0  0  0  0  0  0
    1.9654   -4.0041   -0.5206 H   0  0  0  0  0  0  0  0  0  0  0  0
    2.6381   -4.7711   -1.9825 H   0  0  0  0  0  0  0  0  0  0  0  0
    2.6597   -1.4837    0.3095 H   0  0  0  0  0  0  0  0  0  0  0  0
    3.5808   -1.1526   -1.2446 H   0  0  0  0  0  0  0  0  0  0  0  0
    2.8747    0.7412    0.4955 H   0  0  0  0  0  0  0  0  0  0  0  0
    3.1591    1.0366   -1.3005 H   0  0  0  0  0  0  0  0  0  0  0  0
    0.9988    1.7478   -1.3536 H   0  0  0  0  0  0  0  0  0  0  0  0
    0.7993   -0.7274    1.5427 H   0  0  0  0  0  0  0  0  0  0  0  0
   -0.5282    0.0689    2.2886 H   0  0  0  0  0  0  0  0  0  0  0  0
    0.3763   -2.6774    0.6591 H   0  0  0  0  0  0  0  0  0  0  0  0
   -1.0847   -4.4355   -0.2370 H   0  0  0  0  0  0  0  0  0  0  0  0
   -3.3966   -3.9639   -0.7377 H   0  0  0  0  0  0  0  0  0  0  0  0
   -4.2584   -1.7233   -0.3421 H   0  0  0  0  0  0  0  0  0  0  0  0
    1.3080    3.2623   -0.5286 H   0  0  0  0  0  0  0  0  0  0  0  0
    0.9300    5.5269    0.3553 H   0  0  0  0  0  0  0  0  0  0  0  0
   -0.9520    1.7423    2.7655 H   0  0  0  0  0  0  0  0  0  0  0  0
    0.8452    0.1310   -2.7353 H   0  0  0  0  0  0  0  0  0  0  0  0
   -0.4391   -0.4903   -1.6341 H   0  0  0  0  0  0  0  0  0  0  0  0
  1  2  1  0
  2  3  2  0
  2  4  2  0
  2  5  1  0
  5  6  1  0
  6  7  1  0
  7  8  1  0
  8  9  1  0
  9 10  1  0
 10 11  1  0
 11 12  2  0
 12 13  1  0
 13 14  2  0
 14 15  1  0
 15 16  2  0
 16 17  1  0
 17 18  1  0
 17 19  1  0
 17 20  1  0
  9 21  1  0
 21 22  2  0
 22 23  1  0
 23 24  2  0
 24 25  1  0
 25 26  3  0
 24 27  1  0
 27 28  1  0
 27 29  2  0
  8 30  1  0
 30  5  1  0
 16 11  1  0
 29 21  1  0
  1 31  1  0
  1 32  1  0
  1 33  1  0
  6 34  1  0
  6 35  1  0
  7 36  1  0
  7 37  1  0
  8 38  1  6
 10 39  1  0
 10 40  1  0
 12 41  1  0
 13 42  1  0
 14 43  1  0
 15 44  1  0
 22 45  1  0
 23 46  1  0
 29 47  1  0
 30 48  1  0
 30 49  1  0
M  END
$$$$
