@<TRIPOS>MOLECULE
*****
 52 55 0 0 0
SMALL
GASTEIGER

@<TRIPOS>ATOM
      1 C           6.4937    3.6381   -1.1802 C.3     1  UNL1        0.0805
      2 O           5.7930    2.4443   -0.6133 O.3     1  UNL1       -0.4786
      3 C           5.2775    1.5609   -0.1947 C.ar    1  UNL1        0.2338
      4 C           3.8363    1.6748    0.2209 C.ar    1  UNL1        0.0899
      5 N           3.2364    0.6505    0.7343 N.ar    1  UNL1       -0.2447
      6 C           3.7583   -0.5443    0.9471 C.ar    1  UNL1        0.1293
      7 C           2.9984   -1.5220    1.5417 C.ar    1  UNL1        0.1506
      8 N           1.6334   -1.1619    1.7744 N.pl3   1  UNL1       -0.2977
      9 C           0.6456   -1.4758    0.8118 C.ar    1  UNL1        0.0330
     10 C           0.7634   -2.6813    0.1246 C.ar    1  UNL1       -0.0378
     11 C          -0.1422   -3.0422   -0.8404 C.ar    1  UNL1       -0.0243
     12 C          -1.2204   -2.2096   -1.1711 C.ar    1  UNL1        0.1311
     13 F          -2.0569   -2.6570   -2.1854 F       1  UNL1       -0.2050
     14 C          -1.3648   -1.0174   -0.5081 C.ar    1  UNL1        0.0420
     15 C          -2.5312   -0.1487   -0.7774 C.3     1  UNL1        0.1961
     16 C          -2.7698   -0.0905   -2.3426 C.3     1  UNL1       -0.0112
     17 C          -2.2470    1.2509   -0.3389 C.3     1  UNL1        0.1212
     18 S          -3.3994    1.7658    0.8985 S.O2    1  UNL1        0.0192
     19 O          -3.0673    1.0982    2.2094 O.2     1  UNL1       -0.1706
     20 O          -3.4446    3.2445    1.0229 O.2     1  UNL1       -0.1706
     21 C          -4.9731    1.1546    0.3560 C.3     1  UNL1        0.3220
     22 C          -5.9453    1.4204    1.4605 C.3     1  UNL1        0.0013
     23 F          -5.4442    1.7678   -0.7653 F       1  UNL1       -0.2044
     24 C          -4.8022   -0.3150    0.1451 C.2     1  UNL1        0.3390
     25 N          -5.9418   -1.1201    0.5479 N.pl3   1  UNL1       -0.2465
     26 N          -3.7363   -0.7710   -0.3370 N.2     1  UNL1       -0.0700
     27 C          -0.4222   -0.6791    0.4741 C.ar    1  UNL1       -0.0301
     28 N           3.5807   -2.6973    1.7607 N.ar    1  UNL1       -0.2379
     29 C           4.8808   -2.9735    1.4256 C.ar    1  UNL1        0.0318
     30 C           5.6310   -1.9853    0.8263 C.ar    1  UNL1       -0.0158
     31 C           5.1099   -0.7535    0.5757 C.ar    1  UNL1        0.0978
     32 N           5.7096    0.2867    0.0546 N.ar    1  UNL1       -0.2099
     33 H           6.4301    4.3401   -0.3320 H       1  UNL1        0.0660
     34 H           5.8876    4.0443   -2.0093 H       1  UNL1        0.0660
     35 H           7.4955    3.3984   -1.4618 H       1  UNL1        0.0660
     36 H           3.4663    2.6577    0.0446 H       1  UNL1        0.0884
     37 H           1.4164   -0.6704    2.6396 H       1  UNL1        0.1536
     38 H           1.5938   -3.3487    0.3736 H       1  UNL1        0.0637
     39 H          -0.0481   -3.9852   -1.3723 H       1  UNL1        0.0647
     40 H          -3.5345    0.7347   -2.4109 H       1  UNL1        0.0279
     41 H          -3.3126   -0.9827   -2.6387 H       1  UNL1        0.0279
     42 H          -1.9124    0.2488   -2.8660 H       1  UNL1        0.0279
     43 H          -1.2246    1.4564    0.0209 H       1  UNL1        0.0551
     44 H          -2.3414    1.9508   -1.2497 H       1  UNL1        0.0551
     45 H          -5.6733    0.9933    2.4475 H       1  UNL1        0.0283
     46 H          -5.9769    2.5307    1.6191 H       1  UNL1        0.0283
     47 H          -6.9785    1.1565    1.1569 H       1  UNL1        0.0283
     48 H          -5.7727   -1.9272    1.1821 H       1  UNL1        0.2882
     49 H          -6.8691   -0.8618    0.1813 H       1  UNL1        0.2882
     50 H          -0.4688    0.2475    1.0415 H       1  UNL1        0.0641
     51 H           5.3170   -3.9285    1.6314 H       1  UNL1        0.0831
     52 H           6.6669   -2.1667    0.5366 H       1  UNL1        0.0655
@<TRIPOS>BOND
     1     1     2    1
     2     2     3    1
     3     3     4   ar
     4     4     5   ar
     5     5     6   ar
     6     6     7   ar
     7     7     8    1
     8     8     9    1
     9     9    10   ar
    10    10    11   ar
    11    11    12   ar
    12    12    13    1
    13    12    14   ar
    14    14    15    1
    15    15    16    1
    16    15    17    1
    17    17    18    1
    18    18    19    2
    19    18    20    2
    20    18    21    1
    21    21    22    1
    22    21    23    1
    23    21    24    1
    24    24    25    1
    25    24    26    2
    26    14    27   ar
    27     7    28   ar
    28    28    29   ar
    29    29    30   ar
    30    30    31   ar
    31    31    32   ar
    32    32     3   ar
    33    31     6   ar
    34    27     9   ar
    35    26    15    1
    36     1    33    1
    37     1    34    1
    38     1    35    1
    39     4    36    1
    40     8    37    1
    41    10    38    1
    42    11    39    1
    43    16    40    1
    44    16    41    1
    45    16    42    1
    46    17    43    1
    47    17    44    1
    48    22    45    1
    49    22    46    1
    50    22    47    1
    51    25    48    1
    52    25    49    1
    53    27    50    1
    54    29    51    1
    55    30    52    1
