@<TRIPOS>MOLECULE
*****
 48 50 0 0 0
SMALL
GASTEIGER

@<TRIPOS>ATOM
      1 C           6.8563   -0.2473   -1.1799 C.3     1  UNL1       -0.0209
      2 C           5.4274    0.1860   -1.1193 C.ar    1  UNL1        0.0586
      3 N           4.4200   -0.6056   -0.7701 N.ar    1  UNL1       -0.2357
      4 C           3.1294   -0.2730   -0.6866 C.ar    1  UNL1        0.1233
      5 N           2.0948   -1.1417   -0.3436 N.pl3   1  UNL1       -0.2975
      6 C           1.1057   -1.0079    0.6363 C.ar    1  UNL1        0.0683
      7 C          -0.2217   -0.8414    0.1468 C.ar    1  UNL1        0.0034
      8 C          -1.2528   -0.7135    1.0315 C.ar    1  UNL1        0.1433
      9 N          -2.6139   -0.5447    0.5907 N.pl3   1  UNL1       -0.3233
     10 C          -3.0130   -0.4509   -0.7749 C.3     1  UNL1        0.0371
     11 C          -2.5231    0.8262   -1.3980 C.3     1  UNL1       -0.0331
     12 C          -3.7041    1.7716   -1.6672 C.3     1  UNL1       -0.0513
     13 C          -4.5065    1.8566   -0.3968 C.3     1  UNL1       -0.0515
     14 C          -5.2462    0.5461   -0.2344 C.3     1  UNL1       -0.0360
     15 C          -4.5151   -0.5892   -0.9096 C.3     1  UNL1        0.0234
     16 N          -4.9138   -1.8158   -0.2280 N.3     1  UNL1       -0.3257
     17 N          -0.9555   -0.7512    2.3331 N.ar    1  UNL1       -0.1336
     18 N           0.2592   -0.9037    2.8084 N.ar    1  UNL1       -0.1409
     19 C           1.3449   -1.0416    1.9660 C.ar    1  UNL1        0.1685
     20 C           2.6592   -1.2914    2.5219 C.2     1  UNL1        0.2635
     21 N           2.7457   -1.2018    3.9726 N.am    1  UNL1       -0.3240
     22 O           3.6934   -1.5722    1.8948 O.2     1  UNL1       -0.2686
     23 C           2.8219    1.0592   -1.0080 C.ar    1  UNL1       -0.0202
     24 C           3.8136    1.9341   -1.3811 C.ar    1  UNL1       -0.0384
     25 C           5.1361    1.5012   -1.4396 C.ar    1  UNL1        0.0621
     26 CL          6.4332    2.5661   -1.9089 Cl      1  UNL1       -0.0817
     27 H           7.3093    0.1049   -0.2233 H       1  UNL1        0.0293
     28 H           6.9062   -1.3427   -1.2407 H       1  UNL1        0.0293
     29 H           7.3811    0.1870   -2.0447 H       1  UNL1        0.0293
     30 H           2.0428   -2.0498   -0.9062 H       1  UNL1        0.1536
     31 H          -0.3959   -0.8216   -0.9035 H       1  UNL1        0.0672
     32 H          -3.3705   -0.4840    1.3252 H       1  UNL1        0.1478
     33 H          -2.5723   -1.2870   -1.3671 H       1  UNL1        0.0513
     34 H          -1.8306    1.3809   -0.7462 H       1  UNL1        0.0284
     35 H          -2.0171    0.6464   -2.3828 H       1  UNL1        0.0284
     36 H          -4.3781    1.3598   -2.4454 H       1  UNL1        0.0266
     37 H          -3.2865    2.7319   -1.9787 H       1  UNL1        0.0266
     38 H          -5.1901    2.7229   -0.4158 H       1  UNL1        0.0266
     39 H          -3.7992    2.0057    0.4472 H       1  UNL1        0.0266
     40 H          -5.3185    0.3722    0.8731 H       1  UNL1        0.0281
     41 H          -6.2448    0.6255   -0.7010 H       1  UNL1        0.0281
     42 H          -4.7512   -0.6295   -1.9876 H       1  UNL1        0.0476
     43 H          -4.1036   -2.4862   -0.1673 H       1  UNL1        0.1185
     44 H          -5.7582   -2.2373   -0.6658 H       1  UNL1        0.1185
     45 H           2.9204   -0.2942    4.3973 H       1  UNL1        0.1453
     46 H           2.6242   -2.0599    4.5085 H       1  UNL1        0.1453
     47 H           1.7778    1.3591   -0.9476 H       1  UNL1        0.0652
     48 H           3.5795    2.9415   -1.6299 H       1  UNL1        0.0634
@<TRIPOS>BOND
     1     1     2    1
     2     2     3   ar
     3     3     4   ar
     4     4     5    1
     5     5     6    1
     6     6     7   ar
     7     7     8   ar
     8     8     9    1
     9     9    10    1
    10    10    11    1
    11    11    12    1
    12    12    13    1
    13    13    14    1
    14    14    15    1
    15    15    16    1
    16     8    17   ar
    17    17    18   ar
    18    18    19   ar
    19    19    20    1
    20    20    21   am
    21    20    22    2
    22     4    23   ar
    23    23    24   ar
    24    24    25   ar
    25    25    26    1
    26    25     2   ar
    27    19     6   ar
    28    15    10    1
    29     1    27    1
    30     1    28    1
    31     1    29    1
    32     5    30    1
    33     7    31    1
    34     9    32    1
    35    10    33    1
    36    11    34    1
    37    11    35    1
    38    12    36    1
    39    12    37    1
    40    13    38    1
    41    13    39    1
    42    14    40    1
    43    14    41    1
    44    15    42    1
    45    16    43    1
    46    16    44    1
    47    21    45    1
    48    21    46    1
    49    23    47    1
    50    24    48    1
