@<TRIPOS>MOLECULE
*****
 22 21 0 0 0
SMALL
GASTEIGER

@<TRIPOS>ATOM
      1 CD1        -2.2948    0.0860    0.6967 C.3     1  ILE1       -0.0650
      2 CG1        -1.5171    0.7269   -0.4223 C.3     1  ILE1       -0.0514
      3 CB         -0.1616    0.1649   -0.6194 C.3     1  ILE1       -0.0185
      4 CG2        -0.3175   -1.3072   -0.9383 C.3     1  ILE1       -0.0605
      5 CA          0.7658    0.3143    0.5437 C.3     1  ILE1        0.1058
      6 N           1.0184    1.6603    0.9338 N.3     1  ILE1       -0.3182
      7 C           2.0799   -0.3265    0.2813 C.2     1  ILE1        0.3220
      8 O           2.6688   -1.4980   -0.1014 O.3     1  ILE1       -0.4795
      9 OXT         3.1113    0.4010    0.4440 O.2     1  ILE1       -0.2492
     10 HD11       -3.2793    0.5919    0.7568 H       1  ILE1        0.0230
     11 HD12       -1.7771    0.1370    1.6694 H       1  ILE1        0.0230
     12 HD13       -2.4922   -0.9579    0.4380 H       1  ILE1        0.0230
     13 HG11       -1.5436    1.8384   -0.3586 H       1  ILE1        0.0266
     14 HG12       -2.0918    0.4840   -1.3578 H       1  ILE1        0.0266
     15 HB          0.2975    0.6488   -1.4922 H       1  ILE1        0.0318
     16 HG21       -0.6404   -1.7853    0.0247 H       1  ILE1        0.0233
     17 HG22        0.6594   -1.6900   -1.2798 H       1  ILE1        0.0233
     18 HG23       -1.1207   -1.4871   -1.6810 H       1  ILE1        0.0233
     19 HA          0.3452   -0.2059    1.4361 H       1  ILE1        0.0577
     20 H1          1.6029    1.6108    1.8150 H       1  ILE1        0.1190
     21 H2          1.6295    2.1669    0.2544 H       1  ILE1        0.1190
     22 H           3.0576   -1.5731   -1.0431 H       1  ILE1        0.2951
@<TRIPOS>BOND
     1     1     2    1
     2     2     3    1
     3     3     4    1
     4     3     5    1
     5     5     6    1
     6     5     7    1
     7     7     8    1
     8     7     9    2
     9     1    10    1
    10     1    11    1
    11     1    12    1
    12     2    13    1
    13     2    14    1
    14     3    15    1
    15     4    16    1
    16     4    17    1
    17     4    18    1
    18     5    19    1
    19     6    20    1
    20     6    21    1
    21     8    22    1
