
     RDKit          3D

 52 55  0  0  0  0  0  0  0  0999 V2000
   -2.2605   -0.4478   -1.0109 C   0  0  2  0  0  0  0  0  0  0  0  0
   -1.8905   -1.8954   -0.7141 C   0  0  0  0  0  0  0  0  0  0  0  0
   -1.1789    0.2287   -1.7075 N   0  0  0  0  0  0  0  0  0  0  0  0
   -1.2544    0.7879   -3.0645 C   0  0  0  0  0  0  0  0  0  0  0  0
   -0.4154    2.0185   -2.9403 C   0  0  0  0  0  0  0  0  0  0  0  0
    0.7851    1.5287   -2.1880 C   0  0  2  0  0  0  0  0  0  0  0  0
    1.7824    0.8808   -2.9702 N   0  0  0  0  0  0  0  0  0  0  0  0
    3.3823    1.4143   -2.7386 S   0  0  0  0  0  0  0  0  0  0  0  0
    3.6034    2.8468   -3.1913 O   0  0  0  0  0  0  0  0  0  0  0  0
    4.2622    0.5804   -3.6330 O   0  0  0  0  0  0  0  0  0  0  0  0
    3.9560    1.1749   -1.1144 C   0  0  0  0  0  0  0  0  0  0  0  0
    3.8143    2.0876   -0.1619 N   0  0  0  0  0  0  0  0  0  0  0  0
    4.3511    1.6051    0.9477 N   0  0  0  0  0  0  0  0  0  0  0  0
    4.8356    0.3828    0.7019 C   0  0  0  0  0  0  0  0  0  0  0  0
    4.5970    0.1038   -0.5741 N   0  0  0  0  0  0  0  0  0  0  0  0
    5.5061   -0.4742    1.6846 C   0  0  0  0  0  0  0  0  0  0  0  0
    6.0046   -1.7201    1.4505 C   0  0  0  0  0  0  0  0  0  0  0  0
    6.6017   -2.4118    2.4388 C   0  0  0  0  0  0  0  0  0  0  0  0
    6.6491   -1.6954    3.7401 C   0  0  0  0  0  0  0  0  0  0  0  0
    7.4110   -2.4233    5.2464 Cl  0  0  0  0  0  0  0  0  0  0  0  0
    5.7880   -0.0590    3.3269 S   0  0  0  0  0  0  0  0  0  0  0  0
    0.1694    0.5153   -1.2854 C   0  0  0  0  0  0  0  0  0  0  0  0
    0.6794   -0.0541   -0.2844 O   0  0  0  0  0  0  0  0  0  0  0  0
   -2.6444    0.2704    0.2288 C   0  0  0  0  0  0  0  0  0  0  0  0
   -1.8677    1.2839    0.2751 O   0  0  0  0  0  0  0  0  0  0  0  0
   -3.6974   -0.3030    0.9955 N   0  0  0  0  0  0  0  0  0  0  0  0
   -4.5298   -1.5031    0.8282 C   0  0  0  0  0  0  0  0  0  0  0  0
   -5.9513   -1.0824    1.1351 C   0  0  0  0  0  0  0  0  0  0  0  0
   -6.1683    0.2758    1.0261 O   0  0  0  0  0  0  0  0  0  0  0  0
   -5.4354    1.0190    1.9462 C   0  0  0  0  0  0  0  0  0  0  0  0
   -4.0785    0.4089    2.2249 C   0  0  0  0  0  0  0  0  0  0  0  0
   -3.1571   -0.4787   -1.6619 H   0  0  0  0  0  0  0  0  0  0  0  0
   -2.4372   -2.6101   -1.3613 H   0  0  0  0  0  0  0  0  0  0  0  0
   -0.8063   -2.0733   -0.9022 H   0  0  0  0  0  0  0  0  0  0  0  0
   -2.0973   -2.1441    0.3418 H   0  0  0  0  0  0  0  0  0  0  0  0
   -0.8455    0.0212   -3.7367 H   0  0  0  0  0  0  0  0  0  0  0  0
   -2.3258    1.0400   -3.2980 H   0  0  0  0  0  0  0  0  0  0  0  0
   -0.9670    2.7026   -2.2391 H   0  0  0  0  0  0  0  0  0  0  0  0
   -0.2132    2.5438   -3.8693 H   0  0  0  0  0  0  0  0  0  0  0  0
    1.2366    2.3039   -1.5324 H   0  0  0  0  0  0  0  0  0  0  0  0
    1.7625   -0.1370   -2.8651 H   0  0  0  0  0  0  0  0  0  0  0  0
    4.3688    2.1337    1.8478 H   0  0  0  0  0  0  0  0  0  0  0  0
    5.9375   -2.1862    0.4775 H   0  0  0  0  0  0  0  0  0  0  0  0
    7.0452   -3.3918    2.4340 H   0  0  0  0  0  0  0  0  0  0  0  0
   -4.4330   -1.9502   -0.1739 H   0  0  0  0  0  0  0  0  0  0  0  0
   -4.2040   -2.2128    1.5892 H   0  0  0  0  0  0  0  0  0  0  0  0
   -6.5998   -1.5542    0.3455 H   0  0  0  0  0  0  0  0  0  0  0  0
   -6.2838   -1.4937    2.0899 H   0  0  0  0  0  0  0  0  0  0  0  0
   -6.0008    1.2246    2.8680 H   0  0  0  0  0  0  0  0  0  0  0  0
   -5.2564    2.0026    1.4597 H   0  0  0  0  0  0  0  0  0  0  0  0
   -3.3845    1.2379    2.4571 H   0  0  0  0  0  0  0  0  0  0  0  0
   -4.1451   -0.3225    3.0601 H   0  0  0  0  0  0  0  0  0  0  0  0
  1  2  1  0
  1  3  1  0
  3  4  1  0
  4  5  1  0
  5  6  1  0
  6  7  1  0
  7  8  1  0
  8  9  2  0
  8 10  2  0
  8 11  1  0
 11 12  2  0
 12 13  1  0
 13 14  1  0
 14 15  2  0
 14 16  1  0
 16 17  2  0
 17 18  1  0
 18 19  2  0
 19 20  1  0
 19 21  1  0
  6 22  1  0
 22 23  2  0
  1 24  1  0
 24 25  2  0
 24 26  1  0
 26 27  1  0
 27 28  1  0
 28 29  1  0
 29 30  1  0
 30 31  1  0
 22  3  1  0
 31 26  1  0
 15 11  1  0
 21 16  1  0
  1 32  1  6
  2 33  1  0
  2 34  1  0
  2 35  1  0
  4 36  1  0
  4 37  1  0
  5 38  1  0
  5 39  1  0
  6 40  1  1
  7 41  1  0
 13 42  1  0
 17 43  1  0
 18 44  1  0
 27 45  1  0
 27 46  1  0
 28 47  1  0
 28 48  1  0
 30 49  1  0
 30 50  1  0
 31 51  1  0
 31 52  1  0
M  END
$$$$
