@<TRIPOS>MOLECULE
*****
 52 55 0 0 0
SMALL
GASTEIGER

@<TRIPOS>ATOM
      1 C          -2.2605   -0.4478   -1.0109 C.3     1  UNL1        0.0996
      2 C          -1.8905   -1.8954   -0.7141 C.3     1  UNL1       -0.0379
      3 N          -1.1789    0.2287   -1.7075 N.am    1  UNL1       -0.2888
      4 C          -1.2544    0.7879   -3.0645 C.3     1  UNL1        0.0174
      5 C          -0.4154    2.0185   -2.9403 C.3     1  UNL1       -0.0116
      6 C           0.7851    1.5287   -2.1880 C.3     1  UNL1        0.1065
      7 N           1.7824    0.8808   -2.9702 N.3     1  UNL1       -0.1751
      8 S           3.3823    1.4143   -2.7386 S.O2    1  UNL1        0.0960
      9 O           3.6034    2.8468   -3.1913 O.2     1  UNL1       -0.1500
     10 O           4.2622    0.5804   -3.6330 O.2     1  UNL1       -0.1500
     11 C           3.9560    1.1749   -1.1144 C.ar    1  UNL1        0.3065
     12 N           3.8143    2.0876   -0.1619 N.ar    1  UNL1       -0.1315
     13 N           4.3511    1.6051    0.9477 N.ar    1  UNL1       -0.2565
     14 C           4.8356    0.3828    0.7019 C.ar    1  UNL1        0.1646
     15 N           4.5970    0.1038   -0.5741 N.ar    1  UNL1       -0.1894
     16 C           5.5061   -0.4742    1.6846 C.ar    1  UNL1        0.0573
     17 C           6.0046   -1.7201    1.4505 C.ar    1  UNL1       -0.0425
     18 C           6.6017   -2.4118    2.4388 C.ar    1  UNL1       -0.0355
     19 C           6.6491   -1.6954    3.7401 C.ar    1  UNL1        0.0787
     20 CL          7.4110   -2.4233    5.2464 Cl      1  UNL1       -0.0758
     21 S           5.7880   -0.0590    3.3269 S.2     1  UNL1       -0.0737
     22 C           0.1694    0.5153   -1.2854 C.2     1  UNL1        0.2349
     23 O           0.6794   -0.0541   -0.2844 O.2     1  UNL1       -0.2738
     24 C          -2.6444    0.2704    0.2288 C.2     1  UNL1        0.2360
     25 O          -1.8677    1.2839    0.2751 O.2     1  UNL1       -0.2736
     26 N          -3.6974   -0.3030    0.9955 N.am    1  UNL1       -0.2956
     27 C          -4.5298   -1.5031    0.8282 C.3     1  UNL1        0.0382
     28 C          -5.9513   -1.0824    1.1351 C.3     1  UNL1        0.0635
     29 O          -6.1683    0.2758    1.0261 O.3     1  UNL1       -0.3767
     30 C          -5.4354    1.0190    1.9462 C.3     1  UNL1        0.0635
     31 C          -4.0785    0.4089    2.2249 C.3     1  UNL1        0.0382
     32 H          -3.1571   -0.4787   -1.6619 H       1  UNL1        0.0594
     33 H          -2.4372   -2.6101   -1.3613 H       1  UNL1        0.0252
     34 H          -0.8063   -2.0733   -0.9022 H       1  UNL1        0.0252
     35 H          -2.0973   -2.1441    0.3418 H       1  UNL1        0.0252
     36 H          -0.8455    0.0212   -3.7367 H       1  UNL1        0.0465
     37 H          -2.3258    1.0400   -3.2980 H       1  UNL1        0.0465
     38 H          -0.9670    2.7026   -2.2391 H       1  UNL1        0.0301
     39 H          -0.2132    2.5438   -3.8693 H       1  UNL1        0.0301
     40 H           1.2366    2.3039   -1.5324 H       1  UNL1        0.0573
     41 H           1.7625   -0.1370   -2.8651 H       1  UNL1        0.1490
     42 H           4.3688    2.1337    1.8478 H       1  UNL1        0.1906
     43 H           5.9375   -2.1862    0.4775 H       1  UNL1        0.0630
     44 H           7.0452   -3.3918    2.4340 H       1  UNL1        0.0638
     45 H          -4.4330   -1.9502   -0.1739 H       1  UNL1        0.0487
     46 H          -4.2040   -2.2128    1.5892 H       1  UNL1        0.0487
     47 H          -6.5998   -1.5542    0.3455 H       1  UNL1        0.0575
     48 H          -6.2838   -1.4937    2.0899 H       1  UNL1        0.0575
     49 H          -6.0008    1.2246    2.8680 H       1  UNL1        0.0575
     50 H          -5.2564    2.0026    1.4597 H       1  UNL1        0.0575
     51 H          -3.3845    1.2379    2.4571 H       1  UNL1        0.0487
     52 H          -4.1451   -0.3225    3.0601 H       1  UNL1        0.0487
@<TRIPOS>BOND
     1     1     2    1
     2     1     3    1
     3     3     4    1
     4     4     5    1
     5     5     6    1
     6     6     7    1
     7     7     8    1
     8     8     9    2
     9     8    10    2
    10     8    11    1
    11    11    12   ar
    12    12    13   ar
    13    13    14   ar
    14    14    15   ar
    15    14    16    1
    16    16    17   ar
    17    17    18   ar
    18    18    19   ar
    19    19    20    1
    20    19    21   ar
    21     6    22    1
    22    22    23    2
    23     1    24    1
    24    24    25    2
    25    24    26   am
    26    26    27    1
    27    27    28    1
    28    28    29    1
    29    29    30    1
    30    30    31    1
    31    22     3   am
    32    31    26    1
    33    15    11   ar
    34    21    16   ar
    35     1    32    1
    36     2    33    1
    37     2    34    1
    38     2    35    1
    39     4    36    1
    40     4    37    1
    41     5    38    1
    42     5    39    1
    43     6    40    1
    44     7    41    1
    45    13    42    1
    46    17    43    1
    47    18    44    1
    48    27    45    1
    49    27    46    1
    50    28    47    1
    51    28    48    1
    52    30    49    1
    53    30    50    1
    54    31    51    1
    55    31    52    1
