
     RDKit          3D

 48 51  0  0  0  0  0  0  0  0999 V2000
   -5.3099    2.2822   -2.3250 C   0  0  0  0  0  0  0  0  0  0  0  0
   -4.1424    2.3823   -1.4175 C   0  0  0  0  0  0  0  0  0  0  0  0
   -3.2730    3.2539   -1.6597 O   0  0  0  0  0  0  0  0  0  0  0  0
   -3.9723    1.5398   -0.2979 N   0  0  0  0  0  0  0  0  0  0  0  0
   -4.9429    0.5211    0.0254 C   0  0  0  0  0  0  0  0  0  0  0  0
   -4.3494   -0.8399    0.0792 C   0  0  0  0  0  0  0  0  0  0  0  0
   -2.9097   -0.8226    0.4365 C   0  0  0  0  0  0  0  0  0  0  0  0
   -2.1942    0.3192    0.6663 C   0  0  0  0  0  0  0  0  0  0  0  0
   -0.8774   -0.0407    0.9756 C   0  0  0  0  0  0  0  0  0  0  0  0
    0.1268    0.9164    1.2683 N   0  0  0  0  0  0  0  0  0  0  0  0
    1.4325    0.3774    1.5666 C   0  0  0  0  0  0  0  0  0  0  0  0
    1.7289    0.0802    2.8817 C   0  0  0  0  0  0  0  0  0  0  0  0
    0.8207    0.2878    3.8687 F   0  0  0  0  0  0  0  0  0  0  0  0
    2.9849   -0.4374    3.1625 C   0  0  0  0  0  0  0  0  0  0  0  0
    3.9071   -0.6468    2.1509 C   0  0  0  0  0  0  0  0  0  0  0  0
    3.6072   -0.3470    0.8264 C   0  0  0  0  0  0  0  0  0  0  0  0
    4.5721   -0.5641   -0.2464 C   0  0  0  0  0  0  0  0  0  0  0  0
    5.3495   -1.6918   -0.4141 C   0  0  0  0  0  0  0  0  0  0  0  0
    6.1039   -1.4966   -1.5198 N   0  0  0  0  0  0  0  0  0  0  0  0
    5.8474   -0.3171   -2.0552 N   0  0  0  0  0  0  0  0  0  0  0  0
    6.4777    0.2342   -3.2630 C   0  0  0  0  0  0  0  0  0  0  0  0
    4.9108    0.2697   -1.2887 C   0  0  0  0  0  0  0  0  0  0  0  0
    2.3565    0.1676    0.5532 C   0  0  0  0  0  0  0  0  0  0  0  0
    2.0552    0.4630   -0.7363 F   0  0  0  0  0  0  0  0  0  0  0  0
   -0.8431   -1.3715    0.9226 N   0  0  0  0  0  0  0  0  0  0  0  0
   -2.0249   -1.8637    0.6075 N   0  0  0  0  0  0  0  0  0  0  0  0
   -2.3652   -3.2648    0.4586 C   0  0  0  0  0  0  0  0  0  0  0  0
   -2.8277    1.6551    0.5716 C   0  0  0  0  0  0  0  0  0  0  0  0
   -5.4744    1.2330   -2.6765 H   0  0  0  0  0  0  0  0  0  0  0  0
   -6.2356    2.5731   -1.7820 H   0  0  0  0  0  0  0  0  0  0  0  0
   -5.1907    2.9282   -3.1914 H   0  0  0  0  0  0  0  0  0  0  0  0
   -5.5158    0.7702    0.9463 H   0  0  0  0  0  0  0  0  0  0  0  0
   -5.7267    0.5045   -0.7885 H   0  0  0  0  0  0  0  0  0  0  0  0
   -4.4368   -1.4068   -0.8720 H   0  0  0  0  0  0  0  0  0  0  0  0
   -4.8557   -1.3844    0.9216 H   0  0  0  0  0  0  0  0  0  0  0  0
   -0.0344    1.9264    1.2750 H   0  0  0  0  0  0  0  0  0  0  0  0
    3.2576   -0.6859    4.1952 H   0  0  0  0  0  0  0  0  0  0  0  0
    4.8972   -1.0517    2.3497 H   0  0  0  0  0  0  0  0  0  0  0  0
    5.3642   -2.5810    0.2175 H   0  0  0  0  0  0  0  0  0  0  0  0
    7.4501   -0.2210   -3.4541 H   0  0  0  0  0  0  0  0  0  0  0  0
    5.7556    0.1660   -4.0937 H   0  0  0  0  0  0  0  0  0  0  0  0
    6.5935    1.3363   -3.0491 H   0  0  0  0  0  0  0  0  0  0  0  0
    4.5065    1.2452   -1.4861 H   0  0  0  0  0  0  0  0  0  0  0  0
   -3.0081   -3.3540   -0.4515 H   0  0  0  0  0  0  0  0  0  0  0  0
   -2.9040   -3.6132    1.3486 H   0  0  0  0  0  0  0  0  0  0  0  0
   -1.4368   -3.8245    0.2489 H   0  0  0  0  0  0  0  0  0  0  0  0
   -2.1464    2.4187    0.1503 H   0  0  0  0  0  0  0  0  0  0  0  0
   -3.1085    1.9752    1.6016 H   0  0  0  0  0  0  0  0  0  0  0  0
  1  2  1  0
  2  3  2  0
  2  4  1  0
  4  5  1  0
  5  6  1  0
  6  7  1  0
  7  8  2  0
  8  9  1  0
  9 10  1  0
 10 11  1  0
 11 12  2  0
 12 13  1  0
 12 14  1  0
 14 15  2  0
 15 16  1  0
 16 17  1  0
 17 18  1  0
 18 19  2  0
 19 20  1  0
 20 21  1  0
 20 22  1  0
 16 23  2  0
 23 24  1  0
  9 25  2  0
 25 26  1  0
 26 27  1  0
  8 28  1  0
 28  4  1  0
 26  7  1  0
 23 11  1  0
 22 17  2  0
  1 29  1  0
  1 30  1  0
  1 31  1  0
  5 32  1  0
  5 33  1  0
  6 34  1  0
  6 35  1  0
 10 36  1  0
 14 37  1  0
 15 38  1  0
 18 39  1  0
 21 40  1  0
 21 41  1  0
 21 42  1  0
 22 43  1  0
 27 44  1  0
 27 45  1  0
 27 46  1  0
 28 47  1  0
 28 48  1  0
M  END
$$$$
