@<TRIPOS>MOLECULE
*****
 48 51 0 0 0
SMALL
GASTEIGER

@<TRIPOS>ATOM
      1 C          -5.3099    2.2822   -2.3250 C.3     1  UNL1        0.0124
      2 C          -4.1424    2.3823   -1.4175 C.2     1  UNL1        0.2128
      3 O          -3.2730    3.2539   -1.6597 O.2     1  UNL1       -0.2759
      4 N          -3.9723    1.5398   -0.2979 N.am    1  UNL1       -0.2968
      5 C          -4.9429    0.5211    0.0254 C.3     1  UNL1        0.0204
      6 C          -4.3494   -0.8399    0.0792 C.3     1  UNL1        0.0055
      7 C          -2.9097   -0.8226    0.4365 C.ar    1  UNL1        0.0469
      8 C          -2.1942    0.3192    0.6663 C.ar    1  UNL1        0.0324
      9 C          -0.8774   -0.0407    0.9756 C.ar    1  UNL1        0.1499
     10 N           0.1268    0.9164    1.2683 N.pl3   1  UNL1       -0.2933
     11 C           1.4325    0.3774    1.5666 C.ar    1  UNL1        0.1043
     12 C           1.7289    0.0802    2.8817 C.ar    1  UNL1        0.1473
     13 F           0.8207    0.2878    3.8687 F       1  UNL1       -0.2034
     14 C           2.9849   -0.4374    3.1625 C.ar    1  UNL1       -0.0238
     15 C           3.9071   -0.6468    2.1509 C.ar    1  UNL1       -0.0484
     16 C           3.6072   -0.3470    0.8264 C.ar    1  UNL1        0.0223
     17 C           4.5721   -0.5641   -0.2464 C.ar    1  UNL1        0.0224
     18 C           5.3495   -1.6918   -0.4141 C.ar    1  UNL1        0.0572
     19 N           6.1039   -1.4966   -1.5198 N.ar    1  UNL1       -0.1793
     20 N           5.8474   -0.3171   -2.0552 N.ar    1  UNL1       -0.2739
     21 C           6.4777    0.2342   -3.2630 C.3     1  UNL1        0.0302
     22 C           4.9108    0.2697   -1.2887 C.ar    1  UNL1        0.0330
     23 C           2.3565    0.1676    0.5532 C.ar    1  UNL1        0.1550
     24 F           2.0552    0.4630   -0.7363 F       1  UNL1       -0.2028
     25 N          -0.8431   -1.3715    0.9226 N.ar    1  UNL1       -0.1557
     26 N          -2.0249   -1.8637    0.6075 N.ar    1  UNL1       -0.2692
     27 C          -2.3652   -3.2648    0.4586 C.3     1  UNL1        0.0306
     28 C          -2.8277    1.6551    0.5716 C.3     1  UNL1        0.0447
     29 H          -5.4744    1.2330   -2.6765 H       1  UNL1        0.0323
     30 H          -6.2356    2.5731   -1.7820 H       1  UNL1        0.0323
     31 H          -5.1907    2.9282   -3.1914 H       1  UNL1        0.0323
     32 H          -5.5158    0.7702    0.9463 H       1  UNL1        0.0468
     33 H          -5.7267    0.5045   -0.7885 H       1  UNL1        0.0468
     34 H          -4.4368   -1.4068   -0.8720 H       1  UNL1        0.0343
     35 H          -4.8557   -1.3844    0.9216 H       1  UNL1        0.0343
     36 H          -0.0344    1.9264    1.2750 H       1  UNL1        0.1538
     37 H           3.2576   -0.6859    4.1952 H       1  UNL1        0.0647
     38 H           4.8972   -1.0517    2.3497 H       1  UNL1        0.0625
     39 H           5.3642   -2.5810    0.2175 H       1  UNL1        0.0854
     40 H           7.4501   -0.2210   -3.4541 H       1  UNL1        0.0473
     41 H           5.7556    0.1660   -4.0937 H       1  UNL1        0.0473
     42 H           6.5935    1.3363   -3.0491 H       1  UNL1        0.0473
     43 H           4.5065    1.2452   -1.4861 H       1  UNL1        0.0832
     44 H          -3.0081   -3.3540   -0.4515 H       1  UNL1        0.0473
     45 H          -2.9040   -3.6132    1.3486 H       1  UNL1        0.0473
     46 H          -1.4368   -3.8245    0.2489 H       1  UNL1        0.0473
     47 H          -2.1464    2.4187    0.1503 H       1  UNL1        0.0515
     48 H          -3.1085    1.9752    1.6016 H       1  UNL1        0.0515
@<TRIPOS>BOND
     1     1     2    1
     2     2     3    2
     3     2     4   am
     4     4     5    1
     5     5     6    1
     6     6     7    1
     7     7     8   ar
     8     8     9   ar
     9     9    10    1
    10    10    11    1
    11    11    12   ar
    12    12    13    1
    13    12    14   ar
    14    14    15   ar
    15    15    16   ar
    16    16    17    1
    17    17    18   ar
    18    18    19   ar
    19    19    20   ar
    20    20    21    1
    21    20    22   ar
    22    16    23   ar
    23    23    24    1
    24     9    25   ar
    25    25    26   ar
    26    26    27    1
    27     8    28    1
    28    28     4    1
    29    26     7   ar
    30    23    11   ar
    31    22    17   ar
    32     1    29    1
    33     1    30    1
    34     1    31    1
    35     5    32    1
    36     5    33    1
    37     6    34    1
    38     6    35    1
    39    10    36    1
    40    14    37    1
    41    15    38    1
    42    18    39    1
    43    21    40    1
    44    21    41    1
    45    21    42    1
    46    22    43    1
    47    27    44    1
    48    27    45    1
    49    27    46    1
    50    28    47    1
    51    28    48    1
