@<TRIPOS>MOLECULE
*****
 73 77 0 0 0
SMALL
GASTEIGER

@<TRIPOS>ATOM
      1 C           7.9636    4.5790   -1.2131 C.3     1  UNL1        0.0820
      2 O           6.9368    3.5825   -1.1401 O.3     1  UNL1       -0.4644
      3 C           6.8042    2.8411    0.0213 C.2     1  UNL1        0.3390
      4 O           7.5945    3.0751    0.9725 O.2     1  UNL1       -0.2450
      5 C           5.7625    1.7968    0.1490 C.ar    1  UNL1        0.0608
      6 C           4.8947    1.5478   -0.8908 C.ar    1  UNL1       -0.0474
      7 C           3.9307    0.5487   -0.7362 C.ar    1  UNL1       -0.0549
      8 C           3.8340   -0.1820    0.4207 C.ar    1  UNL1       -0.0084
      9 C           4.7076    0.0780    1.4447 C.ar    1  UNL1        0.0385
     10 C           5.6554    1.0563    1.3045 C.ar    1  UNL1       -0.0262
     11 N           4.4332   -0.8587    2.5108 N.am    1  UNL1       -0.2844
     12 C           3.3690   -1.7195    2.1336 C.2     1  UNL1        0.2306
     13 O           2.9608   -2.6809    2.8150 O.2     1  UNL1       -0.2744
     14 C           2.8731   -1.2683    0.8407 C.3     1  UNL1        0.1051
     15 C           2.6229   -2.2597   -0.1815 C.2     1  UNL1        0.0653
     16 N           1.4058   -2.3694   -0.6517 N.2     1  UNL1       -0.2505
     17 C           0.3178   -1.5714   -0.2130 C.ar    1  UNL1        0.0643
     18 C          -0.6315   -2.1940    0.6121 C.ar    1  UNL1       -0.0346
     19 C          -1.7058   -1.4800    1.0820 C.ar    1  UNL1       -0.0383
     20 C          -1.8245   -0.1434    0.7234 C.ar    1  UNL1        0.0361
     21 N          -2.9502    0.5320    1.2570 N.am    1  UNL1       -0.2734
     22 C          -2.7687    1.1238    2.5727 C.3     1  UNL1        0.0083
     23 C          -4.1994    0.6667    0.6231 C.2     1  UNL1        0.2336
     24 O          -5.1355    1.2549    1.2187 O.2     1  UNL1       -0.2739
     25 C          -4.3794    0.1085   -0.7411 C.3     1  UNL1        0.0763
     26 N          -5.7215    0.3260   -1.2402 N.3     1  UNL1       -0.2916
     27 C          -6.7164   -0.4232   -0.5745 C.3     1  UNL1        0.0122
     28 C          -7.7984    0.2921    0.1298 C.3     1  UNL1        0.0114
     29 N          -8.0911    1.6027   -0.3562 N.3     1  UNL1       -0.3029
     30 C          -8.0204    2.6289    0.6335 C.3     1  UNL1       -0.0127
     31 C          -7.4699    1.9247   -1.6007 C.3     1  UNL1        0.0114
     32 C          -5.9976    1.7108   -1.4906 C.3     1  UNL1        0.0122
     33 C          -0.9100    0.4748   -0.0781 C.ar    1  UNL1       -0.0383
     34 C           0.1724   -0.2453   -0.5519 C.ar    1  UNL1       -0.0346
     35 C           3.6150   -3.1705   -0.7494 C.ar    1  UNL1       -0.0027
     36 C           3.2328   -4.0722   -1.7527 C.ar    1  UNL1       -0.0528
     37 C           4.1269   -4.9499   -2.3021 C.ar    1  UNL1       -0.0611
     38 C           5.4373   -4.9364   -1.8476 C.ar    1  UNL1       -0.0617
     39 C           5.8219   -4.0596   -0.8678 C.ar    1  UNL1       -0.0611
     40 C           4.9144   -3.1679   -0.3087 C.ar    1  UNL1       -0.0528
     41 H           8.8460    4.1989   -1.7959 H       1  UNL1        0.0661
     42 H           8.3281    4.8395   -0.1995 H       1  UNL1        0.0661
     43 H           7.5901    5.4793   -1.7432 H       1  UNL1        0.0661
     44 H           4.9765    2.1222   -1.7921 H       1  UNL1        0.0626
     45 H           3.2725    0.3932   -1.5885 H       1  UNL1        0.0621
     46 H           6.3695    1.2930    2.1056 H       1  UNL1        0.0644
     47 H           4.9373   -0.8877    3.4061 H       1  UNL1        0.1548
     48 H           1.9271   -0.6682    1.0833 H       1  UNL1        0.0508
     49 H          -0.5066   -3.2268    0.8694 H       1  UNL1        0.0639
     50 H          -2.4283   -1.9836    1.7201 H       1  UNL1        0.0637
     51 H          -1.7322    1.1459    2.9015 H       1  UNL1        0.0433
     52 H          -3.3826    0.5374    3.2698 H       1  UNL1        0.0433
     53 H          -3.1789    2.1500    2.5173 H       1  UNL1        0.0433
     54 H          -3.6951    0.6656   -1.4097 H       1  UNL1        0.0522
     55 H          -4.1579   -0.9525   -0.7943 H       1  UNL1        0.0522
     56 H          -6.2229   -1.1159    0.1717 H       1  UNL1        0.0439
     57 H          -7.1428   -1.1438   -1.3361 H       1  UNL1        0.0439
     58 H          -8.7503   -0.3057   -0.0134 H       1  UNL1        0.0439
     59 H          -7.6980    0.3021    1.2552 H       1  UNL1        0.0439
     60 H          -7.1178    3.2518    0.6074 H       1  UNL1        0.0391
     61 H          -8.8881    3.3419    0.6019 H       1  UNL1        0.0391
     62 H          -8.0561    2.1587    1.6585 H       1  UNL1        0.0391
     63 H          -7.6822    2.9990   -1.8109 H       1  UNL1        0.0439
     64 H          -7.8539    1.2638   -2.4051 H       1  UNL1        0.0439
     65 H          -5.4960    2.4067   -0.7907 H       1  UNL1        0.0439
     66 H          -5.5699    1.9435   -2.5086 H       1  UNL1        0.0439
     67 H          -1.0101    1.5339   -0.3611 H       1  UNL1        0.0637
     68 H           0.9228    0.2311   -1.2002 H       1  UNL1        0.0639
     69 H           2.2097   -4.0860   -2.1101 H       1  UNL1        0.0624
     70 H           3.8644   -5.6664   -3.0853 H       1  UNL1        0.0618
     71 H           6.1288   -5.6487   -2.3048 H       1  UNL1        0.0618
     72 H           6.8586   -4.0633   -0.5215 H       1  UNL1        0.0618
     73 H           5.2718   -2.5077    0.4589 H       1  UNL1        0.0624
@<TRIPOS>BOND
     1     1     2    1
     2     2     3    1
     3     3     4    2
     4     3     5    1
     5     5     6   ar
     6     6     7   ar
     7     7     8   ar
     8     8     9   ar
     9     9    10   ar
    10     9    11    1
    11    11    12   am
    12    12    13    2
    13    12    14    1
    14    14    15    1
    15    15    16    2
    16    16    17    1
    17    17    18   ar
    18    18    19   ar
    19    19    20   ar
    20    20    21    1
    21    21    22    1
    22    21    23   am
    23    23    24    2
    24    23    25    1
    25    25    26    1
    26    26    27    1
    27    27    28    1
    28    28    29    1
    29    29    30    1
    30    29    31    1
    31    31    32    1
    32    20    33   ar
    33    33    34   ar
    34    15    35    1
    35    35    36   ar
    36    36    37   ar
    37    37    38   ar
    38    38    39   ar
    39    39    40   ar
    40    10     5   ar
    41    34    17   ar
    42    40    35   ar
    43    14     8    1
    44    32    26    1
    45     1    41    1
    46     1    42    1
    47     1    43    1
    48     6    44    1
    49     7    45    1
    50    10    46    1
    51    11    47    1
    52    14    48    1
    53    18    49    1
    54    19    50    1
    55    22    51    1
    56    22    52    1
    57    22    53    1
    58    25    54    1
    59    25    55    1
    60    27    56    1
    61    27    57    1
    62    28    58    1
    63    28    59    1
    64    30    60    1
    65    30    61    1
    66    30    62    1
    67    31    63    1
    68    31    64    1
    69    32    65    1
    70    32    66    1
    71    33    67    1
    72    34    68    1
    73    36    69    1
    74    37    70    1
    75    38    71    1
    76    39    72    1
    77    40    73    1
