
     RDKit          3D

 73 77  0  0  0  0  0  0  0  0999 V2000
    7.9636    4.5790   -1.2131 C   0  0  0  0  0  0  0  0  0  0  0  0
    6.9368    3.5825   -1.1401 O   0  0  0  0  0  0  0  0  0  0  0  0
    6.8042    2.8411    0.0213 C   0  0  0  0  0  0  0  0  0  0  0  0
    7.5945    3.0751    0.9725 O   0  0  0  0  0  0  0  0  0  0  0  0
    5.7625    1.7968    0.1490 C   0  0  0  0  0  0  0  0  0  0  0  0
    4.8947    1.5478   -0.8908 C   0  0  0  0  0  0  0  0  0  0  0  0
    3.9307    0.5487   -0.7362 C   0  0  0  0  0  0  0  0  0  0  0  0
    3.8340   -0.1820    0.4207 C   0  0  0  0  0  0  0  0  0  0  0  0
    4.7076    0.0780    1.4447 C   0  0  0  0  0  0  0  0  0  0  0  0
    5.6554    1.0563    1.3045 C   0  0  0  0  0  0  0  0  0  0  0  0
    4.4332   -0.8587    2.5108 N   0  0  0  0  0  0  0  0  0  0  0  0
    3.3690   -1.7195    2.1336 C   0  0  0  0  0  0  0  0  0  0  0  0
    2.9608   -2.6809    2.8150 O   0  0  0  0  0  0  0  0  0  0  0  0
    2.8731   -1.2683    0.8407 C   0  0  0  0  0  0  0  0  0  0  0  0
    2.6229   -2.2597   -0.1815 C   0  0  0  0  0  0  0  0  0  0  0  0
    1.4058   -2.3694   -0.6517 N   0  0  0  0  0  0  0  0  0  0  0  0
    0.3178   -1.5714   -0.2130 C   0  0  0  0  0  0  0  0  0  0  0  0
   -0.6315   -2.1940    0.6121 C   0  0  0  0  0  0  0  0  0  0  0  0
   -1.7058   -1.4800    1.0820 C   0  0  0  0  0  0  0  0  0  0  0  0
   -1.8245   -0.1434    0.7234 C   0  0  0  0  0  0  0  0  0  0  0  0
   -2.9502    0.5320    1.2570 N   0  0  0  0  0  0  0  0  0  0  0  0
   -2.7687    1.1238    2.5727 C   0  0  0  0  0  0  0  0  0  0  0  0
   -4.1994    0.6667    0.6231 C   0  0  0  0  0  0  0  0  0  0  0  0
   -5.1355    1.2549    1.2187 O   0  0  0  0  0  0  0  0  0  0  0  0
   -4.3794    0.1085   -0.7411 C   0  0  0  0  0  0  0  0  0  0  0  0
   -5.7215    0.3260   -1.2402 N   0  0  0  0  0  0  0  0  0  0  0  0
   -6.7164   -0.4232   -0.5745 C   0  0  0  0  0  0  0  0  0  0  0  0
   -7.7984    0.2921    0.1298 C   0  0  0  0  0  0  0  0  0  0  0  0
   -8.0911    1.6027   -0.3562 N   0  0  0  0  0  0  0  0  0  0  0  0
   -8.0204    2.6289    0.6335 C   0  0  0  0  0  0  0  0  0  0  0  0
   -7.4699    1.9247   -1.6007 C   0  0  0  0  0  0  0  0  0  0  0  0
   -5.9976    1.7108   -1.4906 C   0  0  0  0  0  0  0  0  0  0  0  0
   -0.9100    0.4748   -0.0781 C   0  0  0  0  0  0  0  0  0  0  0  0
    0.1724   -0.2453   -0.5519 C   0  0  0  0  0  0  0  0  0  0  0  0
    3.6150   -3.1705   -0.7494 C   0  0  0  0  0  0  0  0  0  0  0  0
    3.2328   -4.0722   -1.7527 C   0  0  0  0  0  0  0  0  0  0  0  0
    4.1269   -4.9499   -2.3021 C   0  0  0  0  0  0  0  0  0  0  0  0
    5.4373   -4.9364   -1.8476 C   0  0  0  0  0  0  0  0  0  0  0  0
    5.8219   -4.0596   -0.8678 C   0  0  0  0  0  0  0  0  0  0  0  0
    4.9144   -3.1679   -0.3087 C   0  0  0  0  0  0  0  0  0  0  0  0
    8.8460    4.1989   -1.7959 H   0  0  0  0  0  0  0  0  0  0  0  0
    8.3281    4.8395   -0.1995 H   0  0  0  0  0  0  0  0  0  0  0  0
    7.5901    5.4793   -1.7432 H   0  0  0  0  0  0  0  0  0  0  0  0
    4.9765    2.1222   -1.7921 H   0  0  0  0  0  0  0  0  0  0  0  0
    3.2725    0.3932   -1.5885 H   0  0  0  0  0  0  0  0  0  0  0  0
    6.3695    1.2930    2.1056 H   0  0  0  0  0  0  0  0  0  0  0  0
    4.9373   -0.8877    3.4061 H   0  0  0  0  0  0  0  0  0  0  0  0
    1.9271   -0.6682    1.0833 H   0  0  0  0  0  0  0  0  0  0  0  0
   -0.5066   -3.2268    0.8694 H   0  0  0  0  0  0  0  0  0  0  0  0
   -2.4283   -1.9836    1.7201 H   0  0  0  0  0  0  0  0  0  0  0  0
   -1.7322    1.1459    2.9015 H   0  0  0  0  0  0  0  0  0  0  0  0
   -3.3826    0.5374    3.2698 H   0  0  0  0  0  0  0  0  0  0  0  0
   -3.1789    2.1500    2.5173 H   0  0  0  0  0  0  0  0  0  0  0  0
   -3.6951    0.6656   -1.4097 H   0  0  0  0  0  0  0  0  0  0  0  0
   -4.1579   -0.9525   -0.7943 H   0  0  0  0  0  0  0  0  0  0  0  0
   -6.2229   -1.1159    0.1717 H   0  0  0  0  0  0  0  0  0  0  0  0
   -7.1428   -1.1438   -1.3361 H   0  0  0  0  0  0  0  0  0  0  0  0
   -8.7503   -0.3057   -0.0134 H   0  0  0  0  0  0  0  0  0  0  0  0
   -7.6980    0.3021    1.2552 H   0  0  0  0  0  0  0  0  0  0  0  0
   -7.1178    3.2518    0.6074 H   0  0  0  0  0  0  0  0  0  0  0  0
   -8.8881    3.3419    0.6019 H   0  0  0  0  0  0  0  0  0  0  0  0
   -8.0561    2.1587    1.6585 H   0  0  0  0  0  0  0  0  0  0  0  0
   -7.6822    2.9990   -1.8109 H   0  0  0  0  0  0  0  0  0  0  0  0
   -7.8539    1.2638   -2.4051 H   0  0  0  0  0  0  0  0  0  0  0  0
   -5.4960    2.4067   -0.7907 H   0  0  0  0  0  0  0  0  0  0  0  0
   -5.5699    1.9435   -2.5086 H   0  0  0  0  0  0  0  0  0  0  0  0
   -1.0101    1.5339   -0.3611 H   0  0  0  0  0  0  0  0  0  0  0  0
    0.9228    0.2311   -1.2002 H   0  0  0  0  0  0  0  0  0  0  0  0
    2.2097   -4.0860   -2.1101 H   0  0  0  0  0  0  0  0  0  0  0  0
    3.8644   -5.6664   -3.0853 H   0  0  0  0  0  0  0  0  0  0  0  0
    6.1288   -5.6487   -2.3048 H   0  0  0  0  0  0  0  0  0  0  0  0
    6.8586   -4.0633   -0.5215 H   0  0  0  0  0  0  0  0  0  0  0  0
    5.2718   -2.5077    0.4589 H   0  0  0  0  0  0  0  0  0  0  0  0
  1  2  1  0
  2  3  1  0
  3  4  2  0
  3  5  1  0
  5  6  2  0
  6  7  1  0
  7  8  2  0
  8  9  1  0
  9 10  2  0
  9 11  1  0
 11 12  1  0
 12 13  2  0
 12 14  1  0
 14 15  1  0
 15 16  2  3
 16 17  1  0
 17 18  2  0
 18 19  1  0
 19 20  2  0
 20 21  1  0
 21 22  1  0
 21 23  1  0
 23 24  2  0
 23 25  1  0
 25 26  1  0
 26 27  1  0
 27 28  1  0
 28 29  1  0
 29 30  1  0
 29 31  1  0
 31 32  1  0
 20 33  1  0
 33 34  2  0
 15 35  1  0
 35 36  2  0
 36 37  1  0
 37 38  2  0
 38 39  1  0
 39 40  2  0
 10  5  1  0
 34 17  1  0
 40 35  1  0
 14  8  1  0
 32 26  1  0
  1 41  1  0
  1 42  1  0
  1 43  1  0
  6 44  1  0
  7 45  1  0
 10 46  1  0
 11 47  1  0
 14 48  1  0
 18 49  1  0
 19 50  1  0
 22 51  1  0
 22 52  1  0
 22 53  1  0
 25 54  1  0
 25 55  1  0
 27 56  1  0
 27 57  1  0
 28 58  1  0
 28 59  1  0
 30 60  1  0
 30 61  1  0
 30 62  1  0
 31 63  1  0
 31 64  1  0
 32 65  1  0
 32 66  1  0
 33 67  1  0
 34 68  1  0
 36 69  1  0
 37 70  1  0
 38 71  1  0
 39 72  1  0
 40 73  1  0
M  END
$$$$
