@<TRIPOS>MOLECULE
*****
 88 90 0 0 0
SMALL
GASTEIGER

@<TRIPOS>ATOM
      1 C           3.8734    1.8824   -0.2494 C.3     1  UNL1        0.1371
      2 O           4.5633    2.6642    0.6498 O.3     1  UNL1       -0.3818
      3 C           4.5955    0.6309   -0.6240 C.2     1  UNL1        0.2127
      4 O           4.7748   -0.5811   -1.2887 O.2     1  UNL1       -0.4939
      5 N           5.7073    0.1014   -0.3141 N.2     1  UNL1       -0.2521
      6 C           6.7063    0.5898    0.5763 C.3     1  UNL1        0.0515
      7 C           7.8450    1.2894   -0.1332 C.3     1  UNL1        0.0426
      8 C           8.5536    0.3979   -1.0965 C.2     1  UNL1        0.1842
      9 O           8.1731   -0.2922   -2.2133 O.2     1  UNL1       -0.4956
     10 N           9.7678    0.0289   -1.1274 N.2     1  UNL1       -0.2545
     11 C          10.7945    0.3994   -0.1991 C.3     1  UNL1        0.0490
     12 C          11.0260   -0.8226    0.6930 C.3     1  UNL1        0.0319
     13 C          11.4567   -1.9456   -0.2403 C.3     1  UNL1        0.2093
     14 N          11.7104   -3.1825    0.5063 N.pl3   1  UNL1        0.0380
     15 O          12.1061   -4.2577   -0.2536 O.co2   1  UNL1       -0.5818
     16 O          11.6299   -3.4397    1.7425 O.2     1  UNL1        0.0344
     17 C           2.4656    1.5627    0.2400 C.3     1  UNL1        0.0236
     18 C           2.5124    0.8155    1.5575 C.3     1  UNL1       -0.0549
     19 C           1.7349    2.8597    0.4690 C.3     1  UNL1       -0.0549
     20 C           1.7423    0.7230   -0.7696 C.3     1  UNL1        0.0670
     21 O           0.4569    0.3759   -0.4243 O.3     1  UNL1       -0.2857
     22 P          -0.2605   -0.6413   -1.5463 P.3     1  UNL1        0.4834
     23 O           0.2352   -0.2465   -3.1283 O.3     1  UNL1       -0.3022
     24 O           0.1502   -2.0565   -1.1890 O.2     1  UNL1       -0.2269
     25 O          -1.9334   -0.4541   -1.4831 O.3     1  UNL1       -0.1861
     26 P          -2.4264    1.1263   -1.2479 P.3     1  UNL1        0.4835
     27 O          -1.0961    2.0930   -0.9243 O.3     1  UNL1       -0.3022
     28 O          -3.0636    1.6612   -2.5255 O.2     1  UNL1       -0.2269
     29 O          -3.6191    1.2226   -0.0531 O.3     1  UNL1       -0.2837
     30 C          -4.1645   -0.0783    0.0434 C.3     1  UNL1        0.0879
     31 C          -5.2052   -0.0233    1.1331 C.3     1  UNL1        0.1142
     32 O          -6.2123    0.8956    0.8362 O.3     1  UNL1       -0.3456
     33 C          -7.2882    0.5931    1.6363 C.3     1  UNL1        0.1667
     34 N          -8.5621    0.8149    0.9467 N.ar    1  UNL1       -0.2855
     35 C          -9.6955    1.3688    1.4150 C.ar    1  UNL1        0.1004
     36 N         -10.6442    1.3920    0.4689 N.ar    1  UNL1       -0.2306
     37 C         -10.1314    0.8393   -0.6600 C.ar    1  UNL1        0.1473
     38 C         -10.6723    0.6152   -1.9210 C.ar    1  UNL1        0.1472
     39 N         -12.0093    0.9829   -2.2360 N.pl3   1  UNL1       -0.3413
     40 N          -9.8214    0.0331   -2.7778 N.ar    1  UNL1       -0.2188
     41 C          -8.5634   -0.3195   -2.5009 C.ar    1  UNL1        0.1205
     42 N          -8.0581   -0.0898   -1.2612 N.ar    1  UNL1       -0.2159
     43 C          -8.8182    0.4850   -0.3293 C.ar    1  UNL1        0.1674
     44 C          -7.1785   -0.8339    2.0689 C.3     1  UNL1        0.1294
     45 O          -6.7559   -0.8551    3.3974 O.3     1  UNL1       -0.3846
     46 C          -5.9962   -1.3120    1.2218 C.3     1  UNL1        0.1283
     47 O          -5.2975   -2.3389    1.8464 O.3     1  UNL1       -0.2780
     48 P          -5.3145   -3.6348    0.7293 P.3     1  UNL1        0.4728
     49 O          -6.9120   -3.9688    0.2750 O.3     1  UNL1       -0.3026
     50 O          -4.6663   -5.0337    1.4191 O.3     1  UNL1       -0.3026
     51 O          -4.5490   -3.2659   -0.5226 O.2     1  UNL1       -0.2275
     52 H           3.7463    2.4973   -1.1741 H       1  UNL1        0.0697
     53 H           4.5886    3.6205    0.3964 H       1  UNL1        0.2105
     54 H           4.3127   -0.8134   -2.1490 H       1  UNL1        0.2935
     55 H           7.1506   -0.2852    1.1098 H       1  UNL1        0.0514
     56 H           6.3353    1.2836    1.3448 H       1  UNL1        0.0514
     57 H           7.5717    2.2285   -0.6106 H       1  UNL1        0.0377
     58 H           8.5897    1.5240    0.6512 H       1  UNL1        0.0377
     59 H           7.9856   -1.2820   -2.2504 H       1  UNL1        0.2934
     60 H          11.7517    0.5380   -0.7416 H       1  UNL1        0.0511
     61 H          10.5960    1.3028    0.3928 H       1  UNL1        0.0511
     62 H          10.0891   -1.0542    1.2115 H       1  UNL1        0.0346
     63 H          11.8729   -0.5715    1.3566 H       1  UNL1        0.0346
     64 H          12.3379   -1.6221   -0.8117 H       1  UNL1        0.1088
     65 H          10.6294   -2.1912   -0.9439 H       1  UNL1        0.1088
     66 H           3.2709    1.2778    2.2310 H       1  UNL1        0.0237
     67 H           2.7695   -0.2307    1.3235 H       1  UNL1        0.0237
     68 H           1.5069    0.8464    2.0100 H       1  UNL1        0.0237
     69 H           0.7802    2.6957    1.0160 H       1  UNL1        0.0237
     70 H           1.4318    3.3433   -0.5053 H       1  UNL1        0.0237
     71 H           2.3827    3.6065    0.9896 H       1  UNL1        0.0237
     72 H           2.3328   -0.2153   -0.9176 H       1  UNL1        0.0572
     73 H           1.6884    1.2633   -1.7392 H       1  UNL1        0.0572
     74 H          -0.1960   -0.8132   -3.7860 H       1  UNL1        0.2220
     75 H          -1.3466    2.9498   -0.5105 H       1  UNL1        0.2220
     76 H          -3.3487   -0.7442    0.4012 H       1  UNL1        0.0592
     77 H          -4.5697   -0.3725   -0.9239 H       1  UNL1        0.0592
     78 H          -4.7881    0.2258    2.1091 H       1  UNL1        0.0647
     79 H          -7.2604    1.3140    2.4982 H       1  UNL1        0.0866
     80 H          -9.7224    1.7185    2.4498 H       1  UNL1        0.1030
     81 H         -12.7733    0.8354   -1.5178 H       1  UNL1        0.1438
     82 H         -12.2153    1.3932   -3.1719 H       1  UNL1        0.1438
     83 H          -7.9342   -0.7924   -3.2613 H       1  UNL1        0.1048
     84 H          -8.0786   -1.4469    1.9020 H       1  UNL1        0.0666
     85 H          -6.5176    0.0600    3.7331 H       1  UNL1        0.2101
     86 H          -6.3134   -1.6799    0.2435 H       1  UNL1        0.0656
     87 H          -7.0539   -3.8577   -0.6984 H       1  UNL1        0.2220
     88 H          -5.2682   -5.3220    2.1303 H       1  UNL1        0.2220
@<TRIPOS>UNITY_ATOM_ATTR
14 1
charge 1
15 1
charge -1
@<TRIPOS>BOND
     1     1     2    1
     2     1     3    1
     3     3     4    1
     4     3     5    2
     5     5     6    1
     6     6     7    1
     7     7     8    1
     8     8     9    1
     9     8    10    2
    10    10    11    1
    11    11    12    1
    12    12    13    1
    13    13    14    1
    14    14    15    1
    15    14    16    2
    16     1    17    1
    17    17    18    1
    18    17    19    1
    19    17    20    1
    20    20    21    1
    21    21    22    1
    22    22    23    1
    23    22    24    2
    24    22    25    1
    25    25    26    1
    26    26    27    1
    27    26    28    2
    28    26    29    1
    29    29    30    1
    30    30    31    1
    31    31    32    1
    32    32    33    1
    33    33    34    1
    34    34    35   ar
    35    35    36   ar
    36    36    37   ar
    37    37    38   ar
    38    38    39    1
    39    38    40   ar
    40    40    41   ar
    41    41    42   ar
    42    42    43   ar
    43    33    44    1
    44    44    45    1
    45    44    46    1
    46    46    47    1
    47    47    48    1
    48    48    49    1
    49    48    50    1
    50    48    51    2
    51    46    31    1
    52    43    34   ar
    53    43    37   ar
    54     1    52    1
    55     2    53    1
    56     4    54    1
    57     6    55    1
    58     6    56    1
    59     7    57    1
    60     7    58    1
    61     9    59    1
    62    11    60    1
    63    11    61    1
    64    12    62    1
    65    12    63    1
    66    13    64    1
    67    13    65    1
    68    18    66    1
    69    18    67    1
    70    18    68    1
    71    19    69    1
    72    19    70    1
    73    19    71    1
    74    20    72    1
    75    20    73    1
    76    23    74    1
    77    27    75    1
    78    30    76    1
    79    30    77    1
    80    31    78    1
    81    33    79    1
    82    35    80    1
    83    39    81    1
    84    39    82    1
    85    41    83    1
    86    44    84    1
    87    45    85    1
    88    46    86    1
    89    49    87    1
    90    50    88    1
