@<TRIPOS>MOLECULE
*****
 29 31 0 0 0
SMALL
GASTEIGER

@<TRIPOS>ATOM
      1 O          -5.3080   -0.8020   -0.5210 O.2     1  UNL1       -0.2755
      2 C          -4.1646   -0.4958   -0.1047 C.2     1  UNL1        0.2175
      3 C          -3.8052    0.9069    0.1953 C.3     1  UNL1        0.0283
      4 C          -2.5008    1.3002   -0.4190 C.3     1  UNL1       -0.0176
      5 C          -1.4633    0.2265   -0.2082 C.ar    1  UNL1       -0.0251
      6 C          -0.1197    0.5769   -0.2562 C.ar    1  UNL1       -0.0490
      7 C           0.9009   -0.3271   -0.0785 C.ar    1  UNL1       -0.0161
      8 C           2.3125    0.0039   -0.1222 C.ar    1  UNL1        0.0002
      9 C           2.8195    1.2287    0.2817 C.ar    1  UNL1       -0.0512
     10 C           4.1732    1.4418    0.2001 C.ar    1  UNL1       -0.0430
     11 C           5.0683    0.4979   -0.2657 C.ar    1  UNL1        0.0276
     12 N           4.5510   -0.6816   -0.6512 N.ar    1  UNL1       -0.2627
     13 C           3.2523   -0.9175   -0.5847 C.ar    1  UNL1        0.0352
     14 C           0.5255   -1.6323    0.1557 C.ar    1  UNL1       -0.0522
     15 C          -0.8035   -2.0101    0.2088 C.ar    1  UNL1       -0.0396
     16 C          -1.8069   -1.0840    0.0273 C.ar    1  UNL1        0.0366
     17 N          -3.1846   -1.4989    0.0884 N.am    1  UNL1       -0.2852
     18 H          -3.7585    1.0079    1.3003 H       1  UNL1        0.0362
     19 H          -4.5895    1.6079   -0.1619 H       1  UNL1        0.0362
     20 H          -2.1663    2.2494    0.0752 H       1  UNL1        0.0318
     21 H          -2.6189    1.5354   -1.4955 H       1  UNL1        0.0318
     22 H           0.1640    1.6091   -0.4415 H       1  UNL1        0.0627
     23 H           2.1262    1.9881    0.6533 H       1  UNL1        0.0625
     24 H           4.5975    2.3884    0.5089 H       1  UNL1        0.0633
     25 H           6.1289    0.6561   -0.3334 H       1  UNL1        0.0829
     26 H           2.8697   -1.8815   -0.9051 H       1  UNL1        0.0836
     27 H           1.2918   -2.3746    0.3007 H       1  UNL1        0.0624
     28 H          -1.0682   -3.0302    0.3925 H       1  UNL1        0.0636
     29 H          -3.4232   -2.4894    0.2658 H       1  UNL1        0.1548
@<TRIPOS>BOND
     1     1     2    2
     2     2     3    1
     3     3     4    1
     4     4     5    1
     5     5     6   ar
     6     6     7   ar
     7     7     8    1
     8     8     9   ar
     9     9    10   ar
    10    10    11   ar
    11    11    12   ar
    12    12    13   ar
    13     7    14   ar
    14    14    15   ar
    15    15    16   ar
    16    16    17    1
    17    17     2   am
    18    16     5   ar
    19    13     8   ar
    20     3    18    1
    21     3    19    1
    22     4    20    1
    23     4    21    1
    24     6    22    1
    25     9    23    1
    26    10    24    1
    27    11    25    1
    28    13    26    1
    29    14    27    1
    30    15    28    1
    31    17    29    1
