
     RDKit          3D

 29 31  0  0  0  0  0  0  0  0999 V2000
   -5.3080   -0.8020   -0.5210 O   0  0  0  0  0  0  0  0  0  0  0  0
   -4.1646   -0.4958   -0.1047 C   0  0  0  0  0  0  0  0  0  0  0  0
   -3.8052    0.9069    0.1953 C   0  0  0  0  0  0  0  0  0  0  0  0
   -2.5008    1.3002   -0.4190 C   0  0  0  0  0  0  0  0  0  0  0  0
   -1.4633    0.2265   -0.2082 C   0  0  0  0  0  0  0  0  0  0  0  0
   -0.1197    0.5769   -0.2562 C   0  0  0  0  0  0  0  0  0  0  0  0
    0.9009   -0.3271   -0.0785 C   0  0  0  0  0  0  0  0  0  0  0  0
    2.3125    0.0039   -0.1222 C   0  0  0  0  0  0  0  0  0  0  0  0
    2.8195    1.2287    0.2817 C   0  0  0  0  0  0  0  0  0  0  0  0
    4.1732    1.4418    0.2001 C   0  0  0  0  0  0  0  0  0  0  0  0
    5.0683    0.4979   -0.2657 C   0  0  0  0  0  0  0  0  0  0  0  0
    4.5510   -0.6816   -0.6512 N   0  0  0  0  0  0  0  0  0  0  0  0
    3.2523   -0.9175   -0.5847 C   0  0  0  0  0  0  0  0  0  0  0  0
    0.5255   -1.6323    0.1557 C   0  0  0  0  0  0  0  0  0  0  0  0
   -0.8035   -2.0101    0.2088 C   0  0  0  0  0  0  0  0  0  0  0  0
   -1.8069   -1.0840    0.0273 C   0  0  0  0  0  0  0  0  0  0  0  0
   -3.1846   -1.4989    0.0884 N   0  0  0  0  0  0  0  0  0  0  0  0
   -3.7585    1.0079    1.3003 H   0  0  0  0  0  0  0  0  0  0  0  0
   -4.5895    1.6079   -0.1619 H   0  0  0  0  0  0  0  0  0  0  0  0
   -2.1663    2.2494    0.0752 H   0  0  0  0  0  0  0  0  0  0  0  0
   -2.6189    1.5354   -1.4955 H   0  0  0  0  0  0  0  0  0  0  0  0
    0.1640    1.6091   -0.4415 H   0  0  0  0  0  0  0  0  0  0  0  0
    2.1262    1.9881    0.6533 H   0  0  0  0  0  0  0  0  0  0  0  0
    4.5975    2.3884    0.5089 H   0  0  0  0  0  0  0  0  0  0  0  0
    6.1289    0.6561   -0.3334 H   0  0  0  0  0  0  0  0  0  0  0  0
    2.8697   -1.8815   -0.9051 H   0  0  0  0  0  0  0  0  0  0  0  0
    1.2918   -2.3746    0.3007 H   0  0  0  0  0  0  0  0  0  0  0  0
   -1.0682   -3.0302    0.3925 H   0  0  0  0  0  0  0  0  0  0  0  0
   -3.4232   -2.4894    0.2658 H   0  0  0  0  0  0  0  0  0  0  0  0
  1  2  2  0
  2  3  1  0
  3  4  1  0
  4  5  1  0
  5  6  2  0
  6  7  1  0
  7  8  1  0
  8  9  2  0
  9 10  1  0
 10 11  2  0
 11 12  1  0
 12 13  2  0
  7 14  2  0
 14 15  1  0
 15 16  2  0
 16 17  1  0
 17  2  1  0
 16  5  1  0
 13  8  1  0
  3 18  1  0
  3 19  1  0
  4 20  1  0
  4 21  1  0
  6 22  1  0
  9 23  1  0
 10 24  1  0
 11 25  1  0
 13 26  1  0
 14 27  1  0
 15 28  1  0
 17 29  1  0
M  END
$$$$
