@<TRIPOS>MOLECULE
*****
 72 73 0 0 0
SMALL
GASTEIGER

@<TRIPOS>ATOM
      1 C          -4.7812    2.9058   -1.1304 C.3     0  UNK0       -0.0253
      2 C          -3.2846    3.0279   -1.2067 C.3     0  UNK0        0.1068
      3 C          -2.8224    3.5053    0.1814 C.3     0  UNK0       -0.0253
      4 C          -2.7891    4.0363   -2.2049 C.3     0  UNK0       -0.0253
      5 O          -2.6508    1.7520   -1.4383 O.3     0  UNK0       -0.4447
      6 C          -2.8440    0.7734   -0.4856 C.2     0  UNK0        0.4014
      7 O          -3.5372    1.0131    0.5237 O.2     0  UNK0       -0.2264
      8 N          -2.2643   -0.5578   -0.5994 N.am    1  PHE1       -0.2695
      9 CA         -2.5596   -1.4620    0.4870 C.3     1  PHE1        0.1066
     10 CB         -3.0939   -2.7871   -0.0648 C.3     1  PHE1       -0.0005
     11 CG         -3.3852   -3.7013    1.0801 C.ar    1  PHE1       -0.0451
     12 CD1        -2.4476   -4.5322    1.6129 C.ar    1  PHE1       -0.0585
     13 CE1        -2.7485   -5.3698    2.6651 C.ar    1  PHE1       -0.0615
     14 CZ         -4.0073   -5.4129    3.2312 C.ar    1  PHE1       -0.0617
     15 CE2        -4.9629   -4.5764    2.7012 C.ar    1  PHE1       -0.0615
     16 CD2        -4.6534   -3.7367    1.6439 C.ar    1  PHE1       -0.0585
     17 C          -1.4400   -1.6671    1.3919 C.2     1  PHE1        0.2376
     18 O          -1.7704   -1.8923    2.6362 O.2     1  PHE1       -0.2735
     19 N          -0.0385   -1.6644    1.1516 N.am    2  UNK2       -0.2783
     20 C           0.9009   -1.6641    2.2485 C.3     2  UNK2        0.0619
     21 S           2.3410   -2.4847    1.5433 S.3     2  UNK2       -0.1393
     22 C           1.5794   -2.9197   -0.0325 C.3     2  UNK2        0.0224
     23 C           0.5935   -1.7371   -0.1046 C.3     2  UNK2        0.1120
     24 C           1.3231   -0.5009   -0.4237 C.2     2  UNK2        0.2349
     25 O           1.2127    0.5113    0.3122 O.2     2  UNK2       -0.2737
     26 N           2.1586   -0.4114   -1.5544 N.am    3  ARG3       -0.3044
     27 CA          2.9265    0.6952   -2.0158 C.3     3  ARG3        0.0786
     28 C           2.6204    1.0666   -3.4279 C.2     3  ARG3        0.1404
     29 O           3.1656    2.0207   -3.9426 O.2     3  ARG3       -0.2991
     30 CB          4.4200    0.4207   -1.8486 C.3     3  ARG3       -0.0250
     31 CG          4.8116    0.2200   -0.4186 C.3     3  ARG3       -0.0202
     32 CD          4.6024    1.4446    0.4500 C.3     3  ARG3        0.0647
     33 NE          5.4289    2.5196   -0.1038 N.pl3   3  ARG3       -0.2761
     34 CZ          5.5253    3.8141    0.4631 C.cat   3  ARG3        0.3762
     35 NH1         4.9590    4.0277    1.6165 N.pl3   3  ARG3       -0.1298
     36 NH2         6.2271    4.8687   -0.2032 N.pl3   3  ARG3       -0.2893
     37 H          -5.2677    3.8581   -1.4718 H       0  UNK0        0.0268
     38 H          -5.1244    2.6560   -0.1071 H       0  UNK0        0.0268
     39 H          -5.0922    2.0720   -1.7904 H       0  UNK0        0.0268
     40 H          -3.5396    3.2739    0.9770 H       0  UNK0        0.0268
     41 H          -2.6763    4.5965    0.1329 H       0  UNK0        0.0268
     42 H          -1.8112    3.0692    0.3622 H       0  UNK0        0.0268
     43 H          -1.6794    3.8902   -2.2837 H       0  UNK0        0.0268
     44 H          -3.2138    3.7474   -3.1774 H       0  UNK0        0.0268
     45 H          -2.9407    5.0774   -1.9147 H       0  UNK0        0.0268
     46 H          -1.7216   -0.7388   -1.4661 H       1  PHE1        0.1528
     47 HA         -3.4103   -1.0464    1.1075 H       1  PHE1        0.0599
     48 HB1        -4.0712   -2.5610   -0.5333 H       1  PHE1        0.0336
     49 HB2        -2.3848   -3.2718   -0.7421 H       1  PHE1        0.0336
     50 HD1        -1.4353   -4.5515    1.2295 H       1  PHE1        0.0620
     51 HE1        -2.0073   -6.0289    3.0818 H       1  PHE1        0.0618
     52 HZ         -4.2562   -6.0560    4.0562 H       1  PHE1        0.0618
     53 HE2        -5.9580   -4.6055    3.1486 H       1  PHE1        0.0618
     54 HD2        -5.4500   -3.1157    1.2818 H       1  PHE1        0.0620
     55 H           0.4936   -2.2073    3.1325 H       2  UNK2        0.0580
     56 H           1.1471   -0.6063    2.5495 H       2  UNK2        0.0580
     57 H           2.2573   -2.9528   -0.8745 H       2  UNK2        0.0400
     58 H           0.9976   -3.8702    0.0317 H       2  UNK2        0.0400
     59 H          -0.1328   -2.0071   -0.9370 H       2  UNK2        0.0605
     60 H           2.2230   -1.2992   -2.1396 H       3  ARG3        0.1494
     61 HA          2.7325    1.5832   -1.3879 H       3  ARG3        0.0574
     62 H           1.9150    0.5102   -4.0354 H       3  ARG3        0.1046
     63 HB1         5.0275    1.1841   -2.3481 H       3  ARG3        0.0288
     64 HB2         4.5854   -0.5686   -2.3497 H       3  ARG3        0.0288
     65 HG1         5.8866   -0.0682   -0.4101 H       3  ARG3        0.0296
     66 HG2         4.2471   -0.6449    0.0077 H       3  ARG3        0.0296
     67 HD1         4.9744    1.2465    1.4748 H       3  ARG3        0.0655
     68 HD2         3.5782    1.8182    0.4283 H       3  ARG3        0.0655
     69 HE          5.9785    2.3291   -0.9573 H       3  ARG3        0.2579
     70 HH1         4.4496    3.2606    2.1036 H       3  ARG3        0.3062
     71 HH21        6.4266    5.7559    0.2742 H       3  ARG3        0.2546
     72 HH22        6.5373    4.7264   -1.1875 H       3  ARG3        0.2546
@<TRIPOS>BOND
     1     1     2    1
     2     2     3    1
     3     2     4    1
     4     2     5    1
     5     5     6    1
     6     6     7    2
     7     6     8   am
     8     8     9    1
     9     9    10    1
    10    10    11    1
    11    11    12   ar
    12    12    13   ar
    13    13    14   ar
    14    14    15   ar
    15    15    16   ar
    16     9    17    1
    17    17    18    2
    18    17    19   am
    19    19    20    1
    20    20    21    1
    21    21    22    1
    22    22    23    1
    23    23    24    1
    24    24    25    2
    25    24    26   am
    26    26    27    1
    27    27    28    1
    28    28    29    2
    29    27    30    1
    30    30    31    1
    31    31    32    1
    32    32    33    1
    33    33    34    1
    34    34    35    2
    35    34    36    1
    36    16    11   ar
    37    23    19    1
    38     1    37    1
    39     1    38    1
    40     1    39    1
    41     3    40    1
    42     3    41    1
    43     3    42    1
    44     4    43    1
    45     4    44    1
    46     4    45    1
    47     8    46    1
    48     9    47    1
    49    10    48    1
    50    10    49    1
    51    12    50    1
    52    13    51    1
    53    14    52    1
    54    15    53    1
    55    16    54    1
    56    20    55    1
    57    20    56    1
    58    22    57    1
    59    22    58    1
    60    23    59    1
    61    26    60    1
    62    27    61    1
    63    28    62    1
    64    30    63    1
    65    30    64    1
    66    31    65    1
    67    31    66    1
    68    32    67    1
    69    32    68    1
    70    33    69    1
    71    35    70    1
    72    36    71    1
    73    36    72    1
