
     RDKit          3D

 33 35  0  0  0  0  0  0  0  0999 V2000
    5.2422    0.1369    0.5446 N   0  0  0  0  0  0  0  0  0  0  0  0
    4.0383    0.6131   -0.0230 C   0  0  0  0  0  0  0  0  0  0  0  0
    3.9439    1.6290   -0.8720 N   0  0  0  0  0  0  0  0  0  0  0  0
    2.7592    2.0247   -1.3707 C   0  0  0  0  0  0  0  0  0  0  0  0
    1.6239    1.3967   -1.0206 N   0  0  0  0  0  0  0  0  0  0  0  0
    1.6523    0.3462   -0.1529 C   0  0  0  0  0  0  0  0  0  0  0  0
    2.8713   -0.0441    0.3464 C   0  0  0  0  0  0  0  0  0  0  0  0
    2.6286   -1.1041    1.1823 C   0  0  0  0  0  0  0  0  0  0  0  0
    4.0750   -2.1887    2.2856 I   0  0  0  0  0  0  0  0  0  0  0  0
    1.2689   -1.3151    1.1567 C   0  0  0  0  0  0  0  0  0  0  0  0
    0.6702   -0.4308    0.3421 N   0  0  0  0  0  0  0  0  0  0  0  0
   -0.7132   -0.2639    0.0024 C   0  0  2  0  0  0  0  0  0  0  0  0
   -1.3544    0.7113    0.7662 O   0  0  0  0  0  0  0  0  0  0  0  0
   -2.6751    0.5348    0.3498 C   0  0  2  0  0  0  0  0  0  0  0  0
   -3.6322    1.4210    1.0975 C   0  0  0  0  0  0  0  0  0  0  0  0
   -3.2281    2.7509    0.8439 O   0  0  0  0  0  0  0  0  0  0  0  0
   -2.8967   -0.9238    0.5727 C   0  0  1  0  0  0  0  0  0  0  0  0
   -3.9004   -1.3742   -0.2597 O   0  0  0  0  0  0  0  0  0  0  0  0
   -1.5325   -1.5141    0.1970 C   0  0  1  0  0  0  0  0  0  0  0  0
   -1.7036   -2.1532   -1.0308 O   0  0  0  0  0  0  0  0  0  0  0  0
    5.6831   -0.7099    0.1378 H   0  0  0  0  0  0  0  0  0  0  0  0
    5.6599    0.6381    1.3508 H   0  0  0  0  0  0  0  0  0  0  0  0
    2.7032    2.8695   -2.0734 H   0  0  0  0  0  0  0  0  0  0  0  0
    0.7662   -2.0774    1.7097 H   0  0  0  0  0  0  0  0  0  0  0  0
   -0.8542    0.0581   -1.0710 H   0  0  0  0  0  0  0  0  0  0  0  0
   -2.7426    0.7470   -0.7310 H   0  0  0  0  0  0  0  0  0  0  0  0
   -4.6267    1.3066    0.6176 H   0  0  0  0  0  0  0  0  0  0  0  0
   -3.6724    1.2068    2.1639 H   0  0  0  0  0  0  0  0  0  0  0  0
   -3.0597    2.7763   -0.1477 H   0  0  0  0  0  0  0  0  0  0  0  0
   -3.0670   -1.1706    1.6345 H   0  0  0  0  0  0  0  0  0  0  0  0
   -3.8157   -0.9202   -1.1338 H   0  0  0  0  0  0  0  0  0  0  0  0
   -1.1454   -2.1795    0.9833 H   0  0  0  0  0  0  0  0  0  0  0  0
   -0.9662   -2.7974   -1.2022 H   0  0  0  0  0  0  0  0  0  0  0  0
  1  2  1  0
  2  3  2  0
  3  4  1  0
  4  5  2  0
  5  6  1  0
  6  7  2  0
  7  8  1  0
  8  9  1  0
  8 10  2  0
 10 11  1  0
 11 12  1  0
 12 13  1  0
 13 14  1  0
 14 15  1  0
 15 16  1  0
 14 17  1  0
 17 18  1  0
 17 19  1  0
 19 20  1  0
  7  2  1  0
 19 12  1  0
 11  6  1  0
  1 21  1  0
  1 22  1  0
  4 23  1  0
 10 24  1  0
 12 25  1  6
 14 26  1  6
 15 27  1  0
 15 28  1  0
 16 29  1  0
 17 30  1  1
 18 31  1  0
 19 32  1  1
 20 33  1  0
M  END
$$$$
