@<TRIPOS>MOLECULE
*****
 33 35 0 0 0
SMALL
GASTEIGER

@<TRIPOS>ATOM
      1 N           5.2422    0.1369    0.5446 N.pl3   1  UNL1       -0.3425
      2 C           4.0383    0.6131   -0.0230 C.ar    1  UNL1        0.1297
      3 N           3.9439    1.6290   -0.8720 N.ar    1  UNL1       -0.2204
      4 C           2.7592    2.0247   -1.3707 C.ar    1  UNL1        0.1204
      5 N           1.6239    1.3967   -1.0206 N.ar    1  UNL1       -0.2175
      6 C           1.6523    0.3462   -0.1529 C.ar    1  UNL1        0.1488
      7 C           2.8713   -0.0441    0.3464 C.ar    1  UNL1        0.0715
      8 C           2.6286   -1.1041    1.1823 C.ar    1  UNL1        0.0435
      9 I           4.0750   -2.1887    2.2856 I       1  UNL1       -0.0415
     10 C           1.2689   -1.3151    1.1567 C.ar    1  UNL1        0.0229
     11 N           0.6702   -0.4308    0.3421 N.ar    1  UNL1       -0.3020
     12 C1*        -0.7132   -0.2639    0.0024 C.3     1  UNL1        0.1655
     13 O4*        -1.3544    0.7113    0.7662 O.3     1  UNL1       -0.3457
     14 C4*        -2.6751    0.5348    0.3498 C.3     1  UNL1        0.1126
     15 C5*        -3.6322    1.4210    1.0975 C.3     1  UNL1        0.0730
     16 O5*        -3.2281    2.7509    0.8439 O.3     1  UNL1       -0.3924
     17 C3*        -2.8967   -0.9238    0.5727 C.3     1  UNL1        0.1135
     18 O3*        -3.9004   -1.3742   -0.2597 O.3     1  UNL1       -0.3864
     19 C2*        -1.5325   -1.5141    0.1970 C.3     1  UNL1        0.1285
     20 O2*        -1.7036   -2.1532   -1.0308 O.3     1  UNL1       -0.3847
     21 H           5.6831   -0.7099    0.1378 H       1  UNL1        0.1437
     22 H           5.6599    0.6381    1.3508 H       1  UNL1        0.1437
     23 H           2.7032    2.8695   -2.0734 H       1  UNL1        0.1048
     24 H           0.7662   -2.0774    1.7097 H       1  UNL1        0.0821
     25 H1*        -0.8542    0.0581   -1.0710 H       1  UNL1        0.0866
     26 H4*        -2.7426    0.7470   -0.7310 H       1  UNL1        0.0647
     27 H5*1       -4.6267    1.3066    0.6176 H       1  UNL1        0.0584
     28 H5*2       -3.6724    1.2068    2.1639 H       1  UNL1        0.0584
     29 H5*        -3.0597    2.7763   -0.1477 H       1  UNL1        0.2095
     30 H3*        -3.0670   -1.1706    1.6345 H       1  UNL1        0.0647
     31 H3*        -3.8157   -0.9202   -1.1338 H       1  UNL1        0.2100
     32 H2*        -1.1454   -2.1795    0.9833 H       1  UNL1        0.0665
     33 H2*        -0.9662   -2.7974   -1.2022 H       1  UNL1        0.2101
@<TRIPOS>BOND
     1     1     2    1
     2     2     3   ar
     3     3     4   ar
     4     4     5   ar
     5     5     6   ar
     6     6     7   ar
     7     7     8   ar
     8     8     9    1
     9     8    10   ar
    10    10    11   ar
    11    11    12    1
    12    12    13    1
    13    13    14    1
    14    14    15    1
    15    15    16    1
    16    14    17    1
    17    17    18    1
    18    17    19    1
    19    19    20    1
    20     7     2   ar
    21    19    12    1
    22    11     6   ar
    23     1    21    1
    24     1    22    1
    25     4    23    1
    26    10    24    1
    27    12    25    1
    28    14    26    1
    29    15    27    1
    30    15    28    1
    31    16    29    1
    32    17    30    1
    33    18    31    1
    34    19    32    1
    35    20    33    1
