@<TRIPOS>MOLECULE
*****
 44 47 0 0 0
SMALL
GASTEIGER

@<TRIPOS>ATOM
      1 C           4.9099    1.0049    2.3146 C.3     1  UNL1        0.0125
      2 C           4.1488    0.9982    1.0215 C.2     1  UNL1        0.2152
      3 O           3.6605    2.0651    0.5651 O.2     1  UNL1       -0.2757
      4 N           3.9496   -0.1961    0.2678 N.am    1  UNL1       -0.2693
      5 C           3.2193   -0.1318   -0.9493 C.ar    1  UNL1        0.1470
      6 C           3.7037    0.0973   -2.2220 C.ar    1  UNL1        0.0701
      7 N           2.6942    0.0817   -3.1004 N.ar    1  UNL1       -0.2327
      8 C           1.5633   -0.1594   -2.3747 C.ar    1  UNL1        0.1562
      9 C           0.2489   -0.2788   -2.7596 C.ar    1  UNL1       -0.0153
     10 C          -0.7365   -0.5263   -1.8392 C.ar    1  UNL1       -0.0290
     11 C          -0.3805   -0.6530   -0.5156 C.ar    1  UNL1        0.1103
     12 C          -1.3834   -0.9059    0.5038 C.ar    1  UNL1        0.0968
     13 C          -2.3193   -0.0135    0.9490 C.ar    1  UNL1        0.0982
     14 C          -2.5556    1.3865    0.5309 C.ar    1  UNL1        0.0027
     15 C          -3.1220    1.6910   -0.6813 C.ar    1  UNL1       -0.0498
     16 C          -3.3173    3.0343   -1.0319 C.ar    1  UNL1       -0.0258
     17 C          -2.9621    4.0579   -0.2053 C.ar    1  UNL1        0.1234
     18 F          -3.1549    5.3354   -0.5535 F       1  UNL1       -0.2055
     19 C          -2.3953    3.7588    1.0089 C.ar    1  UNL1       -0.0258
     20 C          -2.1959    2.4279    1.3689 C.ar    1  UNL1       -0.0498
     21 N          -3.0367   -0.6726    1.8994 N.ar    1  UNL1       -0.2351
     22 C          -2.5805   -1.9206    2.0511 C.ar    1  UNL1        0.0973
     23 N          -1.5566   -2.0455    1.1779 N.ar    1  UNL1       -0.3229
     24 C          -0.7852   -3.2557    1.0228 C.3     1  UNL1        0.0852
     25 C          -1.4446   -4.1235   -0.0115 C.3     1  UNL1        0.2569
     26 F          -2.7350   -4.4222    0.4269 F       1  UNL1       -0.2073
     27 F          -1.4810   -3.5659   -1.2572 F       1  UNL1       -0.2073
     28 N           0.9399   -0.5260   -0.1847 N.ar    1  UNL1       -0.1618
     29 N           1.8849   -0.2879   -1.0748 N.ar    1  UNL1       -0.1983
     30 H           5.6551    0.2030    2.3545 H       1  UNL1        0.0323
     31 H           5.3979    1.9856    2.3958 H       1  UNL1        0.0323
     32 H           4.2177    0.9218    3.1849 H       1  UNL1        0.0323
     33 H           4.3509   -1.0839    0.6393 H       1  UNL1        0.1563
     34 H           4.7419    0.2623   -2.4575 H       1  UNL1        0.0865
     35 H          -0.0622   -0.1825   -3.8062 H       1  UNL1        0.0655
     36 H          -1.7811   -0.6324   -2.1033 H       1  UNL1        0.0641
     37 H          -3.4126    0.8964   -1.3416 H       1  UNL1        0.0625
     38 H          -3.7618    3.2421   -1.9866 H       1  UNL1        0.0646
     39 H          -2.0980    4.5421    1.6964 H       1  UNL1        0.0646
     40 H          -1.7474    2.1531    2.3276 H       1  UNL1        0.0625
     41 H          -2.9197   -2.7070    2.7155 H       1  UNL1        0.1029
     42 H          -0.7691   -3.7700    2.0035 H       1  UNL1        0.0548
     43 H           0.2560   -3.0025    0.7327 H       1  UNL1        0.0548
     44 H          -0.8482   -5.0824   -0.0277 H       1  UNL1        0.1037
@<TRIPOS>BOND
     1     1     2    1
     2     2     3    2
     3     2     4   am
     4     4     5    1
     5     5     6   ar
     6     6     7   ar
     7     7     8   ar
     8     8     9   ar
     9     9    10   ar
    10    10    11   ar
    11    11    12    1
    12    12    13   ar
    13    13    14    1
    14    14    15   ar
    15    15    16   ar
    16    16    17   ar
    17    17    18    1
    18    17    19   ar
    19    19    20   ar
    20    13    21   ar
    21    21    22   ar
    22    22    23   ar
    23    23    24    1
    24    24    25    1
    25    25    26    1
    26    25    27    1
    27    11    28   ar
    28    28    29   ar
    29    29     5   ar
    30    29     8   ar
    31    23    12   ar
    32    20    14   ar
    33     1    30    1
    34     1    31    1
    35     1    32    1
    36     4    33    1
    37     6    34    1
    38     9    35    1
    39    10    36    1
    40    15    37    1
    41    16    38    1
    42    19    39    1
    43    20    40    1
    44    22    41    1
    45    24    42    1
    46    24    43    1
    47    25    44    1
