@<TRIPOS>MOLECULE
*****
 68 73 0 0 0
SMALL
GASTEIGER

@<TRIPOS>ATOM
      1 O           8.3001    1.4544   -2.3421 O.2     1  UNL1       -0.2451
      2 C           8.2650    2.0115   -1.2294 C.2     1  UNL1        0.3368
      3 O           9.0290    3.1477   -1.0000 O.3     1  UNL1       -0.4771
      4 C           7.4025    1.4518   -0.1617 C.ar    1  UNL1        0.0595
      5 C           7.3676    2.0935    1.0489 C.ar    1  UNL1       -0.0458
      6 C           6.5597    1.5523    2.0357 C.ar    1  UNL1       -0.0370
      7 C           5.8123    0.4060    1.8114 C.ar    1  UNL1        0.0468
      8 N           4.9577   -0.3157    2.5795 N.ar    1  UNL1       -0.3604
      9 C           4.4865   -1.3547    1.8790 C.ar    1  UNL1        0.0060
     10 C           5.0497   -1.3015    0.6292 C.ar    1  UNL1       -0.0201
     11 C           4.8506   -2.2420   -0.5165 C.3     1  UNL1        0.0032
     12 CA          3.9585   -1.7033   -1.5916 C.3     1  UNL1        0.1245
     13 N           2.6548   -1.3778   -1.1868 N.am    1  UNL1       -0.2981
     14 C           1.3818   -1.7321   -1.6416 C.2     1  UNL1        0.2448
     15 O           1.2551   -2.5298   -2.5872 O.2     1  UNL1       -0.2702
     16 C           0.1406   -1.1962   -1.0440 C.ar    1  UNL1        0.0388
     17 C           0.0953   -0.1263   -0.1972 C.ar    1  UNL1       -0.0476
     18 C          -1.1361    0.3069    0.3098 C.ar    1  UNL1       -0.0353
     19 C          -2.3076   -0.3418   -0.0412 C.ar    1  UNL1        0.0694
     20 C          -2.2772   -1.4074   -0.8794 C.ar    1  UNL1        0.0904
     21 C          -1.0413   -1.8168   -1.3698 C.ar    1  UNL1       -0.0221
     22 N          -3.5290   -1.8084   -1.0349 N.ar    1  UNL1       -0.2274
     23 C          -4.3408   -0.9971   -0.2964 C.ar    1  UNL1        0.1451
     24 C          -5.7747   -1.1805   -0.2659 C.ar    1  UNL1        0.0551
     25 C          -6.7833   -0.5112   -0.9335 C.ar    1  UNL1       -0.0132
     26 C          -7.9912   -1.0670   -0.5707 C.ar    1  UNL1        0.0924
     27 O          -7.7517   -2.0360    0.2804 O.2     1  UNL1       -0.4703
     28 C          -6.4397   -2.1413    0.4938 C.ar    1  UNL1        0.1023
     29 N          -3.6023   -0.0726    0.3356 N.ar    1  UNL1       -0.3204
     30 C          -4.0412    1.0007    1.2055 C.3     1  UNL1        0.0365
     31 C          -4.4784    2.1901    0.3638 C.3     1  UNL1       -0.0320
     32 C          -5.3600    3.1443    1.1313 C.3     1  UNL1       -0.0512
     33 C          -6.6067    2.3362    1.4629 C.3     1  UNL1       -0.0529
     34 C          -6.3400    1.1027    2.2486 C.3     1  UNL1       -0.0512
     35 C          -4.9479    0.6233    2.2974 C.3     1  UNL1       -0.0320
     36 C           4.1979   -2.4463   -2.8204 C.2     1  UNL1        0.3256
     37 O           5.4179   -2.8370   -3.0929 O.2     1  UNL1       -0.2489
     38 OXT         3.3079   -2.8189   -3.7907 O.3     1  UNL1       -0.4793
     39 C           5.8704   -0.2095    0.5861 C.ar    1  UNL1        0.0037
     40 C           6.6702    0.3095   -0.4149 C.ar    1  UNL1       -0.0383
     41 H           9.6917    3.5193   -1.6963 H       1  UNL1        0.2954
     42 H           7.9632    2.9967    1.2042 H       1  UNL1        0.0626
     43 H           6.5276    2.0403    2.9939 H       1  UNL1        0.0638
     44 H           4.7198   -0.0741    3.5588 H       1  UNL1        0.1653
     45 H           3.7802   -2.1390    2.1808 H       1  UNL1        0.0810
     46 H           4.5752   -3.2688   -0.1950 H       1  UNL1        0.0337
     47 H           5.8728   -2.3585   -0.9841 H       1  UNL1        0.0337
     48 HA          4.4246   -0.6561   -1.8777 H       1  UNL1        0.0618
     49 H           2.6202   -0.6855   -0.3348 H       1  UNL1        0.1498
     50 H           1.0102    0.3749    0.0706 H       1  UNL1        0.0626
     51 H          -1.1191    1.1506    0.9712 H       1  UNL1        0.0639
     52 H          -1.0442   -2.6685   -2.0339 H       1  UNL1        0.0647
     53 H          -6.6024    0.3153   -1.6216 H       1  UNL1        0.0656
     54 H          -8.9740   -0.7861   -0.9021 H       1  UNL1        0.1029
     55 H          -5.9802   -2.8669    1.1565 H       1  UNL1        0.1036
     56 H          -3.0910    1.3934    1.7009 H       1  UNL1        0.0528
     57 H          -5.0831    1.7672   -0.4689 H       1  UNL1        0.0285
     58 H          -3.5888    2.7058   -0.0930 H       1  UNL1        0.0285
     59 H          -4.8784    3.5763    2.0335 H       1  UNL1        0.0266
     60 H          -5.6701    3.9439    0.4189 H       1  UNL1        0.0266
     61 H          -7.0037    2.0229    0.4476 H       1  UNL1        0.0265
     62 H          -7.3877    3.0145    1.8602 H       1  UNL1        0.0265
     63 H          -7.0441    0.3024    1.8774 H       1  UNL1        0.0266
     64 H          -6.7287    1.3097    3.2936 H       1  UNL1        0.0266
     65 H          -4.9679   -0.5073    2.3657 H       1  UNL1        0.0285
     66 H          -4.5331    0.9039    3.3166 H       1  UNL1        0.0285
     67 HXT         3.5220   -2.7039   -4.7975 H       1  UNL1        0.2951
     68 H           6.7068   -0.1824   -1.3667 H       1  UNL1        0.0632
@<TRIPOS>BOND
     1     1     2    2
     2     2     3    1
     3     2     4    1
     4     4     5   ar
     5     5     6   ar
     6     6     7   ar
     7     7     8   ar
     8     8     9   ar
     9     9    10   ar
    10    10    11    1
    11    11    12    1
    12    12    13    1
    13    13    14   am
    14    14    15    2
    15    14    16    1
    16    16    17   ar
    17    17    18   ar
    18    18    19   ar
    19    19    20   ar
    20    20    21   ar
    21    20    22   ar
    22    22    23   ar
    23    23    24    1
    24    24    25   ar
    25    25    26   ar
    26    26    27   ar
    27    27    28   ar
    28    23    29   ar
    29    29    30    1
    30    30    31    1
    31    31    32    1
    32    32    33    1
    33    33    34    1
    34    34    35    1
    35    12    36    1
    36    36    37    2
    37    36    38    1
    38    10    39   ar
    39    39    40   ar
    40    40     4   ar
    41    39     7   ar
    42    21    16   ar
    43    28    24   ar
    44    35    30    1
    45    29    19   ar
    46     3    41    1
    47     5    42    1
    48     6    43    1
    49     8    44    1
    50     9    45    1
    51    11    46    1
    52    11    47    1
    53    12    48    1
    54    13    49    1
    55    17    50    1
    56    18    51    1
    57    21    52    1
    58    25    53    1
    59    26    54    1
    60    28    55    1
    61    30    56    1
    62    31    57    1
    63    31    58    1
    64    32    59    1
    65    32    60    1
    66    33    61    1
    67    33    62    1
    68    34    63    1
    69    34    64    1
    70    35    65    1
    71    35    66    1
    72    38    67    1
    73    40    68    1
