
     RDKit          3D

 68 73  0  0  0  0  0  0  0  0999 V2000
    8.3001    1.4544   -2.3421 O   0  0  0  0  0  0  0  0  0  0  0  0
    8.2650    2.0115   -1.2294 C   0  0  0  0  0  0  0  0  0  0  0  0
    9.0290    3.1477   -1.0000 O   0  0  0  0  0  0  0  0  0  0  0  0
    7.4025    1.4518   -0.1617 C   0  0  0  0  0  0  0  0  0  0  0  0
    7.3676    2.0935    1.0489 C   0  0  0  0  0  0  0  0  0  0  0  0
    6.5597    1.5523    2.0357 C   0  0  0  0  0  0  0  0  0  0  0  0
    5.8123    0.4060    1.8114 C   0  0  0  0  0  0  0  0  0  0  0  0
    4.9577   -0.3157    2.5795 N   0  0  0  0  0  0  0  0  0  0  0  0
    4.4865   -1.3547    1.8790 C   0  0  0  0  0  0  0  0  0  0  0  0
    5.0497   -1.3015    0.6292 C   0  0  0  0  0  0  0  0  0  0  0  0
    4.8506   -2.2420   -0.5165 C   0  0  0  0  0  0  0  0  0  0  0  0
    3.9585   -1.7033   -1.5916 C   0  0  2  0  0  0  0  0  0  0  0  0
    2.6548   -1.3778   -1.1868 N   0  0  0  0  0  0  0  0  0  0  0  0
    1.3818   -1.7321   -1.6416 C   0  0  0  0  0  0  0  0  0  0  0  0
    1.2551   -2.5298   -2.5872 O   0  0  0  0  0  0  0  0  0  0  0  0
    0.1406   -1.1962   -1.0440 C   0  0  0  0  0  0  0  0  0  0  0  0
    0.0953   -0.1263   -0.1972 C   0  0  0  0  0  0  0  0  0  0  0  0
   -1.1361    0.3069    0.3098 C   0  0  0  0  0  0  0  0  0  0  0  0
   -2.3076   -0.3418   -0.0412 C   0  0  0  0  0  0  0  0  0  0  0  0
   -2.2772   -1.4074   -0.8794 C   0  0  0  0  0  0  0  0  0  0  0  0
   -1.0413   -1.8168   -1.3698 C   0  0  0  0  0  0  0  0  0  0  0  0
   -3.5290   -1.8084   -1.0349 N   0  0  0  0  0  0  0  0  0  0  0  0
   -4.3408   -0.9971   -0.2964 C   0  0  0  0  0  0  0  0  0  0  0  0
   -5.7747   -1.1805   -0.2659 C   0  0  0  0  0  0  0  0  0  0  0  0
   -6.7833   -0.5112   -0.9335 C   0  0  0  0  0  0  0  0  0  0  0  0
   -7.9912   -1.0670   -0.5707 C   0  0  0  0  0  0  0  0  0  0  0  0
   -7.7517   -2.0360    0.2804 O   0  0  0  0  0  0  0  0  0  0  0  0
   -6.4397   -2.1413    0.4938 C   0  0  0  0  0  0  0  0  0  0  0  0
   -3.6023   -0.0726    0.3356 N   0  0  0  0  0  0  0  0  0  0  0  0
   -4.0412    1.0007    1.2055 C   0  0  0  0  0  0  0  0  0  0  0  0
   -4.4784    2.1901    0.3638 C   0  0  0  0  0  0  0  0  0  0  0  0
   -5.3600    3.1443    1.1313 C   0  0  0  0  0  0  0  0  0  0  0  0
   -6.6067    2.3362    1.4629 C   0  0  0  0  0  0  0  0  0  0  0  0
   -6.3400    1.1027    2.2486 C   0  0  0  0  0  0  0  0  0  0  0  0
   -4.9479    0.6233    2.2974 C   0  0  0  0  0  0  0  0  0  0  0  0
    4.1979   -2.4463   -2.8204 C   0  0  0  0  0  0  0  0  0  0  0  0
    5.4179   -2.8370   -3.0929 O   0  0  0  0  0  0  0  0  0  0  0  0
    3.3079   -2.8189   -3.7907 O   0  0  0  0  0  0  0  0  0  0  0  0
    5.8704   -0.2095    0.5861 C   0  0  0  0  0  0  0  0  0  0  0  0
    6.6702    0.3095   -0.4149 C   0  0  0  0  0  0  0  0  0  0  0  0
    9.6917    3.5193   -1.6963 H   0  0  0  0  0  0  0  0  0  0  0  0
    7.9632    2.9967    1.2042 H   0  0  0  0  0  0  0  0  0  0  0  0
    6.5276    2.0403    2.9939 H   0  0  0  0  0  0  0  0  0  0  0  0
    4.7198   -0.0741    3.5588 H   0  0  0  0  0  0  0  0  0  0  0  0
    3.7802   -2.1390    2.1808 H   0  0  0  0  0  0  0  0  0  0  0  0
    4.5752   -3.2688   -0.1950 H   0  0  0  0  0  0  0  0  0  0  0  0
    5.8728   -2.3585   -0.9841 H   0  0  0  0  0  0  0  0  0  0  0  0
    4.4246   -0.6561   -1.8777 H   0  0  0  0  0  0  0  0  0  0  0  0
    2.6202   -0.6855   -0.3348 H   0  0  0  0  0  0  0  0  0  0  0  0
    1.0102    0.3749    0.0706 H   0  0  0  0  0  0  0  0  0  0  0  0
   -1.1191    1.1506    0.9712 H   0  0  0  0  0  0  0  0  0  0  0  0
   -1.0442   -2.6685   -2.0339 H   0  0  0  0  0  0  0  0  0  0  0  0
   -6.6024    0.3153   -1.6216 H   0  0  0  0  0  0  0  0  0  0  0  0
   -8.9740   -0.7861   -0.9021 H   0  0  0  0  0  0  0  0  0  0  0  0
   -5.9802   -2.8669    1.1565 H   0  0  0  0  0  0  0  0  0  0  0  0
   -3.0910    1.3934    1.7009 H   0  0  0  0  0  0  0  0  0  0  0  0
   -5.0831    1.7672   -0.4689 H   0  0  0  0  0  0  0  0  0  0  0  0
   -3.5888    2.7058   -0.0930 H   0  0  0  0  0  0  0  0  0  0  0  0
   -4.8784    3.5763    2.0335 H   0  0  0  0  0  0  0  0  0  0  0  0
   -5.6701    3.9439    0.4189 H   0  0  0  0  0  0  0  0  0  0  0  0
   -7.0037    2.0229    0.4476 H   0  0  0  0  0  0  0  0  0  0  0  0
   -7.3877    3.0145    1.8602 H   0  0  0  0  0  0  0  0  0  0  0  0
   -7.0441    0.3024    1.8774 H   0  0  0  0  0  0  0  0  0  0  0  0
   -6.7287    1.3097    3.2936 H   0  0  0  0  0  0  0  0  0  0  0  0
   -4.9679   -0.5073    2.3657 H   0  0  0  0  0  0  0  0  0  0  0  0
   -4.5331    0.9039    3.3166 H   0  0  0  0  0  0  0  0  0  0  0  0
    3.5220   -2.7039   -4.7975 H   0  0  0  0  0  0  0  0  0  0  0  0
    6.7068   -0.1824   -1.3667 H   0  0  0  0  0  0  0  0  0  0  0  0
  1  2  2  0
  2  3  1  0
  2  4  1  0
  4  5  2  0
  5  6  1  0
  6  7  2  0
  7  8  1  0
  8  9  1  0
  9 10  2  0
 10 11  1  0
 11 12  1  0
 12 13  1  0
 13 14  1  0
 14 15  2  0
 14 16  1  0
 16 17  2  0
 17 18  1  0
 18 19  2  0
 19 20  1  0
 20 21  2  0
 20 22  1  0
 22 23  2  0
 23 24  1  0
 24 25  1  0
 25 26  2  0
 26 27  1  0
 27 28  1  0
 23 29  1  0
 29 30  1  0
 30 31  1  0
 31 32  1  0
 32 33  1  0
 33 34  1  0
 34 35  1  0
 12 36  1  0
 36 37  2  0
 36 38  1  0
 10 39  1  0
 39 40  2  0
 40  4  1  0
 39  7  1  0
 21 16  1  0
 28 24  2  0
 35 30  1  0
 29 19  1  0
  3 41  1  0
  5 42  1  0
  6 43  1  0
  8 44  1  0
  9 45  1  0
 11 46  1  0
 11 47  1  0
 12 48  1  6
 13 49  1  0
 17 50  1  0
 18 51  1  0
 21 52  1  0
 25 53  1  0
 26 54  1  0
 28 55  1  0
 30 56  1  0
 31 57  1  0
 31 58  1  0
 32 59  1  0
 32 60  1  0
 33 61  1  0
 33 62  1  0
 34 63  1  0
 34 64  1  0
 35 65  1  0
 35 66  1  0
 38 67  1  0
 40 68  1  0
M  END
$$$$
