@<TRIPOS>MOLECULE
*****
 62 65 0 0 0
SMALL
GASTEIGER

@<TRIPOS>ATOM
      1 C          -2.4773    1.1326    0.0069 C.3     1  UNL1        0.0939
      2 N          -2.6198    0.8501    1.3989 N.3     1  UNL1       -0.3193
      3 C          -3.0882    0.1163   -0.8704 C.2     1  UNL1        0.2332
      4 O          -2.9881    0.3418   -2.1177 O.2     1  UNL1       -0.2739
      5 N          -3.8001   -1.1106   -0.8934 N.am    1  UNL1       -0.2973
      6 C          -4.1639   -1.6837   -2.1711 C.3     1  UNL1        0.0175
      7 C          -3.4407   -3.0359   -2.0898 C.3     1  UNL1       -0.0044
      8 C          -3.7288   -3.4040   -0.6481 C.3     1  UNL1        0.1180
      9 F          -4.5889   -4.4724   -0.6252 F       1  UNL1       -0.2438
     10 C          -4.3875   -2.1592   -0.0464 C.3     1  UNL1        0.0459
     11 C          -1.1050    1.5427   -0.4310 C.3     1  UNL1        0.0621
     12 C          -0.7851    2.7732    0.3390 C.2     1  UNL1        0.2204
     13 O           0.0791    3.1364    1.1746 O.2     1  UNL1       -0.2752
     14 N          -1.4822    4.0031    0.3043 N.am    1  UNL1       -0.3073
     15 C          -0.8014    4.8964    1.2227 C.3     1  UNL1        0.0028
     16 C          -2.6543    4.5238   -0.4105 C.3     1  UNL1        0.0028
     17 C          -0.0328    0.5374   -0.3895 C.3     1  UNL1       -0.0280
     18 C           1.3138    1.0678   -0.8553 C.3     1  UNL1       -0.0489
     19 C           2.4147    0.9167    0.1334 C.3     1  UNL1       -0.0445
     20 C           2.5794   -0.4662    0.6994 C.3     1  UNL1        0.0015
     21 C           1.2984   -1.2262    0.5372 C.3     1  UNL1       -0.0445
     22 C           0.1784   -0.2210    0.8678 C.3     1  UNL1       -0.0489
     23 C           3.7550   -1.1873    0.1570 C.ar    1  UNL1        0.0482
     24 C           3.8645   -1.5039   -1.1864 C.ar    1  UNL1       -0.0399
     25 C           4.9387   -2.1748   -1.7444 C.ar    1  UNL1       -0.0565
     26 C           5.9671   -2.5531   -0.9110 C.ar    1  UNL1       -0.0173
     27 C           5.8724   -2.2444    0.4317 C.ar    1  UNL1        0.1560
     28 N           6.7276   -2.4986    1.4375 N.ar    1  UNL1       -0.2149
     29 C           6.1680   -1.9898    2.5538 C.ar    1  UNL1        0.1390
     30 N           4.9963   -1.4391    2.2245 N.ar    1  UNL1       -0.1533
     31 N           4.7996   -1.5874    0.9218 N.ar    1  UNL1       -0.2170
     32 H          -3.1016    2.0615   -0.1683 H       1  UNL1        0.0562
     33 H          -1.8141    1.1248    1.9990 H       1  UNL1        0.1189
     34 H          -2.9243   -0.0996    1.6441 H       1  UNL1        0.1189
     35 H          -5.2454   -1.9596   -2.2000 H       1  UNL1        0.0465
     36 H          -3.8661   -1.1177   -3.0470 H       1  UNL1        0.0465
     37 H          -2.3724   -2.8285   -2.2291 H       1  UNL1        0.0309
     38 H          -3.8643   -3.7676   -2.7984 H       1  UNL1        0.0309
     39 H          -2.7961   -3.6542   -0.1321 H       1  UNL1        0.0667
     40 H          -4.1137   -2.0764    1.0028 H       1  UNL1        0.0493
     41 H          -5.4804   -2.2362   -0.2366 H       1  UNL1        0.0493
     42 H          -1.2488    1.9113   -1.4944 H       1  UNL1        0.0417
     43 H          -1.3407    5.8702    1.3060 H       1  UNL1        0.0428
     44 H          -0.8293    4.4455    2.2488 H       1  UNL1        0.0428
     45 H           0.2431    5.0301    0.8918 H       1  UNL1        0.0428
     46 H          -3.5737    4.3888    0.1564 H       1  UNL1        0.0428
     47 H          -2.7474    4.0743   -1.4137 H       1  UNL1        0.0428
     48 H          -2.4744    5.6095   -0.5744 H       1  UNL1        0.0428
     49 H          -0.2940   -0.2491   -1.1640 H       1  UNL1        0.0309
     50 H           1.2201    2.1818   -1.0267 H       1  UNL1        0.0268
     51 H           1.6368    0.6749   -1.8288 H       1  UNL1        0.0268
     52 H           3.3657    1.1225   -0.4406 H       1  UNL1        0.0272
     53 H           2.3957    1.6900    0.9150 H       1  UNL1        0.0272
     54 H           2.7638   -0.3557    1.7890 H       1  UNL1        0.0364
     55 H           1.2190   -1.5429   -0.5235 H       1  UNL1        0.0272
     56 H           1.2169   -2.1185    1.1833 H       1  UNL1        0.0272
     57 H          -0.6932   -0.8253    1.1904 H       1  UNL1        0.0268
     58 H           0.5270    0.4389    1.6754 H       1  UNL1        0.0268
     59 H           3.0923   -1.2339   -1.8850 H       1  UNL1        0.0636
     60 H           4.9805   -2.4008   -2.8021 H       1  UNL1        0.0619
     61 H           6.8074   -3.0742   -1.3285 H       1  UNL1        0.0655
     62 H           6.5024   -1.9647    3.5920 H       1  UNL1        0.1066
@<TRIPOS>BOND
     1     1     2    1
     2     1     3    1
     3     3     4    2
     4     3     5   am
     5     5     6    1
     6     6     7    1
     7     7     8    1
     8     8     9    1
     9     8    10    1
    10     1    11    1
    11    11    12    1
    12    12    13    2
    13    12    14   am
    14    14    15    1
    15    14    16    1
    16    11    17    1
    17    17    18    1
    18    18    19    1
    19    19    20    1
    20    20    21    1
    21    21    22    1
    22    20    23    1
    23    23    24   ar
    24    24    25   ar
    25    25    26   ar
    26    26    27   ar
    27    27    28   ar
    28    28    29   ar
    29    29    30   ar
    30    30    31   ar
    31    10     5    1
    32    22    17    1
    33    31    23   ar
    34    31    27   ar
    35     1    32    1
    36     2    33    1
    37     2    34    1
    38     6    35    1
    39     6    36    1
    40     7    37    1
    41     7    38    1
    42     8    39    1
    43    10    40    1
    44    10    41    1
    45    11    42    1
    46    15    43    1
    47    15    44    1
    48    15    45    1
    49    16    46    1
    50    16    47    1
    51    16    48    1
    52    17    49    1
    53    18    50    1
    54    18    51    1
    55    19    52    1
    56    19    53    1
    57    20    54    1
    58    21    55    1
    59    21    56    1
    60    22    57    1
    61    22    58    1
    62    24    59    1
    63    25    60    1
    64    26    61    1
    65    29    62    1
