@<TRIPOS>MOLECULE
*****
 39 41 0 0 0
SMALL
GASTEIGER

@<TRIPOS>ATOM
      1 C           5.7556    0.0739    0.8969 C.3     1  UNL1        0.0790
      2 O           4.6697   -0.5344    0.2769 O.3     1  UNL1       -0.4915
      3 C           3.3706   -0.1143    0.3210 C.ar    1  UNL1        0.1615
      4 C           3.0546    1.0250    1.0418 C.ar    1  UNL1       -0.0157
      5 C           1.7187    1.4193    1.0616 C.ar    1  UNL1       -0.0491
      6 C           0.7192    0.7211    0.3966 C.ar    1  UNL1        0.0017
      7 C          -0.6667    1.1930    0.4333 C.2     1  UNL1        0.0706
      8 N          -0.8965    2.2972    1.0721 N.2     1  UNL1       -0.1840
      9 N          -2.1635    2.8531    1.1780 N.am    1  UNL1       -0.2065
     10 C          -3.2413    2.1887    0.5638 C.2     1  UNL1        0.2362
     11 O          -4.4284    2.5331    0.8301 O.2     1  UNL1       -0.2737
     12 C          -3.0215    1.0947   -0.3884 C.3     1  UNL1        0.0491
     13 C          -4.2149    0.1838   -0.2791 C.3     1  UNL1       -0.0230
     14 C          -3.9165   -1.1965   -0.6587 C.2     1  UNL1       -0.0872
     15 C          -2.7974   -1.7754   -0.2163 C.2     1  UNL1       -0.0873
     16 C          -1.9710   -0.8461    0.6560 C.3     1  UNL1       -0.0257
     17 C          -1.6983    0.4026   -0.2122 C.3     1  UNL1        0.0182
     18 C           1.0639   -0.4111   -0.3146 C.ar    1  UNL1       -0.0074
     19 C           2.4014   -0.8290   -0.3499 C.ar    1  UNL1        0.1621
     20 O           2.7963   -1.9600   -1.0501 O.3     1  UNL1       -0.4914
     21 C           1.8793   -2.7630   -1.7718 C.3     1  UNL1        0.0790
     22 H           6.6809   -0.4404    0.5728 H       1  UNL1        0.0660
     23 H           5.7978    1.1436    0.5638 H       1  UNL1        0.0660
     24 H           5.6379    0.0947    2.0001 H       1  UNL1        0.0660
     25 H           3.7911    1.6014    1.5741 H       1  UNL1        0.0655
     26 H           1.4080    2.2980    1.6052 H       1  UNL1        0.0625
     27 H          -2.3115    3.7697    1.7177 H       1  UNL1        0.1772
     28 H          -3.0572    1.5667   -1.4156 H       1  UNL1        0.0404
     29 H          -4.5990    0.2413    0.7791 H       1  UNL1        0.0315
     30 H          -5.0183    0.6316   -0.9131 H       1  UNL1        0.0315
     31 H          -4.6098   -1.7689   -1.3107 H       1  UNL1        0.0569
     32 H          -2.5261   -2.7713   -0.4530 H       1  UNL1        0.0569
     33 H          -2.5999   -0.4967    1.5026 H       1  UNL1        0.0314
     34 H          -1.0393   -1.3046    0.9582 H       1  UNL1        0.0314
     35 H          -1.3667    0.0128   -1.1940 H       1  UNL1        0.0375
     36 H           0.3650   -1.0028   -0.8654 H       1  UNL1        0.0662
     37 H           0.9342   -2.9317   -1.2266 H       1  UNL1        0.0660
     38 H           2.3646   -3.7810   -1.8391 H       1  UNL1        0.0660
     39 H           1.7348   -2.4181   -2.8145 H       1  UNL1        0.0660
@<TRIPOS>BOND
     1     1     2    1
     2     2     3    1
     3     3     4   ar
     4     4     5   ar
     5     5     6   ar
     6     6     7    1
     7     7     8    2
     8     8     9    1
     9     9    10   am
    10    10    11    2
    11    10    12    1
    12    12    13    1
    13    13    14    1
    14    14    15    2
    15    15    16    1
    16    16    17    1
    17     6    18   ar
    18    18    19   ar
    19    19    20    1
    20    20    21    1
    21    19     3   ar
    22    17     7    1
    23    17    12    1
    24     1    22    1
    25     1    23    1
    26     1    24    1
    27     4    25    1
    28     5    26    1
    29     9    27    1
    30    12    28    1
    31    13    29    1
    32    13    30    1
    33    14    31    1
    34    15    32    1
    35    16    33    1
    36    16    34    1
    37    17    35    1
    38    18    36    1
    39    21    37    1
    40    21    38    1
    41    21    39    1
