
     RDKit          3D

 39 41  0  0  0  0  0  0  0  0999 V2000
    5.7556    0.0739    0.8969 C   0  0  0  0  0  0  0  0  0  0  0  0
    4.6697   -0.5344    0.2769 O   0  0  0  0  0  0  0  0  0  0  0  0
    3.3706   -0.1143    0.3210 C   0  0  0  0  0  0  0  0  0  0  0  0
    3.0546    1.0250    1.0418 C   0  0  0  0  0  0  0  0  0  0  0  0
    1.7187    1.4193    1.0616 C   0  0  0  0  0  0  0  0  0  0  0  0
    0.7192    0.7211    0.3966 C   0  0  0  0  0  0  0  0  0  0  0  0
   -0.6667    1.1930    0.4333 C   0  0  0  0  0  0  0  0  0  0  0  0
   -0.8965    2.2972    1.0721 N   0  0  0  0  0  0  0  0  0  0  0  0
   -2.1635    2.8531    1.1780 N   0  0  0  0  0  0  0  0  0  0  0  0
   -3.2413    2.1887    0.5638 C   0  0  0  0  0  0  0  0  0  0  0  0
   -4.4284    2.5331    0.8301 O   0  0  0  0  0  0  0  0  0  0  0  0
   -3.0215    1.0947   -0.3884 C   0  0  2  0  0  0  0  0  0  0  0  0
   -4.2149    0.1838   -0.2791 C   0  0  0  0  0  0  0  0  0  0  0  0
   -3.9165   -1.1965   -0.6587 C   0  0  0  0  0  0  0  0  0  0  0  0
   -2.7974   -1.7754   -0.2163 C   0  0  0  0  0  0  0  0  0  0  0  0
   -1.9710   -0.8461    0.6560 C   0  0  0  0  0  0  0  0  0  0  0  0
   -1.6983    0.4026   -0.2122 C   0  0  2  0  0  0  0  0  0  0  0  0
    1.0639   -0.4111   -0.3146 C   0  0  0  0  0  0  0  0  0  0  0  0
    2.4014   -0.8290   -0.3499 C   0  0  0  0  0  0  0  0  0  0  0  0
    2.7963   -1.9600   -1.0501 O   0  0  0  0  0  0  0  0  0  0  0  0
    1.8793   -2.7630   -1.7718 C   0  0  0  0  0  0  0  0  0  0  0  0
    6.6809   -0.4404    0.5728 H   0  0  0  0  0  0  0  0  0  0  0  0
    5.7978    1.1436    0.5638 H   0  0  0  0  0  0  0  0  0  0  0  0
    5.6379    0.0947    2.0001 H   0  0  0  0  0  0  0  0  0  0  0  0
    3.7911    1.6014    1.5741 H   0  0  0  0  0  0  0  0  0  0  0  0
    1.4080    2.2980    1.6052 H   0  0  0  0  0  0  0  0  0  0  0  0
   -2.3115    3.7697    1.7177 H   0  0  0  0  0  0  0  0  0  0  0  0
   -3.0572    1.5667   -1.4156 H   0  0  0  0  0  0  0  0  0  0  0  0
   -4.5990    0.2413    0.7791 H   0  0  0  0  0  0  0  0  0  0  0  0
   -5.0183    0.6316   -0.9131 H   0  0  0  0  0  0  0  0  0  0  0  0
   -4.6098   -1.7689   -1.3107 H   0  0  0  0  0  0  0  0  0  0  0  0
   -2.5261   -2.7713   -0.4530 H   0  0  0  0  0  0  0  0  0  0  0  0
   -2.5999   -0.4967    1.5026 H   0  0  0  0  0  0  0  0  0  0  0  0
   -1.0393   -1.3046    0.9582 H   0  0  0  0  0  0  0  0  0  0  0  0
   -1.3667    0.0128   -1.1940 H   0  0  0  0  0  0  0  0  0  0  0  0
    0.3650   -1.0028   -0.8654 H   0  0  0  0  0  0  0  0  0  0  0  0
    0.9342   -2.9317   -1.2266 H   0  0  0  0  0  0  0  0  0  0  0  0
    2.3646   -3.7810   -1.8391 H   0  0  0  0  0  0  0  0  0  0  0  0
    1.7348   -2.4181   -2.8145 H   0  0  0  0  0  0  0  0  0  0  0  0
  1  2  1  0
  2  3  1  0
  3  4  2  0
  4  5  1  0
  5  6  2  0
  6  7  1  0
  7  8  2  0
  8  9  1  0
  9 10  1  0
 10 11  2  0
 10 12  1  0
 12 13  1  0
 13 14  1  0
 14 15  2  0
 15 16  1  0
 16 17  1  0
  6 18  1  0
 18 19  2  0
 19 20  1  0
 20 21  1  0
 19  3  1  0
 17  7  1  0
 17 12  1  0
  1 22  1  0
  1 23  1  0
  1 24  1  0
  4 25  1  0
  5 26  1  0
  9 27  1  0
 12 28  1  6
 13 29  1  0
 13 30  1  0
 14 31  1  0
 15 32  1  0
 16 33  1  0
 16 34  1  0
 17 35  1  6
 18 36  1  0
 21 37  1  0
 21 38  1  0
 21 39  1  0
M  END
$$$$
