
     RDKit          3D

 54 55  0  0  0  0  0  0  0  0999 V2000
   -3.0023   -1.4325   -0.8757 C   0  0  2  0  0  0  0  0  0  0  0  0
   -4.4802   -1.1062   -0.8488 C   0  0  0  0  0  0  0  0  0  0  0  0
   -2.2786   -0.2254   -1.1297 N   0  0  0  0  0  0  0  0  0  0  0  0
   -1.2548    0.1740   -0.2470 C   0  0  0  0  0  0  0  0  0  0  0  0
   -0.8026   -0.3692    0.8233 O   0  0  0  0  0  0  0  0  0  0  0  0
   -0.2274    1.1808    0.0644 C   0  0  1  0  0  0  0  0  0  0  0  0
   -0.7250    2.5686    0.2980 C   0  0  0  0  0  0  0  0  0  0  0  0
   -1.4469    3.1906   -0.8271 C   0  0  0  0  0  0  0  0  0  0  0  0
   -0.6603    3.8732   -1.7586 C   0  0  0  0  0  0  0  0  0  0  0  0
   -1.1567    4.5229   -2.8652 C   0  0  0  0  0  0  0  0  0  0  0  0
   -2.5174    4.5034   -3.0740 C   0  0  0  0  0  0  0  0  0  0  0  0
   -3.3503    3.8481   -2.1940 C   0  0  0  0  0  0  0  0  0  0  0  0
   -2.8026    3.2184   -1.1098 C   0  0  0  0  0  0  0  0  0  0  0  0
    0.5091    0.6984    1.2561 N   0  0  0  0  0  0  0  0  0  0  0  0
    1.8690    0.3242    1.1290 C   0  0  0  0  0  0  0  0  0  0  0  0
    2.5088    0.3748    0.0478 O   0  0  0  0  0  0  0  0  0  0  0  0
    2.7279   -0.1466    2.1030 O   0  0  0  0  0  0  0  0  0  0  0  0
    4.0714   -0.4861    1.8094 C   0  0  0  0  0  0  0  0  0  0  0  0
    4.6666   -0.9430    3.0965 C   0  0  0  0  0  0  0  0  0  0  0  0
    5.3359   -0.1491    4.0164 C   0  0  0  0  0  0  0  0  0  0  0  0
    5.8116   -0.7618    5.1620 C   0  0  0  0  0  0  0  0  0  0  0  0
    5.6498   -2.1170    5.4257 C   0  0  0  0  0  0  0  0  0  0  0  0
    4.9806   -2.8586    4.4832 C   0  0  0  0  0  0  0  0  0  0  0  0
    4.5016   -2.2826    3.3468 C   0  0  0  0  0  0  0  0  0  0  0  0
   -2.8099   -2.4447   -1.9519 C   0  0  0  0  0  0  0  0  0  0  0  0
   -2.4251   -1.9973   -3.1371 C   0  0  0  0  0  0  0  0  0  0  0  0
   -2.2267   -2.9548   -4.2171 C   0  0  0  0  0  0  0  0  0  0  0  0
   -1.8703   -2.7849   -5.4126 O   0  0  0  0  0  0  0  0  0  0  0  0
   -2.4377   -4.3928   -4.0331 C   0  0  0  0  0  0  0  0  0  0  0  0
   -2.6776   -5.5627   -3.6371 O   0  0  0  0  0  0  0  0  0  0  0  0
   -2.6635   -1.9091    0.0660 H   0  0  0  0  0  0  0  0  0  0  0  0
   -4.9748   -1.4885    0.0870 H   0  0  0  0  0  0  0  0  0  0  0  0
   -5.0016   -1.4949   -1.7526 H   0  0  0  0  0  0  0  0  0  0  0  0
   -4.6472    0.0081   -0.8825 H   0  0  0  0  0  0  0  0  0  0  0  0
   -2.2522    0.5221   -1.8174 H   0  0  0  0  0  0  0  0  0  0  0  0
    0.5563    1.2261   -0.7396 H   0  0  0  0  0  0  0  0  0  0  0  0
   -1.3293    2.6275    1.2559 H   0  0  0  0  0  0  0  0  0  0  0  0
    0.1565    3.2326    0.5546 H   0  0  0  0  0  0  0  0  0  0  0  0
    0.4234    3.9328   -1.6601 H   0  0  0  0  0  0  0  0  0  0  0  0
   -0.5322    5.0464   -3.5767 H   0  0  0  0  0  0  0  0  0  0  0  0
   -3.0389    4.9737   -3.9054 H   0  0  0  0  0  0  0  0  0  0  0  0
   -4.4329    3.8046   -2.3165 H   0  0  0  0  0  0  0  0  0  0  0  0
   -3.3959    2.6762   -0.3622 H   0  0  0  0  0  0  0  0  0  0  0  0
    0.1203    0.5996    2.2199 H   0  0  0  0  0  0  0  0  0  0  0  0
    4.5841    0.4364    1.5003 H   0  0  0  0  0  0  0  0  0  0  0  0
    4.1218   -1.2896    1.0447 H   0  0  0  0  0  0  0  0  0  0  0  0
    5.4224    0.8848    3.7452 H   0  0  0  0  0  0  0  0  0  0  0  0
    6.3242   -0.0981    5.8422 H   0  0  0  0  0  0  0  0  0  0  0  0
    6.0815   -2.4508    6.3705 H   0  0  0  0  0  0  0  0  0  0  0  0
    4.8810   -3.9039    4.7352 H   0  0  0  0  0  0  0  0  0  0  0  0
    3.9856   -2.9618    2.6673 H   0  0  0  0  0  0  0  0  0  0  0  0
   -2.9650   -3.5053   -1.8189 H   0  0  0  0  0  0  0  0  0  0  0  0
   -2.2516   -0.9511   -3.3421 H   0  0  0  0  0  0  0  0  0  0  0  0
   -2.6515   -5.3798   -3.6576 H   0  0  0  0  0  0  0  0  0  0  0  0
  1  2  1  0
  1  3  1  0
  3  4  1  0
  4  5  2  0
  4  6  1  0
  6  7  1  0
  7  8  1  0
  8  9  2  0
  9 10  1  0
 10 11  2  0
 11 12  1  0
 12 13  2  0
  6 14  1  0
 14 15  1  0
 15 16  2  0
 15 17  1  0
 17 18  1  0
 18 19  1  0
 19 20  2  0
 20 21  1  0
 21 22  2  0
 22 23  1  0
 23 24  2  0
  1 25  1  0
 25 26  2  0
 26 27  1  0
 27 28  2  0
 27 29  1  0
 29 30  2  0
 13  8  1  0
 24 19  1  0
  1 31  1  1
  2 32  1  0
  2 33  1  0
  2 34  1  0
  3 35  1  0
  6 36  1  6
  7 37  1  0
  7 38  1  0
  9 39  1  0
 10 40  1  0
 11 41  1  0
 12 42  1  0
 13 43  1  0
 14 44  1  0
 18 45  1  0
 18 46  1  0
 20 47  1  0
 21 48  1  0
 22 49  1  0
 23 50  1  0
 24 51  1  0
 25 52  1  0
 26 53  1  0
 29 54  1  0
M  END
$$$$
