@<TRIPOS>MOLECULE
*****
 54 55 0 0 0
SMALL
GASTEIGER

@<TRIPOS>ATOM
      1 C          -3.0023   -1.4325   -0.8757 C.3     1  UNL1        0.0391
      2 C          -4.4802   -1.1062   -0.8488 C.3     1  UNL1       -0.0430
      3 N          -2.2786   -0.2254   -1.1297 N.am    1  UNL1       -0.3078
      4 C          -1.2548    0.1740   -0.2470 C.2     1  UNL1        0.2342
      5 O          -0.8026   -0.3692    0.8233 O.2     1  UNL1       -0.2738
      6 C          -0.2274    1.1808    0.0644 C.3     1  UNL1        0.1064
      7 C          -0.7250    2.5686    0.2980 C.3     1  UNL1       -0.0005
      8 C          -1.4469    3.1906   -0.8271 C.ar    1  UNL1       -0.0451
      9 C          -0.6603    3.8732   -1.7586 C.ar    1  UNL1       -0.0585
     10 C          -1.1567    4.5229   -2.8652 C.ar    1  UNL1       -0.0615
     11 C          -2.5174    4.5034   -3.0740 C.ar    1  UNL1       -0.0617
     12 C          -3.3503    3.8481   -2.1940 C.ar    1  UNL1       -0.0615
     13 C          -2.8026    3.2184   -1.1098 C.ar    1  UNL1       -0.0585
     14 N           0.5091    0.6984    1.2561 N.am    1  UNL1       -0.2695
     15 C           1.8690    0.3242    1.1290 C.2     1  UNL1        0.4012
     16 O           2.5088    0.3748    0.0478 O.2     1  UNL1       -0.2265
     17 O           2.7279   -0.1466    2.1030 O.3     1  UNL1       -0.4456
     18 C           4.0714   -0.4861    1.8094 C.3     1  UNL1        0.1191
     19 C           4.6666   -0.9430    3.0965 C.ar    1  UNL1       -0.0103
     20 C           5.3359   -0.1491    4.0164 C.ar    1  UNL1       -0.0554
     21 C           5.8116   -0.7618    5.1620 C.ar    1  UNL1       -0.0614
     22 C           5.6498   -2.1170    5.4257 C.ar    1  UNL1       -0.0617
     23 C           4.9806   -2.8586    4.4832 C.ar    1  UNL1       -0.0614
     24 C           4.5016   -2.2826    3.3468 C.ar    1  UNL1       -0.0554
     25 C          -2.8099   -2.4447   -1.9519 C.2     1  UNL1       -0.0605
     26 C          -2.4251   -1.9973   -3.1371 C.2     1  UNL1       -0.0139
     27 C          -2.2267   -2.9548   -4.2171 C.2     1  UNL1        0.2176
     28 O          -1.8703   -2.7849   -5.4126 O.2     1  UNL1       -0.2845
     29 C          -2.4377   -4.3928   -4.0331 C.2     1  UNL1        0.1895
     30 O          -2.6776   -5.5627   -3.6371 O.2     1  UNL1       -0.2923
     31 H          -2.6635   -1.9091    0.0660 H       1  UNL1        0.0540
     32 H          -4.9748   -1.4885    0.0870 H       1  UNL1        0.0251
     33 H          -5.0016   -1.4949   -1.7526 H       1  UNL1        0.0251
     34 H          -4.6472    0.0081   -0.8825 H       1  UNL1        0.0251
     35 H          -2.2522    0.5221   -1.8174 H       1  UNL1        0.1493
     36 H           0.5563    1.2261   -0.7396 H       1  UNL1        0.0599
     37 H          -1.3293    2.6275    1.2559 H       1  UNL1        0.0336
     38 H           0.1565    3.2326    0.5546 H       1  UNL1        0.0336
     39 H           0.4234    3.9328   -1.6601 H       1  UNL1        0.0620
     40 H          -0.5322    5.0464   -3.5767 H       1  UNL1        0.0618
     41 H          -3.0389    4.9737   -3.9054 H       1  UNL1        0.0618
     42 H          -4.4329    3.8046   -2.3165 H       1  UNL1        0.0618
     43 H          -3.3959    2.6762   -0.3622 H       1  UNL1        0.0620
     44 H           0.1203    0.5996    2.2199 H       1  UNL1        0.1528
     45 H           4.5841    0.4364    1.5003 H       1  UNL1        0.0749
     46 H           4.1218   -1.2896    1.0447 H       1  UNL1        0.0749
     47 H           5.4224    0.8848    3.7452 H       1  UNL1        0.0621
     48 H           6.3242   -0.0981    5.8422 H       1  UNL1        0.0618
     49 H           6.0815   -2.4508    6.3705 H       1  UNL1        0.0618
     50 H           4.8810   -3.9039    4.7352 H       1  UNL1        0.0618
     51 H           3.9856   -2.9618    2.6673 H       1  UNL1        0.0621
     52 H          -2.9650   -3.5053   -1.8189 H       1  UNL1        0.0591
     53 H          -2.2516   -0.9511   -3.3421 H       1  UNL1        0.0654
     54 H          -2.6515   -5.3798   -3.6576 H       1  UNL1        0.1116
@<TRIPOS>BOND
     1     1     2    1
     2     1     3    1
     3     3     4   am
     4     4     5    2
     5     4     6    1
     6     6     7    1
     7     7     8    1
     8     8     9   ar
     9     9    10   ar
    10    10    11   ar
    11    11    12   ar
    12    12    13   ar
    13     6    14    1
    14    14    15   am
    15    15    16    2
    16    15    17    1
    17    17    18    1
    18    18    19    1
    19    19    20   ar
    20    20    21   ar
    21    21    22   ar
    22    22    23   ar
    23    23    24   ar
    24     1    25    1
    25    25    26    2
    26    26    27    1
    27    27    28    2
    28    27    29    1
    29    29    30    2
    30    13     8   ar
    31    24    19   ar
    32     1    31    1
    33     2    32    1
    34     2    33    1
    35     2    34    1
    36     3    35    1
    37     6    36    1
    38     7    37    1
    39     7    38    1
    40     9    39    1
    41    10    40    1
    42    11    41    1
    43    12    42    1
    44    13    43    1
    45    14    44    1
    46    18    45    1
    47    18    46    1
    48    20    47    1
    49    21    48    1
    50    22    49    1
    51    23    50    1
    52    24    51    1
    53    25    52    1
    54    26    53    1
    55    29    54    1
