
     RDKit          3D

 30 31  0  0  0  0  0  0  0  0999 V2000
    6.1283    0.9320   -0.3507 O   0  0  0  0  0  0  0  0  0  0  0  0
    5.1243    0.1753   -0.9422 C   0  0  0  0  0  0  0  0  0  0  0  0
    5.0171    0.7796   -2.0672 O   0  0  0  0  0  0  0  0  0  0  0  0
    4.3451   -0.9885   -0.5005 C   0  0  0  0  0  0  0  0  0  0  0  0
    2.9348   -0.6857   -0.1902 C   0  0  0  0  0  0  0  0  0  0  0  0
    2.1277   -1.7747    0.1236 C   0  0  0  0  0  0  0  0  0  0  0  0
    0.8393   -1.4529    0.4742 C   0  0  0  0  0  0  0  0  0  0  0  0
   -0.3915   -3.1013    0.9367 I   0  0  0  0  0  0  0  0  0  0  0  0
    0.2315   -0.2181    0.5603 C   0  0  0  0  0  0  0  0  0  0  0  0
   -0.9899    0.1709    0.8986 O   0  0  0  0  0  0  0  0  0  0  0  0
   -2.2369    0.2869    0.4538 C   0  0  0  0  0  0  0  0  0  0  0  0
   -3.1540   -0.6139    0.9812 C   0  0  0  0  0  0  0  0  0  0  0  0
   -4.4942   -0.6910    0.6814 C   0  0  0  0  0  0  0  0  0  0  0  0
   -4.9969    0.2125   -0.2430 C   0  0  0  0  0  0  0  0  0  0  0  0
   -6.3315    0.2971   -0.6884 O   0  0  0  0  0  0  0  0  0  0  0  0
   -4.1680    1.1426   -0.8217 C   0  0  0  0  0  0  0  0  0  0  0  0
   -4.8377    2.5522   -2.2280 I   0  0  0  0  0  0  0  0  0  0  0  0
   -2.8520    1.1264   -0.4431 C   0  0  0  0  0  0  0  0  0  0  0  0
    1.1105    0.8171    0.2214 C   0  0  0  0  0  0  0  0  0  0  0  0
    0.6462    2.9026    0.2215 I   0  0  0  0  0  0  0  0  0  0  0  0
    2.4505    0.5941   -0.1502 C   0  0  0  0  0  0  0  0  0  0  0  0
    5.8437    1.8808   -0.0481 H   0  0  0  0  0  0  0  0  0  0  0  0
    4.8328   -1.4224    0.4075 H   0  0  0  0  0  0  0  0  0  0  0  0
    4.4207   -1.7500   -1.2814 H   0  0  0  0  0  0  0  0  0  0  0  0
    2.4809   -2.7999    0.1034 H   0  0  0  0  0  0  0  0  0  0  0  0
   -2.9578   -1.4008    1.7413 H   0  0  0  0  0  0  0  0  0  0  0  0
   -5.2268   -1.3636    1.0688 H   0  0  0  0  0  0  0  0  0  0  0  0
   -6.8414    1.1398   -0.3215 H   0  0  0  0  0  0  0  0  0  0  0  0
   -2.1997    1.8772   -0.9026 H   0  0  0  0  0  0  0  0  0  0  0  0
    3.1449    1.3760   -0.4094 H   0  0  0  0  0  0  0  0  0  0  0  0
  1  2  1  0
  2  3  2  0
  2  4  1  0
  4  5  1  0
  5  6  2  0
  6  7  1  0
  7  8  1  0
  7  9  2  0
  9 10  1  0
 10 11  1  0
 11 12  2  0
 12 13  1  0
 13 14  2  0
 14 15  1  0
 14 16  1  0
 16 17  1  0
 16 18  2  0
  9 19  1  0
 19 20  1  0
 19 21  2  0
 21  5  1  0
 18 11  1  0
  1 22  1  0
  4 23  1  0
  4 24  1  0
  6 25  1  0
 12 26  1  0
 13 27  1  0
 15 28  1  0
 18 29  1  0
 21 30  1  0
M  END
$$$$
