@<TRIPOS>MOLECULE
*****
 30 31 0 0 0
SMALL
GASTEIGER

@<TRIPOS>ATOM
      1 O           6.1283    0.9320   -0.3507 O.3     1  UNL1       -0.4804
      2 C           5.1243    0.1753   -0.9422 C.2     1  UNL1        0.3091
      3 O           5.0171    0.7796   -2.0672 O.2     1  UNL1       -0.2507
      4 C           4.3451   -0.9885   -0.5005 C.3     1  UNL1        0.0699
      5 C           2.9348   -0.6857   -0.1902 C.ar    1  UNL1       -0.0346
      6 C           2.1277   -1.7747    0.1236 C.ar    1  UNL1       -0.0413
      7 C           0.8393   -1.4529    0.4742 C.ar    1  UNL1        0.0569
      8 I          -0.3915   -3.1013    0.9367 I       1  UNL1       -0.0400
      9 C           0.2315   -0.2181    0.5603 C.ar    1  UNL1        0.1545
     10 O          -0.9899    0.1709    0.8986 O.3     1  UNL1       -0.4539
     11 C          -2.2369    0.2869    0.4538 C.ar    1  UNL1        0.1297
     12 C          -3.1540   -0.6139    0.9812 C.ar    1  UNL1       -0.0158
     13 C          -4.4942   -0.6910    0.6814 C.ar    1  UNL1       -0.0157
     14 C          -4.9969    0.2125   -0.2430 C.ar    1  UNL1        0.1301
     15 O          -6.3315    0.2971   -0.6884 O.3     1  UNL1       -0.5057
     16 C          -4.1680    1.1426   -0.8217 C.ar    1  UNL1        0.0582
     17 I          -4.8377    2.5522   -2.2280 I       1  UNL1       -0.0399
     18 C          -2.8520    1.1264   -0.4431 C.ar    1  UNL1       -0.0027
     19 C           1.1105    0.8171    0.2214 C.ar    1  UNL1        0.0569
     20 I           0.6462    2.9026    0.2215 I       1  UNL1       -0.0400
     21 C           2.4505    0.5941   -0.1502 C.ar    1  UNL1       -0.0413
     22 H           5.8437    1.8808   -0.0481 H       1  UNL1        0.2951
     23 H           4.8328   -1.4224    0.4075 H       1  UNL1        0.0426
     24 H           4.4207   -1.7500   -1.2814 H       1  UNL1        0.0426
     25 H           2.4809   -2.7999    0.1034 H       1  UNL1        0.0632
     26 H          -2.9578   -1.4008    1.7413 H       1  UNL1        0.0655
     27 H          -5.2268   -1.3636    1.0688 H       1  UNL1        0.0655
     28 H          -6.8414    1.1398   -0.3215 H       1  UNL1        0.2922
     29 H          -2.1997    1.8772   -0.9026 H       1  UNL1        0.0666
     30 H           3.1449    1.3760   -0.4094 H       1  UNL1        0.0632
@<TRIPOS>BOND
     1     1     2    1
     2     2     3    2
     3     2     4    1
     4     4     5    1
     5     5     6   ar
     6     6     7   ar
     7     7     8    1
     8     7     9   ar
     9     9    10    1
    10    10    11    1
    11    11    12   ar
    12    12    13   ar
    13    13    14   ar
    14    14    15    1
    15    14    16   ar
    16    16    17    1
    17    16    18   ar
    18     9    19   ar
    19    19    20    1
    20    19    21   ar
    21    21     5   ar
    22    18    11   ar
    23     1    22    1
    24     4    23    1
    25     4    24    1
    26     6    25    1
    27    12    26    1
    28    13    27    1
    29    15    28    1
    30    18    29    1
    31    21    30    1
