
     RDKit          3D

 69 71  0  0  0  0  0  0  0  0999 V2000
    6.9600   -1.1149    2.1490 C   0  0  0  0  0  0  0  0  0  0  0  0
    6.9145   -0.0999    1.1151 N   0  0  0  0  0  0  0  0  0  0  0  0
    7.7970   -0.5490    0.0492 C   0  0  0  0  0  0  0  0  0  0  0  0
    5.5768    0.1456    0.6159 C   0  0  0  0  0  0  0  0  0  0  0  0
    5.0260   -1.0360   -0.1774 C   0  0  0  0  0  0  0  0  0  0  0  0
    3.6877   -0.6353   -0.6098 N   0  0  0  0  0  0  0  0  0  0  0  0
    2.5783   -0.9755    0.2607 C   0  0  0  0  0  0  0  0  0  0  0  0
    1.4254   -1.3871   -0.6285 C   0  0  0  0  0  0  0  0  0  0  0  0
    0.6817   -0.1840   -1.0760 N   0  0  0  0  0  0  0  0  0  0  0  0
   -0.6677   -0.2451   -0.7689 C   0  0  0  0  0  0  0  0  0  0  0  0
   -1.0498   -1.3559   -0.2122 O   0  0  0  0  0  0  0  0  0  0  0  0
   -1.7308    0.7499   -0.9791 C   0  0  0  0  0  0  0  0  0  0  0  0
   -1.5892    2.0633   -1.1281 C   0  0  0  0  0  0  0  0  0  0  0  0
   -2.6148    2.9164   -1.2599 C   0  0  0  0  0  0  0  0  0  0  0  0
   -2.8284    4.3173   -1.4307 C   0  0  0  0  0  0  0  0  0  0  0  0
   -4.2784    4.7285   -1.5281 C   0  0  0  0  0  0  0  0  0  0  0  0
   -2.1981    5.0745   -0.2955 C   0  0  0  0  0  0  0  0  0  0  0  0
   -2.1785    4.7706   -2.7436 C   0  0  0  0  0  0  0  0  0  0  0  0
   -4.0602    1.7851   -1.1705 S   0  0  0  0  0  0  0  0  0  0  0  0
   -3.0711    0.2596   -0.9615 C   0  0  0  0  0  0  0  0  0  0  0  0
   -3.5776   -1.0289   -0.8355 N   0  0  0  0  0  0  0  0  0  0  0  0
   -3.8664   -1.5057    0.5032 C   0  0  0  0  0  0  0  0  0  0  0  0
   -3.6667   -0.7741    1.4826 O   0  0  0  0  0  0  0  0  0  0  0  0
   -4.3731   -2.8036    0.6730 N   0  0  0  0  0  0  0  0  0  0  0  0
   -4.7122   -3.4334    1.9016 C   0  0  0  0  0  0  0  0  0  0  0  0
   -4.6295   -2.8520    3.1352 C   0  0  0  0  0  0  0  0  0  0  0  0
   -4.9629   -3.5047    4.3098 C   0  0  0  0  0  0  0  0  0  0  0  0
   -5.3983   -4.7974    4.2412 C   0  0  0  0  0  0  0  0  0  0  0  0
   -5.5000   -5.4301    3.0224 C   0  0  0  0  0  0  0  0  0  0  0  0
   -6.0584   -7.0824    2.9565 Cl  0  0  0  0  0  0  0  0  0  0  0  0
   -5.1649   -4.7650    1.8763 C   0  0  0  0  0  0  0  0  0  0  0  0
   -5.2951   -5.5814    0.3221 Cl  0  0  0  0  0  0  0  0  0  0  0  0
    1.2295    0.9220   -1.8085 C   0  0  0  0  0  0  0  0  0  0  0  0
    2.4391    0.4639   -2.6450 C   0  0  0  0  0  0  0  0  0  0  0  0
    3.5783    0.0464   -1.8455 C   0  0  0  0  0  0  0  0  0  0  0  0
    4.7227    0.3434   -2.3364 O   0  0  0  0  0  0  0  0  0  0  0  0
    6.6642   -0.6245    3.1114 H   0  0  0  0  0  0  0  0  0  0  0  0
    8.0174   -1.4399    2.2465 H   0  0  0  0  0  0  0  0  0  0  0  0
    6.3509   -1.9808    1.8850 H   0  0  0  0  0  0  0  0  0  0  0  0
    8.8201   -0.2240    0.2858 H   0  0  0  0  0  0  0  0  0  0  0  0
    7.4817   -0.1169   -0.9204 H   0  0  0  0  0  0  0  0  0  0  0  0
    7.8025   -1.6742    0.0180 H   0  0  0  0  0  0  0  0  0  0  0  0
    4.9373    0.3833    1.4654 H   0  0  0  0  0  0  0  0  0  0  0  0
    5.6540    1.0058   -0.0780 H   0  0  0  0  0  0  0  0  0  0  0  0
    5.6703   -1.3086   -1.0105 H   0  0  0  0  0  0  0  0  0  0  0  0
    4.8665   -1.9136    0.4941 H   0  0  0  0  0  0  0  0  0  0  0  0
    2.2783   -0.1207    0.8909 H   0  0  0  0  0  0  0  0  0  0  0  0
    2.8296   -1.8629    0.8757 H   0  0  0  0  0  0  0  0  0  0  0  0
    0.7274   -2.0436   -0.0977 H   0  0  0  0  0  0  0  0  0  0  0  0
    1.8186   -1.8864   -1.5148 H   0  0  0  0  0  0  0  0  0  0  0  0
   -0.5583    2.5613   -1.1174 H   0  0  0  0  0  0  0  0  0  0  0  0
   -4.9063    4.2050   -0.7735 H   0  0  0  0  0  0  0  0  0  0  0  0
   -4.6588    4.5979   -2.5564 H   0  0  0  0  0  0  0  0  0  0  0  0
   -4.3289    5.8099   -1.3012 H   0  0  0  0  0  0  0  0  0  0  0  0
   -1.1086    5.2175   -0.5219 H   0  0  0  0  0  0  0  0  0  0  0  0
   -2.6281    6.0980   -0.2227 H   0  0  0  0  0  0  0  0  0  0  0  0
   -2.3375    4.6060    0.6885 H   0  0  0  0  0  0  0  0  0  0  0  0
   -2.8366    4.3427   -3.5464 H   0  0  0  0  0  0  0  0  0  0  0  0
   -1.1850    4.3366   -2.8527 H   0  0  0  0  0  0  0  0  0  0  0  0
   -2.2220    5.8725   -2.8066 H   0  0  0  0  0  0  0  0  0  0  0  0
   -3.7732   -1.6931   -1.6057 H   0  0  0  0  0  0  0  0  0  0  0  0
   -4.5265   -3.3919   -0.2011 H   0  0  0  0  0  0  0  0  0  0  0  0
   -4.2893   -1.8266    3.2200 H   0  0  0  0  0  0  0  0  0  0  0  0
   -4.8673   -2.9623    5.2641 H   0  0  0  0  0  0  0  0  0  0  0  0
   -5.6628   -5.3253    5.1366 H   0  0  0  0  0  0  0  0  0  0  0  0
    1.5266    1.7262   -1.1293 H   0  0  0  0  0  0  0  0  0  0  0  0
    0.5269    1.2930   -2.5599 H   0  0  0  0  0  0  0  0  0  0  0  0
    2.1245   -0.4006   -3.2806 H   0  0  0  0  0  0  0  0  0  0  0  0
    2.6474    1.2953   -3.3446 H   0  0  0  0  0  0  0  0  0  0  0  0
  1  2  1  0
  2  3  1  0
  2  4  1  0
  4  5  1  0
  5  6  1  0
  6  7  1  0
  7  8  1  0
  8  9  1  0
  9 10  1  0
 10 11  2  0
 10 12  1  0
 12 13  1  0
 13 14  2  0
 14 15  1  0
 15 16  1  0
 15 17  1  0
 15 18  1  0
 14 19  1  0
 19 20  1  0
 20 21  1  0
 21 22  1  0
 22 23  2  0
 22 24  1  0
 24 25  1  0
 25 26  2  0
 26 27  1  0
 27 28  2  0
 28 29  1  0
 29 30  1  0
 29 31  2  0
 31 32  1  0
  9 33  1  0
 33 34  1  0
 34 35  1  0
 35 36  2  0
 35  6  1  0
 20 12  2  0
 31 25  1  0
  1 37  1  0
  1 38  1  0
  1 39  1  0
  3 40  1  0
  3 41  1  0
  3 42  1  0
  4 43  1  0
  4 44  1  0
  5 45  1  0
  5 46  1  0
  7 47  1  0
  7 48  1  0
  8 49  1  0
  8 50  1  0
 13 51  1  0
 16 52  1  0
 16 53  1  0
 16 54  1  0
 17 55  1  0
 17 56  1  0
 17 57  1  0
 18 58  1  0
 18 59  1  0
 18 60  1  0
 21 61  1  0
 24 62  1  0
 26 63  1  0
 27 64  1  0
 28 65  1  0
 33 66  1  0
 33 67  1  0
 34 68  1  0
 34 69  1  0
M  END
$$$$
