@<TRIPOS>MOLECULE
*****
 69 71 0 0 0
SMALL
GASTEIGER

@<TRIPOS>ATOM
      1 C           6.9600   -1.1149    2.1490 C.3     1  UNL1       -0.0130
      2 N           6.9145   -0.0999    1.1151 N.3     1  UNL1       -0.3069
      3 C           7.7970   -0.5490    0.0492 C.3     1  UNL1       -0.0130
      4 C           5.5768    0.1456    0.6159 C.3     1  UNL1        0.0141
      5 C           5.0260   -1.0360   -0.1774 C.3     1  UNL1        0.0275
      6 N           3.6877   -0.6353   -0.6098 N.am    1  UNL1       -0.2987
      7 C           2.5783   -0.9755    0.2607 C.3     1  UNL1        0.0305
      8 C           1.4254   -1.3871   -0.6285 C.3     1  UNL1        0.0308
      9 N           0.6817   -0.1840   -1.0760 N.am    1  UNL1       -0.2955
     10 C          -0.6677   -0.2451   -0.7689 C.2     1  UNL1        0.2490
     11 O          -1.0498   -1.3559   -0.2122 O.2     1  UNL1       -0.2699
     12 C          -1.7308    0.7499   -0.9791 C.ar    1  UNL1        0.0657
     13 C          -1.5892    2.0633   -1.1281 C.ar    1  UNL1       -0.0370
     14 C          -2.6148    2.9164   -1.2599 C.ar    1  UNL1       -0.0023
     15 C          -2.8284    4.3173   -1.4307 C.3     1  UNL1       -0.0064
     16 C          -4.2784    4.7285   -1.5281 C.3     1  UNL1       -0.0556
     17 C          -2.1981    5.0745   -0.2955 C.3     1  UNL1       -0.0556
     18 C          -2.1785    4.7706   -2.7436 C.3     1  UNL1       -0.0556
     19 S          -4.0602    1.7851   -1.1705 S.2     1  UNL1       -0.0771
     20 C          -3.0711    0.2596   -0.9615 C.ar    1  UNL1        0.0853
     21 N          -3.5776   -1.0289   -0.8355 N.am    1  UNL1       -0.2629
     22 C          -3.8664   -1.5057    0.5032 C.2     1  UNL1        0.3085
     23 O          -3.6667   -0.7741    1.4826 O.2     1  UNL1       -0.2521
     24 N          -4.3731   -2.8036    0.6730 N.am    1  UNL1       -0.2678
     25 C          -4.7122   -3.4334    1.9016 C.ar    1  UNL1        0.0546
     26 C          -4.6295   -2.8520    3.1352 C.ar    1  UNL1       -0.0389
     27 C          -4.9629   -3.5047    4.3098 C.ar    1  UNL1       -0.0585
     28 C          -5.3983   -4.7974    4.2412 C.ar    1  UNL1       -0.0419
     29 C          -5.5000   -5.4301    3.0224 C.ar    1  UNL1        0.0610
     30 CL         -6.0584   -7.0824    2.9565 Cl      1  UNL1       -0.0820
     31 C          -5.1649   -4.7650    1.8763 C.ar    1  UNL1        0.0804
     32 CL         -5.2951   -5.5814    0.3221 Cl      1  UNL1       -0.0801
     33 C           1.2295    0.9220   -1.8085 C.3     1  UNL1        0.0233
     34 C           2.4391    0.4639   -2.6450 C.3     1  UNL1        0.0399
     35 C           3.5783    0.0464   -1.8455 C.2     1  UNL1        0.2171
     36 O           4.7227    0.3434   -2.3364 O.2     1  UNL1       -0.2755
     37 H           6.6642   -0.6245    3.1114 H       1  UNL1        0.0391
     38 H           8.0174   -1.4399    2.2465 H       1  UNL1        0.0391
     39 H           6.3509   -1.9808    1.8850 H       1  UNL1        0.0391
     40 H           8.8201   -0.2240    0.2858 H       1  UNL1        0.0391
     41 H           7.4817   -0.1169   -0.9204 H       1  UNL1        0.0391
     42 H           7.8025   -1.6742    0.0180 H       1  UNL1        0.0391
     43 H           4.9373    0.3833    1.4654 H       1  UNL1        0.0442
     44 H           5.6540    1.0058   -0.0780 H       1  UNL1        0.0442
     45 H           5.6703   -1.3086   -1.0105 H       1  UNL1        0.0477
     46 H           4.8665   -1.9136    0.4941 H       1  UNL1        0.0477
     47 H           2.2783   -0.1207    0.8909 H       1  UNL1        0.0480
     48 H           2.8296   -1.8629    0.8757 H       1  UNL1        0.0480
     49 H           0.7274   -2.0436   -0.0977 H       1  UNL1        0.0480
     50 H           1.8186   -1.8864   -1.5148 H       1  UNL1        0.0480
     51 H          -0.5583    2.5613   -1.1174 H       1  UNL1        0.0634
     52 H          -4.9063    4.2050   -0.7735 H       1  UNL1        0.0238
     53 H          -4.6588    4.5979   -2.5564 H       1  UNL1        0.0238
     54 H          -4.3289    5.8099   -1.3012 H       1  UNL1        0.0238
     55 H          -1.1086    5.2175   -0.5219 H       1  UNL1        0.0238
     56 H          -2.6281    6.0980   -0.2227 H       1  UNL1        0.0238
     57 H          -2.3375    4.6060    0.6885 H       1  UNL1        0.0238
     58 H          -2.8366    4.3427   -3.5464 H       1  UNL1        0.0238
     59 H          -1.1850    4.3366   -2.8527 H       1  UNL1        0.0238
     60 H          -2.2220    5.8725   -2.8066 H       1  UNL1        0.0238
     61 H          -3.7732   -1.6931   -1.6057 H       1  UNL1        0.1569
     62 H          -4.5265   -3.3919   -0.2011 H       1  UNL1        0.1564
     63 H          -4.2893   -1.8266    3.2200 H       1  UNL1        0.0637
     64 H          -4.8673   -2.9623    5.2641 H       1  UNL1        0.0619
     65 H          -5.6628   -5.3253    5.1366 H       1  UNL1        0.0633
     66 H           1.5266    1.7262   -1.1293 H       1  UNL1        0.0469
     67 H           0.5269    1.2930   -2.5599 H       1  UNL1        0.0469
     68 H           2.1245   -0.4006   -3.2806 H       1  UNL1        0.0374
     69 H           2.6474    1.2953   -3.3446 H       1  UNL1        0.0374
@<TRIPOS>BOND
     1     1     2    1
     2     2     3    1
     3     2     4    1
     4     4     5    1
     5     5     6    1
     6     6     7    1
     7     7     8    1
     8     8     9    1
     9     9    10   am
    10    10    11    2
    11    10    12    1
    12    12    13   ar
    13    13    14   ar
    14    14    15    1
    15    15    16    1
    16    15    17    1
    17    15    18    1
    18    14    19   ar
    19    19    20   ar
    20    20    21    1
    21    21    22   am
    22    22    23    2
    23    22    24   am
    24    24    25    1
    25    25    26   ar
    26    26    27   ar
    27    27    28   ar
    28    28    29   ar
    29    29    30    1
    30    29    31   ar
    31    31    32    1
    32     9    33    1
    33    33    34    1
    34    34    35    1
    35    35    36    2
    36    35     6   am
    37    20    12   ar
    38    31    25   ar
    39     1    37    1
    40     1    38    1
    41     1    39    1
    42     3    40    1
    43     3    41    1
    44     3    42    1
    45     4    43    1
    46     4    44    1
    47     5    45    1
    48     5    46    1
    49     7    47    1
    50     7    48    1
    51     8    49    1
    52     8    50    1
    53    13    51    1
    54    16    52    1
    55    16    53    1
    56    16    54    1
    57    17    55    1
    58    17    56    1
    59    17    57    1
    60    18    58    1
    61    18    59    1
    62    18    60    1
    63    21    61    1
    64    24    62    1
    65    26    63    1
    66    27    64    1
    67    28    65    1
    68    33    66    1
    69    33    67    1
    70    34    68    1
    71    34    69    1
