@<TRIPOS>MOLECULE
*****
 49 53 0 0 0
SMALL
GASTEIGER

@<TRIPOS>ATOM
      1 C          -6.3933    0.5874    0.2921 C.3     1  UNL1        0.0309
      2 N          -4.9480    0.4839    0.3484 N.ar    1  UNL1       -0.2660
      3 N          -4.2300    0.5387    1.4745 N.ar    1  UNL1       -0.1687
      4 C          -2.9335    0.4141    1.1861 C.ar    1  UNL1        0.1201
      5 C          -1.8466    0.4164    2.1500 C.ar    1  UNL1        0.1104
      6 C          -2.1050    0.5106    3.4984 C.ar    1  UNL1        0.0575
      7 N          -1.1531    0.5052    4.4454 N.ar    1  UNL1       -0.2338
      8 C           0.1508    0.3996    4.0482 C.ar    1  UNL1        0.1574
      9 N           1.3116    0.3636    4.7050 N.ar    1  UNL1       -0.3438
     10 C           2.3176    0.2497    3.8313 C.ar    1  UNL1        0.0178
     11 C           1.7877    0.2112    2.5721 C.ar    1  UNL1        0.0815
     12 C           2.5088    0.0992    1.2847 C.2     1  UNL1        0.2481
     13 O           3.6278    0.6761    1.1283 O.2     1  UNL1       -0.2701
     14 N           2.0013   -0.6390    0.1822 N.am    1  UNL1       -0.3059
     15 C           2.6982   -0.7476   -1.0826 C.3     1  UNL1        0.0349
     16 C           1.8959   -1.5896   -2.0569 C.3     1  UNL1       -0.0436
     17 C           4.1166   -1.2062   -1.0489 C.3     1  UNL1       -0.0165
     18 C           4.5173    0.1146   -1.7154 C.3     1  UNL1        0.0087
     19 N           5.0698   -0.1305   -3.0325 N.3     1  UNL1       -0.3271
     20 C           3.0780    0.5799   -1.6989 C.3     1  UNL1       -0.0165
     21 C           0.4053    0.3060    2.7049 C.ar    1  UNL1        0.1202
     22 N          -0.5492    0.3110    1.7440 N.ar    1  UNL1       -0.2397
     23 C          -2.8390    0.2754   -0.1882 C.ar    1  UNL1        0.0293
     24 C          -1.7943    0.1081   -1.0610 C.ar    1  UNL1       -0.0477
     25 C          -2.0085   -0.0116   -2.4169 C.ar    1  UNL1       -0.0257
     26 C          -3.3033    0.0339   -2.9514 C.ar    1  UNL1        0.1254
     27 F          -3.5271   -0.0817   -4.2794 F       1  UNL1       -0.2054
     28 C          -4.3527    0.2046   -2.0466 C.ar    1  UNL1       -0.0008
     29 C          -4.1447    0.3233   -0.6991 C.ar    1  UNL1        0.0720
     30 H          -6.8073   -0.3843    0.6236 H       1  UNL1        0.0473
     31 H          -6.6900    0.8031   -0.7682 H       1  UNL1        0.0473
     32 H          -6.7600    1.4335    0.9265 H       1  UNL1        0.0473
     33 H          -3.1722    0.5906    3.7724 H       1  UNL1        0.0853
     34 H           1.4168    0.4174    5.7424 H       1  UNL1        0.1668
     35 H           3.3846    0.1947    4.0505 H       1  UNL1        0.0816
     36 H           1.0715   -1.1146    0.3389 H       1  UNL1        0.1495
     37 H           1.2638   -2.2772   -1.4556 H       1  UNL1        0.0250
     38 H           1.2274   -0.8984   -2.6207 H       1  UNL1        0.0250
     39 H           2.5131   -2.2085   -2.7046 H       1  UNL1        0.0250
     40 H           4.3359   -2.0957   -1.6945 H       1  UNL1        0.0301
     41 H           4.5801   -1.3772   -0.0677 H       1  UNL1        0.0301
     42 H           5.2146    0.7232   -1.1124 H       1  UNL1        0.0459
     43 H           6.1105    0.0408   -3.0390 H       1  UNL1        0.1185
     44 H           4.6298    0.4845   -3.7515 H       1  UNL1        0.1185
     45 H           2.8690    1.4693   -1.0742 H       1  UNL1        0.0301
     46 H           2.7348    0.7305   -2.7505 H       1  UNL1        0.0301
     47 H          -0.7615    0.0682   -0.6832 H       1  UNL1        0.0626
     48 H          -1.1718   -0.1454   -3.0795 H       1  UNL1        0.0646
     49 H          -5.3476    0.2393   -2.4872 H       1  UNL1        0.0667
@<TRIPOS>BOND
     1     1     2    1
     2     2     3   ar
     3     3     4   ar
     4     4     5    1
     5     5     6   ar
     6     6     7   ar
     7     7     8   ar
     8     8     9   ar
     9     9    10   ar
    10    10    11   ar
    11    11    12    1
    12    12    13    2
    13    12    14   am
    14    15    14    1
    15    15    16    1
    16    15    17    1
    17    17    18    1
    18    18    19    1
    19    18    20    1
    20    11    21   ar
    21    21    22   ar
    22     4    23   ar
    23    23    24   ar
    24    24    25   ar
    25    25    26   ar
    26    26    27    1
    27    26    28   ar
    28    28    29   ar
    29    29     2   ar
    30    22     5   ar
    31    29    23   ar
    32    21     8   ar
    33    20    15    1
    34     1    30    1
    35     1    31    1
    36     1    32    1
    37     6    33    1
    38     9    34    1
    39    10    35    1
    40    14    36    1
    41    16    37    1
    42    16    38    1
    43    16    39    1
    44    17    40    1
    45    17    41    1
    46    18    42    1
    47    19    43    1
    48    19    44    1
    49    20    45    1
    50    20    46    1
    51    24    47    1
    52    25    48    1
    53    28    49    1
