
     RDKit          3D

 49 53  0  0  0  0  0  0  0  0999 V2000
   -6.3933    0.5874    0.2921 C   0  0  0  0  0  0  0  0  0  0  0  0
   -4.9480    0.4839    0.3484 N   0  0  0  0  0  0  0  0  0  0  0  0
   -4.2300    0.5387    1.4745 N   0  0  0  0  0  0  0  0  0  0  0  0
   -2.9335    0.4141    1.1861 C   0  0  0  0  0  0  0  0  0  0  0  0
   -1.8466    0.4164    2.1500 C   0  0  0  0  0  0  0  0  0  0  0  0
   -2.1050    0.5106    3.4984 C   0  0  0  0  0  0  0  0  0  0  0  0
   -1.1531    0.5052    4.4454 N   0  0  0  0  0  0  0  0  0  0  0  0
    0.1508    0.3996    4.0482 C   0  0  0  0  0  0  0  0  0  0  0  0
    1.3116    0.3636    4.7050 N   0  0  0  0  0  0  0  0  0  0  0  0
    2.3176    0.2497    3.8313 C   0  0  0  0  0  0  0  0  0  0  0  0
    1.7877    0.2112    2.5721 C   0  0  0  0  0  0  0  0  0  0  0  0
    2.5088    0.0992    1.2847 C   0  0  0  0  0  0  0  0  0  0  0  0
    3.6278    0.6761    1.1283 O   0  0  0  0  0  0  0  0  0  0  0  0
    2.0013   -0.6390    0.1822 N   0  0  0  0  0  0  0  0  0  0  0  0
    2.6982   -0.7476   -1.0826 C   0  0  2  0  0  0  0  0  0  0  0  0
    1.8959   -1.5896   -2.0569 C   0  0  0  0  0  0  0  0  0  0  0  0
    4.1166   -1.2062   -1.0489 C   0  0  0  0  0  0  0  0  0  0  0  0
    4.5173    0.1146   -1.7154 C   0  0  1  0  0  0  0  0  0  0  0  0
    5.0698   -0.1305   -3.0325 N   0  0  0  0  0  0  0  0  0  0  0  0
    3.0780    0.5799   -1.6989 C   0  0  0  0  0  0  0  0  0  0  0  0
    0.4053    0.3060    2.7049 C   0  0  0  0  0  0  0  0  0  0  0  0
   -0.5492    0.3110    1.7440 N   0  0  0  0  0  0  0  0  0  0  0  0
   -2.8390    0.2754   -0.1882 C   0  0  0  0  0  0  0  0  0  0  0  0
   -1.7943    0.1081   -1.0610 C   0  0  0  0  0  0  0  0  0  0  0  0
   -2.0085   -0.0116   -2.4169 C   0  0  0  0  0  0  0  0  0  0  0  0
   -3.3033    0.0339   -2.9514 C   0  0  0  0  0  0  0  0  0  0  0  0
   -3.5271   -0.0817   -4.2794 F   0  0  0  0  0  0  0  0  0  0  0  0
   -4.3527    0.2046   -2.0466 C   0  0  0  0  0  0  0  0  0  0  0  0
   -4.1447    0.3233   -0.6991 C   0  0  0  0  0  0  0  0  0  0  0  0
   -6.8073   -0.3843    0.6236 H   0  0  0  0  0  0  0  0  0  0  0  0
   -6.6900    0.8031   -0.7682 H   0  0  0  0  0  0  0  0  0  0  0  0
   -6.7600    1.4335    0.9265 H   0  0  0  0  0  0  0  0  0  0  0  0
   -3.1722    0.5906    3.7724 H   0  0  0  0  0  0  0  0  0  0  0  0
    1.4168    0.4174    5.7424 H   0  0  0  0  0  0  0  0  0  0  0  0
    3.3846    0.1947    4.0505 H   0  0  0  0  0  0  0  0  0  0  0  0
    1.0715   -1.1146    0.3389 H   0  0  0  0  0  0  0  0  0  0  0  0
    1.2638   -2.2772   -1.4556 H   0  0  0  0  0  0  0  0  0  0  0  0
    1.2274   -0.8984   -2.6207 H   0  0  0  0  0  0  0  0  0  0  0  0
    2.5131   -2.2085   -2.7046 H   0  0  0  0  0  0  0  0  0  0  0  0
    4.3359   -2.0957   -1.6945 H   0  0  0  0  0  0  0  0  0  0  0  0
    4.5801   -1.3772   -0.0677 H   0  0  0  0  0  0  0  0  0  0  0  0
    5.2146    0.7232   -1.1124 H   0  0  0  0  0  0  0  0  0  0  0  0
    6.1105    0.0408   -3.0390 H   0  0  0  0  0  0  0  0  0  0  0  0
    4.6298    0.4845   -3.7515 H   0  0  0  0  0  0  0  0  0  0  0  0
    2.8690    1.4693   -1.0742 H   0  0  0  0  0  0  0  0  0  0  0  0
    2.7348    0.7305   -2.7505 H   0  0  0  0  0  0  0  0  0  0  0  0
   -0.7615    0.0682   -0.6832 H   0  0  0  0  0  0  0  0  0  0  0  0
   -1.1718   -0.1454   -3.0795 H   0  0  0  0  0  0  0  0  0  0  0  0
   -5.3476    0.2393   -2.4872 H   0  0  0  0  0  0  0  0  0  0  0  0
  1  2  1  0
  2  3  1  0
  3  4  2  0
  4  5  1  0
  5  6  2  0
  6  7  1  0
  7  8  2  0
  8  9  1  0
  9 10  1  0
 10 11  2  0
 11 12  1  0
 12 13  2  0
 12 14  1  0
 15 14  1  1
 15 16  1  0
 15 17  1  0
 17 18  1  0
 18 19  1  0
 18 20  1  0
 11 21  1  0
 21 22  2  0
  4 23  1  0
 23 24  2  0
 24 25  1  0
 25 26  2  0
 26 27  1  0
 26 28  1  0
 28 29  2  0
 29  2  1  0
 22  5  1  0
 29 23  1  0
 21  8  1  0
 20 15  1  0
  1 30  1  0
  1 31  1  0
  1 32  1  0
  6 33  1  0
  9 34  1  0
 10 35  1  0
 14 36  1  0
 16 37  1  0
 16 38  1  0
 16 39  1  0
 17 40  1  0
 17 41  1  0
 18 42  1  1
 19 43  1  0
 19 44  1  0
 20 45  1  0
 20 46  1  0
 24 47  1  0
 25 48  1  0
 28 49  1  0
M  END
$$$$
