
     RDKit          3D

 84 89  0  0  0  0  0  0  0  0999 V2000
    6.6309    0.1866    2.5388 C   0  0  0  0  0  0  0  0  0  0  0  0
    6.2074   -0.3528    1.2151 C   0  0  0  0  0  0  0  0  0  0  0  0
    4.9647   -0.5064    0.8058 C   0  0  0  0  0  0  0  0  0  0  0  0
    3.7288   -0.2022    1.5085 C   0  0  0  0  0  0  0  0  0  0  0  0
    3.8351    0.2973    2.6629 O   0  0  0  0  0  0  0  0  0  0  0  0
    2.4405   -0.4194    1.0077 N   0  0  0  0  0  0  0  0  0  0  0  0
    1.2166   -0.0947    1.7328 C   0  0  2  0  0  0  0  0  0  0  0  0
    0.6064   -1.3340    2.3623 C   0  0  0  0  0  0  0  0  0  0  0  0
    0.2882    0.6531    0.8724 C   0  0  0  0  0  0  0  0  0  0  0  0
    0.6820    0.9355   -0.2836 O   0  0  0  0  0  0  0  0  0  0  0  0
   -1.0068    1.0547    1.2904 N   0  0  0  0  0  0  0  0  0  0  0  0
   -1.9790    1.7747    0.5242 C   0  0  1  0  0  0  0  0  0  0  0  0
   -1.4487    2.6497   -0.5670 C   0  0  0  0  0  0  0  0  0  0  0  0
   -0.5871    3.7791   -0.1344 C   0  0  0  0  0  0  0  0  0  0  0  0
    0.3087    3.9298    0.8779 C   0  0  0  0  0  0  0  0  0  0  0  0
    0.8282    5.1978    0.8891 N   0  0  0  0  0  0  0  0  0  0  0  0
    0.2551    5.8585   -0.1261 C   0  0  0  0  0  0  0  0  0  0  0  0
    0.4147    7.1594   -0.5807 C   0  0  0  0  0  0  0  0  0  0  0  0
   -0.2706    7.6563   -1.6671 C   0  0  0  0  0  0  0  0  0  0  0  0
   -1.1398    6.7998   -2.3017 C   0  0  0  0  0  0  0  0  0  0  0  0
   -1.3195    5.4829   -1.8632 C   0  0  0  0  0  0  0  0  0  0  0  0
   -0.6150    5.0434   -0.7823 C   0  0  0  0  0  0  0  0  0  0  0  0
   -3.0154    0.9020   -0.0371 C   0  0  0  0  0  0  0  0  0  0  0  0
   -3.9603    1.3779   -0.6877 O   0  0  0  0  0  0  0  0  0  0  0  0
   -2.9774   -0.5284    0.1355 N   0  0  0  0  0  0  0  0  0  0  0  0
   -3.9714   -1.4206   -0.4250 C   0  0  1  0  0  0  0  0  0  0  0  0
   -3.3282   -2.2622   -1.5155 C   0  0  0  0  0  0  0  0  0  0  0  0
   -4.2669   -3.2040   -2.1313 C   0  0  0  0  0  0  0  0  0  0  0  0
   -4.3120   -4.5286   -1.6872 C   0  0  0  0  0  0  0  0  0  0  0  0
   -5.1901   -5.4098   -2.2678 C   0  0  0  0  0  0  0  0  0  0  0  0
   -6.0228   -4.9758   -3.2876 C   0  0  0  0  0  0  0  0  0  0  0  0
   -6.0053   -3.6810   -3.7485 C   0  0  0  0  0  0  0  0  0  0  0  0
   -5.1251   -2.8027   -3.1650 C   0  0  0  0  0  0  0  0  0  0  0  0
   -4.6581   -2.2130    0.5605 C   0  0  0  0  0  0  0  0  0  0  0  0
   -5.5386   -3.0003    0.1070 O   0  0  0  0  0  0  0  0  0  0  0  0
   -4.5112   -2.2620    2.0154 C   0  0  1  0  0  0  0  0  0  0  0  0
   -3.5393   -1.3910    2.7637 C   0  0  0  0  0  0  0  0  0  0  0  0
   -5.4100   -3.0948    2.7911 C   0  0  0  0  0  0  0  0  0  0  0  0
   -4.2208   -3.6901    2.4006 O   0  0  0  0  0  0  0  0  0  0  0  0
    4.9947   -1.0532   -0.5877 C   0  0  0  0  0  0  0  0  0  0  0  0
    6.4216   -1.2211   -0.9101 C   0  0  0  0  0  0  0  0  0  0  0  0
    7.0050   -1.7049   -2.0645 C   0  0  0  0  0  0  0  0  0  0  0  0
    8.3786   -1.7536   -2.1247 C   0  0  0  0  0  0  0  0  0  0  0  0
    9.1363   -1.3291   -1.0578 C   0  0  0  0  0  0  0  0  0  0  0  0
    8.5275   -0.8427    0.1006 C   0  0  0  0  0  0  0  0  0  0  0  0
    7.1343   -0.7894    0.1711 C   0  0  0  0  0  0  0  0  0  0  0  0
    6.6199    1.3145    2.5284 H   0  0  0  0  0  0  0  0  0  0  0  0
    6.0176   -0.2025    3.3735 H   0  0  0  0  0  0  0  0  0  0  0  0
    7.6788   -0.1236    2.7377 H   0  0  0  0  0  0  0  0  0  0  0  0
    2.3826   -0.8466    0.0372 H   0  0  0  0  0  0  0  0  0  0  0  0
    1.4632    0.5594    2.6133 H   0  0  0  0  0  0  0  0  0  0  0  0
   -0.3334   -0.9910    2.8394 H   0  0  0  0  0  0  0  0  0  0  0  0
    1.2712   -1.5805    3.2473 H   0  0  0  0  0  0  0  0  0  0  0  0
    0.5074   -2.1801    1.6874 H   0  0  0  0  0  0  0  0  0  0  0  0
   -1.2252    0.7614    2.2986 H   0  0  0  0  0  0  0  0  0  0  0  0
   -2.4536    2.4998    1.2437 H   0  0  0  0  0  0  0  0  0  0  0  0
   -0.9192    2.0568   -1.3141 H   0  0  0  0  0  0  0  0  0  0  0  0
   -2.3426    3.0926   -1.1334 H   0  0  0  0  0  0  0  0  0  0  0  0
    0.6031    3.2142    1.6047 H   0  0  0  0  0  0  0  0  0  0  0  0
    1.5294    5.5842    1.5508 H   0  0  0  0  0  0  0  0  0  0  0  0
    1.1184    7.7836   -0.0300 H   0  0  0  0  0  0  0  0  0  0  0  0
   -0.1132    8.6861   -1.9917 H   0  0  0  0  0  0  0  0  0  0  0  0
   -1.6918    7.1397   -3.1476 H   0  0  0  0  0  0  0  0  0  0  0  0
   -2.0040    4.8239   -2.3713 H   0  0  0  0  0  0  0  0  0  0  0  0
   -2.1590   -0.8633    0.6854 H   0  0  0  0  0  0  0  0  0  0  0  0
   -4.7298   -0.7769   -1.0115 H   0  0  0  0  0  0  0  0  0  0  0  0
   -2.9730   -1.5569   -2.3208 H   0  0  0  0  0  0  0  0  0  0  0  0
   -2.3959   -2.7410   -1.1469 H   0  0  0  0  0  0  0  0  0  0  0  0
   -3.6323   -4.8077   -0.8831 H   0  0  0  0  0  0  0  0  0  0  0  0
   -5.2074   -6.4384   -1.9104 H   0  0  0  0  0  0  0  0  0  0  0  0
   -6.6879   -5.6968   -3.7071 H   0  0  0  0  0  0  0  0  0  0  0  0
   -6.6381   -3.3150   -4.5363 H   0  0  0  0  0  0  0  0  0  0  0  0
   -5.0767   -1.7710   -3.4953 H   0  0  0  0  0  0  0  0  0  0  0  0
   -3.8865   -1.3835    3.8428 H   0  0  0  0  0  0  0  0  0  0  0  0
   -2.5474   -1.8432    2.7718 H   0  0  0  0  0  0  0  0  0  0  0  0
   -3.6281   -0.3582    2.4418 H   0  0  0  0  0  0  0  0  0  0  0  0
   -5.5202   -2.9395    3.8659 H   0  0  0  0  0  0  0  0  0  0  0  0
   -6.3138   -3.5080    2.2669 H   0  0  0  0  0  0  0  0  0  0  0  0
    4.6199   -0.2606   -1.2966 H   0  0  0  0  0  0  0  0  0  0  0  0
    4.4169   -1.9731   -0.6139 H   0  0  0  0  0  0  0  0  0  0  0  0
    6.4314   -2.0437   -2.9147 H   0  0  0  0  0  0  0  0  0  0  0  0
    8.9191   -2.1235   -3.0038 H   0  0  0  0  0  0  0  0  0  0  0  0
   10.2271   -1.3589   -1.0846 H   0  0  0  0  0  0  0  0  0  0  0  0
    9.0867   -0.5034    0.9471 H   0  0  0  0  0  0  0  0  0  0  0  0
  1  2  1  0
  2  3  2  0
  3  4  1  0
  4  5  2  0
  4  6  1  0
  6  7  1  0
  7  8  1  0
  7  9  1  0
  9 10  2  0
  9 11  1  0
 11 12  1  0
 12 13  1  0
 13 14  1  0
 14 15  2  0
 15 16  1  0
 16 17  1  0
 17 18  2  0
 18 19  1  0
 19 20  2  0
 20 21  1  0
 21 22  2  0
 12 23  1  0
 23 24  2  0
 23 25  1  0
 25 26  1  0
 26 27  1  0
 27 28  1  0
 28 29  2  0
 29 30  1  0
 30 31  2  0
 31 32  1  0
 32 33  2  0
 26 34  1  0
 34 35  2  0
 34 36  1  0
 36 37  1  1
 36 38  1  0
 38 39  1  0
  3 40  1  0
 40 41  1  0
 41 42  2  0
 42 43  1  0
 43 44  2  0
 44 45  1  0
 45 46  2  0
 46  2  1  0
 22 14  1  0
 33 28  1  0
 39 36  1  0
 46 41  1  0
 22 17  1  0
  1 47  1  0
  1 48  1  0
  1 49  1  0
  6 50  1  0
  7 51  1  1
  8 52  1  0
  8 53  1  0
  8 54  1  0
 11 55  1  0
 12 56  1  1
 13 57  1  0
 13 58  1  0
 15 59  1  0
 16 60  1  0
 18 61  1  0
 19 62  1  0
 20 63  1  0
 21 64  1  0
 25 65  1  0
 26 66  1  6
 27 67  1  0
 27 68  1  0
 29 69  1  0
 30 70  1  0
 31 71  1  0
 32 72  1  0
 33 73  1  0
 37 74  1  0
 37 75  1  0
 37 76  1  0
 38 77  1  0
 38 78  1  0
 40 79  1  0
 40 80  1  0
 42 81  1  0
 43 82  1  0
 44 83  1  0
 45 84  1  0
M  END
$$$$
