@<TRIPOS>MOLECULE
*****
 84 89 0 0 0
SMALL
GASTEIGER

@<TRIPOS>ATOM
      1 C           6.6309    0.1866    2.5388 C.3     1  UNL1       -0.0387
      2 C           6.2074   -0.3528    1.2151 C.2     1  UNL1       -0.0346
      3 C           4.9647   -0.5064    0.8058 C.2     1  UNL1        0.0221
      4 C           3.7288   -0.2022    1.5085 C.2     1  UNL1        0.2412
      5 O           3.8351    0.2973    2.6629 O.2     1  UNL1       -0.2705
      6 N           2.4405   -0.4194    1.0077 N.am    1  UNL1       -0.3005
      7 C           1.2166   -0.0947    1.7328 C.3     1  UNL1        0.0969
      8 C           0.6064   -1.3340    2.3623 C.3     1  UNL1       -0.0381
      9 C           0.2882    0.6531    0.8724 C.2     1  UNL1        0.2337
     10 O           0.6820    0.9355   -0.2836 O.2     1  UNL1       -0.2738
     11 N          -1.0068    1.0547    1.2904 N.am    1  UNL1       -0.3022
     12 C          -1.9790    1.7747    0.5242 C.3     1  UNL1        0.1034
     13 C          -1.4487    2.6497   -0.5670 C.3     1  UNL1        0.0013
     14 C          -0.5871    3.7791   -0.1344 C.ar    1  UNL1       -0.0201
     15 C           0.3087    3.9298    0.8779 C.ar    1  UNL1        0.0060
     16 N           0.8282    5.1978    0.8891 N.ar    1  UNL1       -0.3604
     17 C           0.2551    5.8585   -0.1261 C.ar    1  UNL1        0.0467
     18 C           0.4147    7.1594   -0.5807 C.ar    1  UNL1       -0.0378
     19 C          -0.2706    7.6563   -1.6671 C.ar    1  UNL1       -0.0598
     20 C          -1.1398    6.7998   -2.3017 C.ar    1  UNL1       -0.0611
     21 C          -1.3195    5.4829   -1.8632 C.ar    1  UNL1       -0.0523
     22 C          -0.6150    5.0434   -0.7823 C.ar    1  UNL1        0.0029
     23 C          -3.0154    0.9020   -0.0371 C.2     1  UNL1        0.2342
     24 O          -3.9603    1.3779   -0.6877 O.2     1  UNL1       -0.2738
     25 N          -2.9774   -0.5284    0.1355 N.am    1  UNL1       -0.3037
     26 C          -3.9714   -1.4206   -0.4250 C.3     1  UNL1        0.0884
     27 C          -3.3282   -2.2622   -1.5155 C.3     1  UNL1       -0.0022
     28 C          -4.2669   -3.2040   -2.1313 C.ar    1  UNL1       -0.0452
     29 C          -4.3120   -4.5286   -1.6872 C.ar    1  UNL1       -0.0585
     30 C          -5.1901   -5.4098   -2.2678 C.ar    1  UNL1       -0.0615
     31 C          -6.0228   -4.9758   -3.2876 C.ar    1  UNL1       -0.0617
     32 C          -6.0053   -3.6810   -3.7485 C.ar    1  UNL1       -0.0615
     33 C          -5.1251   -2.8027   -3.1650 C.ar    1  UNL1       -0.0585
     34 C          -4.6581   -2.2130    0.5605 C.2     1  UNL1        0.1871
     35 O          -5.5386   -3.0003    0.1070 O.2     1  UNL1       -0.2923
     36 C          -4.5112   -2.2620    2.0154 C.3     1  UNL1        0.1492
     37 C          -3.5393   -1.3910    2.7637 C.3     1  UNL1       -0.0266
     38 C          -5.4100   -3.0948    2.7911 C.3     1  UNL1        0.0847
     39 O          -4.2208   -3.6901    2.4006 O.3     1  UNL1       -0.3605
     40 C           4.9947   -1.0532   -0.5877 C.3     1  UNL1        0.0033
     41 C           6.4216   -1.2211   -0.9101 C.ar    1  UNL1       -0.0355
     42 C           7.0050   -1.7049   -2.0645 C.ar    1  UNL1       -0.0577
     43 C           8.3786   -1.7536   -2.1247 C.ar    1  UNL1       -0.0615
     44 C           9.1363   -1.3291   -1.0578 C.ar    1  UNL1       -0.0612
     45 C           8.5275   -0.8427    0.1006 C.ar    1  UNL1       -0.0541
     46 C           7.1343   -0.7894    0.1711 C.ar    1  UNL1       -0.0182
     47 H           6.6199    1.3145    2.5284 H       1  UNL1        0.0278
     48 H           6.0176   -0.2025    3.3735 H       1  UNL1        0.0278
     49 H           7.6788   -0.1236    2.7377 H       1  UNL1        0.0278
     50 H           2.3826   -0.8466    0.0372 H       1  UNL1        0.1498
     51 H           1.4632    0.5594    2.6133 H       1  UNL1        0.0592
     52 H          -0.3334   -0.9910    2.8394 H       1  UNL1        0.0252
     53 H           1.2712   -1.5805    3.2473 H       1  UNL1        0.0252
     54 H           0.5074   -2.1801    1.6874 H       1  UNL1        0.0252
     55 H          -1.2252    0.7614    2.2986 H       1  UNL1        0.1495
     56 H          -2.4536    2.4998    1.2437 H       1  UNL1        0.0598
     57 H          -0.9192    2.0568   -1.3141 H       1  UNL1        0.0337
     58 H          -2.3426    3.0926   -1.1334 H       1  UNL1        0.0337
     59 H           0.6031    3.2142    1.6047 H       1  UNL1        0.0810
     60 H           1.5294    5.5842    1.5508 H       1  UNL1        0.1653
     61 H           1.1184    7.7836   -0.0300 H       1  UNL1        0.0638
     62 H          -0.1132    8.6861   -1.9917 H       1  UNL1        0.0618
     63 H          -1.6918    7.1397   -3.1476 H       1  UNL1        0.0618
     64 H          -2.0040    4.8239   -2.3713 H       1  UNL1        0.0624
     65 H          -2.1590   -0.8633    0.6854 H       1  UNL1        0.1495
     66 H          -4.7298   -0.7769   -1.0115 H       1  UNL1        0.0581
     67 H          -2.9730   -1.5569   -2.3208 H       1  UNL1        0.0335
     68 H          -2.3959   -2.7410   -1.1469 H       1  UNL1        0.0335
     69 H          -3.6323   -4.8077   -0.8831 H       1  UNL1        0.0620
     70 H          -5.2074   -6.4384   -1.9104 H       1  UNL1        0.0618
     71 H          -6.6879   -5.6968   -3.7071 H       1  UNL1        0.0618
     72 H          -6.6381   -3.3150   -4.5363 H       1  UNL1        0.0618
     73 H          -5.0767   -1.7710   -3.4953 H       1  UNL1        0.0620
     74 H          -3.8865   -1.3835    3.8428 H       1  UNL1        0.0262
     75 H          -2.5474   -1.8432    2.7718 H       1  UNL1        0.0262
     76 H          -3.6281   -0.3582    2.4418 H       1  UNL1        0.0262
     77 H          -5.5202   -2.9395    3.8659 H       1  UNL1        0.0593
     78 H          -6.3138   -3.5080    2.2669 H       1  UNL1        0.0593
     79 H           4.6199   -0.2606   -1.2966 H       1  UNL1        0.0363
     80 H           4.4169   -1.9731   -0.6139 H       1  UNL1        0.0363
     81 H           6.4314   -2.0437   -2.9147 H       1  UNL1        0.0621
     82 H           8.9191   -2.1235   -3.0038 H       1  UNL1        0.0618
     83 H          10.2271   -1.3589   -1.0846 H       1  UNL1        0.0618
     84 H           9.0867   -0.5034    0.9471 H       1  UNL1        0.0624
@<TRIPOS>BOND
     1     1     2    1
     2     2     3    2
     3     3     4    1
     4     4     5    2
     5     4     6   am
     6     6     7    1
     7     7     8    1
     8     7     9    1
     9     9    10    2
    10     9    11   am
    11    11    12    1
    12    12    13    1
    13    13    14    1
    14    14    15   ar
    15    15    16   ar
    16    16    17   ar
    17    17    18   ar
    18    18    19   ar
    19    19    20   ar
    20    20    21   ar
    21    21    22   ar
    22    12    23    1
    23    23    24    2
    24    23    25   am
    25    25    26    1
    26    26    27    1
    27    27    28    1
    28    28    29   ar
    29    29    30   ar
    30    30    31   ar
    31    31    32   ar
    32    32    33   ar
    33    26    34    1
    34    34    35    2
    35    34    36    1
    36    36    37    1
    37    36    38    1
    38    38    39    1
    39     3    40    1
    40    40    41    1
    41    41    42   ar
    42    42    43   ar
    43    43    44   ar
    44    44    45   ar
    45    45    46   ar
    46    46     2    1
    47    22    14   ar
    48    33    28   ar
    49    39    36    1
    50    46    41   ar
    51    22    17   ar
    52     1    47    1
    53     1    48    1
    54     1    49    1
    55     6    50    1
    56     7    51    1
    57     8    52    1
    58     8    53    1
    59     8    54    1
    60    11    55    1
    61    12    56    1
    62    13    57    1
    63    13    58    1
    64    15    59    1
    65    16    60    1
    66    18    61    1
    67    19    62    1
    68    20    63    1
    69    21    64    1
    70    25    65    1
    71    26    66    1
    72    27    67    1
    73    27    68    1
    74    29    69    1
    75    30    70    1
    76    31    71    1
    77    32    72    1
    78    33    73    1
    79    37    74    1
    80    37    75    1
    81    37    76    1
    82    38    77    1
    83    38    78    1
    84    40    79    1
    85    40    80    1
    86    42    81    1
    87    43    82    1
    88    44    83    1
    89    45    84    1
