@<TRIPOS>MOLECULE
*****
 54 58 0 0 0
SMALL
GASTEIGER

@<TRIPOS>ATOM
      1 C          -3.7203   -3.3129   -1.2203 C.3     1  UNL1        0.0788
      2 O          -2.6357   -2.7381   -0.5614 O.3     1  UNL1       -0.4944
      3 C          -2.5764   -1.3966   -0.1859 C.ar    1  UNL1        0.1299
      4 C          -3.6245   -0.5151   -0.4499 C.ar    1  UNL1       -0.0102
      5 C          -3.5897    0.8084   -0.0904 C.ar    1  UNL1        0.0040
      6 C          -4.7185    1.7054   -0.3820 C.ar    1  UNL1       -0.0137
      7 C          -6.0097    1.2519   -0.1350 C.ar    1  UNL1       -0.0538
      8 C          -7.1142    2.0269   -0.3771 C.ar    1  UNL1       -0.0585
      9 C          -6.9685    3.3040   -0.8830 C.ar    1  UNL1       -0.0264
     10 C          -5.6860    3.7555   -1.1286 C.ar    1  UNL1        0.1240
     11 F          -5.5497    5.0071   -1.6228 F       1  UNL1       -0.2055
     12 C          -4.5678    2.9609   -0.8796 C.ar    1  UNL1       -0.0187
     13 C          -2.4538    1.2461    0.5566 C.ar    1  UNL1        0.0495
     14 CL         -2.3033    2.9146    1.0628 Cl      1  UNL1       -0.0829
     15 C          -1.3916    0.4057    0.8377 C.ar    1  UNL1       -0.0301
     16 C          -1.4449   -0.9413    0.4636 C.ar    1  UNL1        0.0440
     17 C          -0.3577   -1.8539    0.7629 C.ar    1  UNL1        0.0822
     18 N          -0.5734   -2.9712    1.5128 N.ar    1  UNL1       -0.2542
     19 C           0.4173   -3.8263    1.7960 C.ar    1  UNL1        0.0289
     20 C           1.6931   -3.6247    1.3499 C.ar    1  UNL1       -0.0358
     21 C           1.9679   -2.5105    0.5864 C.ar    1  UNL1       -0.0126
     22 C           3.2462   -2.2891    0.1189 C.ar    1  UNL1       -0.0272
     23 C           3.5437   -1.1693   -0.6631 C.ar    1  UNL1        0.1091
     24 S           5.1580   -0.9241   -1.2675 S.O2    1  UNL1        0.0735
     25 O           5.0655    0.0395   -2.4333 O.2     1  UNL1       -0.1499
     26 O           5.7205   -2.1962   -1.8507 O.2     1  UNL1       -0.1499
     27 N           6.2505   -0.2986   -0.1004 N.pl3   1  UNL1       -0.1994
     28 C           6.1387    0.9358    0.5396 C.ar    1  UNL1        0.1409
     29 C           5.1775    1.8631    0.2978 C.ar    1  UNL1       -0.0023
     30 C           5.1551    3.0902    0.9658 C.ar    1  UNL1        0.0326
     31 N           6.1023    3.3724    1.8714 N.ar    1  UNL1       -0.2436
     32 C           7.0528    2.4443    2.1031 C.ar    1  UNL1        0.1180
     33 N           7.0806    1.2679    1.4681 N.ar    1  UNL1       -0.2195
     34 C           2.5094   -0.3261   -0.9296 C.ar    1  UNL1       -0.0344
     35 C           1.2173   -0.5295   -0.4695 C.ar    1  UNL1       -0.0501
     36 C           0.9178   -1.6387    0.3073 C.ar    1  UNL1        0.0083
     37 H          -3.5002   -4.4037   -1.3366 H       1  UNL1        0.0660
     38 H          -4.6562   -3.2234   -0.6357 H       1  UNL1        0.0660
     39 H          -3.8398   -2.8276   -2.2196 H       1  UNL1        0.0660
     40 H          -4.4839   -0.9445   -0.9647 H       1  UNL1        0.0661
     41 H          -6.1398    0.2564    0.2600 H       1  UNL1        0.0624
     42 H          -8.1247    1.6604   -0.1798 H       1  UNL1        0.0619
     43 H          -7.8415    3.9410   -1.0843 H       1  UNL1        0.0646
     44 H          -3.5832    3.3614   -1.0900 H       1  UNL1        0.0652
     45 H          -0.5123    0.7897    1.3543 H       1  UNL1        0.0640
     46 H           0.1962   -4.6924    2.3904 H       1  UNL1        0.0830
     47 H           2.5250   -4.2913    1.5563 H       1  UNL1        0.0639
     48 H           4.0262   -2.9736    0.3499 H       1  UNL1        0.0643
     49 H           7.0974   -0.9110    0.1597 H       1  UNL1        0.1752
     50 H           4.4178    1.6832   -0.4192 H       1  UNL1        0.0667
     51 H           4.3558    3.7830    0.7190 H       1  UNL1        0.0831
     52 H           7.8151    2.7079    2.8525 H       1  UNL1        0.1047
     53 H           2.6648    0.5580   -1.5351 H       1  UNL1        0.0637
     54 H           0.4546    0.1893   -0.7338 H       1  UNL1        0.0625
@<TRIPOS>BOND
     1     1     2    1
     2     2     3    1
     3     3     4   ar
     4     4     5   ar
     5     5     6    1
     6     6     7   ar
     7     7     8   ar
     8     8     9   ar
     9     9    10   ar
    10    10    11    1
    11    10    12   ar
    12     5    13   ar
    13    13    14    1
    14    13    15   ar
    15    15    16   ar
    16    16    17    1
    17    17    18   ar
    18    18    19   ar
    19    19    20   ar
    20    20    21   ar
    21    21    22   ar
    22    22    23   ar
    23    23    24    1
    24    24    25    2
    25    24    26    2
    26    24    27    1
    27    27    28    1
    28    28    29   ar
    29    29    30   ar
    30    30    31   ar
    31    31    32   ar
    32    32    33   ar
    33    23    34   ar
    34    34    35   ar
    35    35    36   ar
    36    16     3   ar
    37    36    17   ar
    38    12     6   ar
    39    36    21   ar
    40    33    28   ar
    41     1    37    1
    42     1    38    1
    43     1    39    1
    44     4    40    1
    45     7    41    1
    46     8    42    1
    47     9    43    1
    48    12    44    1
    49    15    45    1
    50    19    46    1
    51    20    47    1
    52    22    48    1
    53    27    49    1
    54    29    50    1
    55    30    51    1
    56    32    52    1
    57    34    53    1
    58    35    54    1
