
     RDKit          3D

 42 44  0  0  0  0  0  0  0  0999 V2000
   -1.0965    0.2461   -1.4644 C   0  0  1  0  0  0  0  0  0  0  0  0
   -2.2610    1.0481   -1.4614 N   0  0  0  0  0  0  0  0  0  0  0  0
   -2.6782    2.1905   -0.7771 C   0  0  0  0  0  0  0  0  0  0  0  0
   -4.1284    2.8944   -1.0184 S   0  0  0  0  0  0  0  0  0  0  0  0
   -1.6605    2.6110    0.1259 N   0  0  0  0  0  0  0  0  0  0  0  0
   -1.9736    3.7990    0.9076 C   0  0  0  0  0  0  0  0  0  0  0  0
   -0.4483    1.8913    0.2215 C   0  0  0  0  0  0  0  0  0  0  0  0
    0.4503    2.5288    1.2184 C   0  0  0  0  0  0  0  0  0  0  0  0
   -0.0955    0.7854   -0.4713 C   0  0  0  0  0  0  0  0  0  0  0  0
    1.2081    0.3099   -0.1098 C   0  0  0  0  0  0  0  0  0  0  0  0
    0.9809   -0.5696   -0.9646 O   0  0  0  0  0  0  0  0  0  0  0  0
    2.4751   -0.2466    0.1639 C   0  0  0  0  0  0  0  0  0  0  0  0
    3.0958   -1.3364   -0.4019 C   0  0  0  0  0  0  0  0  0  0  0  0
    4.3727   -1.7754   -0.0099 C   0  0  0  0  0  0  0  0  0  0  0  0
    4.9314   -1.0177    0.9812 C   0  0  0  0  0  0  0  0  0  0  0  0
    4.4094    0.0720    1.6065 C   0  0  0  0  0  0  0  0  0  0  0  0
    3.1619    0.4385    1.1699 C   0  0  0  0  0  0  0  0  0  0  0  0
   -1.4039   -1.1979   -1.1938 C   0  0  0  0  0  0  0  0  0  0  0  0
   -2.2276   -1.3026   -0.0693 C   0  0  0  0  0  0  0  0  0  0  0  0
   -2.6583   -2.5375    0.3836 C   0  0  0  0  0  0  0  0  0  0  0  0
   -3.4757   -2.7248    1.4900 O   0  0  0  0  0  0  0  0  0  0  0  0
   -2.2729   -3.6853   -0.2798 C   0  0  0  0  0  0  0  0  0  0  0  0
   -1.4643   -3.5540   -1.3809 C   0  0  0  0  0  0  0  0  0  0  0  0
   -1.0245   -2.3509   -1.8500 C   0  0  0  0  0  0  0  0  0  0  0  0
   -0.6441    0.2643   -2.4947 H   0  0  0  0  0  0  0  0  0  0  0  0
   -2.9210    0.6043   -2.1746 H   0  0  0  0  0  0  0  0  0  0  0  0
   -1.8571    3.6527    1.9962 H   0  0  0  0  0  0  0  0  0  0  0  0
   -2.9762    4.1822    0.7001 H   0  0  0  0  0  0  0  0  0  0  0  0
   -1.2684    4.6005    0.6064 H   0  0  0  0  0  0  0  0  0  0  0  0
    0.1327    3.4973    1.5922 H   0  0  0  0  0  0  0  0  0  0  0  0
    0.6693    1.8492    2.0626 H   0  0  0  0  0  0  0  0  0  0  0  0
    1.4363    2.7203    0.7018 H   0  0  0  0  0  0  0  0  0  0  0  0
    2.6471   -1.9266   -1.1829 H   0  0  0  0  0  0  0  0  0  0  0  0
    4.8098   -2.6380   -0.4904 H   0  0  0  0  0  0  0  0  0  0  0  0
    5.9200   -1.4167    1.2338 H   0  0  0  0  0  0  0  0  0  0  0  0
    5.0585    0.4873    2.3566 H   0  0  0  0  0  0  0  0  0  0  0  0
    2.9250    1.3177    1.7898 H   0  0  0  0  0  0  0  0  0  0  0  0
   -2.6079   -0.5004    0.5475 H   0  0  0  0  0  0  0  0  0  0  0  0
   -3.4852   -1.9756    2.1706 H   0  0  0  0  0  0  0  0  0  0  0  0
   -2.5559   -4.7006   -0.0055 H   0  0  0  0  0  0  0  0  0  0  0  0
   -1.1027   -4.4004   -1.9769 H   0  0  0  0  0  0  0  0  0  0  0  0
   -0.3968   -2.1340   -2.7005 H   0  0  0  0  0  0  0  0  0  0  0  0
  1  2  1  0
  2  3  1  0
  3  4  2  0
  3  5  1  0
  5  6  1  0
  5  7  1  0
  7  8  1  0
  7  9  2  0
  9 10  1  0
 10 11  2  0
 10 12  1  0
 12 13  2  0
 13 14  1  0
 14 15  2  0
 15 16  1  0
 16 17  2  0
  1 18  1  0
 18 19  2  0
 19 20  1  0
 20 21  1  0
 20 22  2  0
 22 23  1  0
 23 24  2  0
  9  1  1  0
 17 12  1  0
 24 18  1  0
  1 25  1  6
  2 26  1  0
  6 27  1  0
  6 28  1  0
  6 29  1  0
  8 30  1  0
  8 31  1  0
  8 32  1  0
 13 33  1  0
 14 34  1  0
 15 35  1  0
 16 36  1  0
 17 37  1  0
 19 38  1  0
 21 39  1  0
 22 40  1  0
 23 41  1  0
 24 42  1  0
M  END
$$$$
