@<TRIPOS>MOLECULE
*****
 42 44 0 0 0
SMALL
GASTEIGER

@<TRIPOS>ATOM
      1 C          -1.0965    0.2461   -1.4644 C.3     1  UNL1        0.0779
      2 N          -2.2610    1.0481   -1.4614 N.am    1  UNL1       -0.3152
      3 C          -2.6782    2.1905   -0.7771 C.2     1  UNL1        0.1374
      4 S          -4.1284    2.8944   -1.0184 S.2     1  UNL1       -0.0183
      5 N          -1.6605    2.6110    0.1259 N.am    1  UNL1       -0.2892
      6 C          -1.9736    3.7990    0.9076 C.3     1  UNL1        0.0071
      7 C          -0.4483    1.8913    0.2215 C.2     1  UNL1        0.0180
      8 C           0.4503    2.5288    1.2184 C.3     1  UNL1       -0.0258
      9 C          -0.0955    0.7854   -0.4713 C.2     1  UNL1        0.0413
     10 C           1.2081    0.3099   -0.1098 C.2     1  UNL1        0.1927
     11 O           0.9809   -0.5696   -0.9646 O.2     1  UNL1       -0.2869
     12 C           2.4751   -0.2466    0.1639 C.ar    1  UNL1        0.0221
     13 C           3.0958   -1.3364   -0.4019 C.ar    1  UNL1       -0.0509
     14 C           4.3727   -1.7754   -0.0099 C.ar    1  UNL1       -0.0611
     15 C           4.9314   -1.0177    0.9812 C.ar    1  UNL1       -0.0617
     16 C           4.4094    0.0720    1.6065 C.ar    1  UNL1       -0.0611
     17 C           3.1619    0.4385    1.1699 C.ar    1  UNL1       -0.0509
     18 C          -1.4039   -1.1979   -1.1938 C.ar    1  UNL1       -0.0192
     19 C          -2.2276   -1.3026   -0.0693 C.ar    1  UNL1       -0.0149
     20 C          -2.6583   -2.5375    0.3836 C.ar    1  UNL1        0.1172
     21 O          -3.4757   -2.7248    1.4900 O.3     1  UNL1       -0.5068
     22 C          -2.2729   -3.6853   -0.2798 C.ar    1  UNL1       -0.0202
     23 C          -1.4643   -3.5540   -1.3809 C.ar    1  UNL1       -0.0580
     24 C          -1.0245   -2.3509   -1.8500 C.ar    1  UNL1       -0.0563
     25 H          -0.6441    0.2643   -2.4947 H       1  UNL1        0.0600
     26 H          -2.9210    0.6043   -2.1746 H       1  UNL1        0.1487
     27 H          -1.8571    3.6527    1.9962 H       1  UNL1        0.0432
     28 H          -2.9762    4.1822    0.7001 H       1  UNL1        0.0432
     29 H          -1.2684    4.6005    0.6064 H       1  UNL1        0.0432
     30 H           0.1327    3.4973    1.5922 H       1  UNL1        0.0290
     31 H           0.6693    1.8492    2.0626 H       1  UNL1        0.0290
     32 H           1.4363    2.7203    0.7018 H       1  UNL1        0.0290
     33 H           2.6471   -1.9266   -1.1829 H       1  UNL1        0.0625
     34 H           4.8098   -2.6380   -0.4904 H       1  UNL1        0.0618
     35 H           5.9200   -1.4167    1.2338 H       1  UNL1        0.0618
     36 H           5.0585    0.4873    2.3566 H       1  UNL1        0.0618
     37 H           2.9250    1.3177    1.7898 H       1  UNL1        0.0625
     38 H          -2.6079   -0.5004    0.5475 H       1  UNL1        0.0657
     39 H          -3.4852   -1.9756    2.1706 H       1  UNL1        0.2921
     40 H          -2.5559   -4.7006   -0.0055 H       1  UNL1        0.0654
     41 H          -1.1027   -4.4004   -1.9769 H       1  UNL1        0.0619
     42 H          -0.3968   -2.1340   -2.7005 H       1  UNL1        0.0621
@<TRIPOS>BOND
     1     1     2    1
     2     2     3    1
     3     3     4    2
     4     3     5    1
     5     5     6    1
     6     5     7    1
     7     7     8    1
     8     7     9    2
     9     9    10    1
    10    10    11    2
    11    10    12    1
    12    12    13   ar
    13    13    14   ar
    14    14    15   ar
    15    15    16   ar
    16    16    17   ar
    17     1    18    1
    18    18    19   ar
    19    19    20   ar
    20    20    21    1
    21    20    22   ar
    22    22    23   ar
    23    23    24   ar
    24     9     1    1
    25    17    12   ar
    26    24    18   ar
    27     1    25    1
    28     2    26    1
    29     6    27    1
    30     6    28    1
    31     6    29    1
    32     8    30    1
    33     8    31    1
    34     8    32    1
    35    13    33    1
    36    14    34    1
    37    15    35    1
    38    16    36    1
    39    17    37    1
    40    19    38    1
    41    21    39    1
    42    22    40    1
    43    23    41    1
    44    24    42    1
