@<TRIPOS>MOLECULE
*****
 52 54 0 0 0
SMALL
GASTEIGER

@<TRIPOS>ATOM
      1 O          -4.2506   -1.0601   -3.0334 O.2     1  UNL1       -0.2704
      2 C          -4.4055   -1.0321   -1.7629 C.2     1  UNL1        0.2714
      3 N          -4.7338   -2.2863   -1.1832 N.am    1  UNL1       -0.1950
      4 O          -4.8614   -3.4187   -1.9266 O.3     1  UNL1       -0.2951
      5 C          -4.2450    0.2391   -1.0453 C.3     1  UNL1        0.1891
      6 O          -4.4716    1.2537   -2.0374 O.3     1  UNL1       -0.3756
      7 C          -5.3339    0.3813   -0.0289 C.3     1  UNL1        0.0869
      8 O          -5.3848    1.6253    0.5529 O.3     1  UNL1       -0.3763
      9 C          -4.3009    2.4247    0.3089 C.3     1  UNL1        0.0497
     10 C          -2.9622    1.7284    0.3873 C.3     1  UNL1       -0.0035
     11 C          -2.8745    0.4845   -0.4701 C.3     1  UNL1        0.1234
     12 S          -2.2544   -0.9033    0.3467 S.O2    1  UNL1        0.0031
     13 O          -2.2282   -2.0657   -0.6156 O.2     1  UNL1       -0.1690
     14 O          -3.1269   -1.3476    1.5135 O.2     1  UNL1       -0.1690
     15 C          -0.6386   -0.7436    0.9356 C.ar    1  UNL1        0.0888
     16 C          -0.3668   -0.2822    2.1928 C.ar    1  UNL1       -0.0334
     17 C           0.9172   -0.1499    2.6799 C.ar    1  UNL1       -0.0181
     18 C           1.9829   -0.4916    1.8807 C.ar    1  UNL1        0.1211
     19 O           3.2546   -0.3379    2.4282 O.3     1  UNL1       -0.4874
     20 C           4.4487   -0.6197    1.7720 C.3     1  UNL1        0.1152
     21 C           4.6339    0.2155    0.5728 C.ar    1  UNL1        0.0012
     22 C           3.8476    1.3124    0.2859 C.ar    1  UNL1       -0.0548
     23 C           4.0613    2.0790   -0.8372 C.ar    1  UNL1       -0.0614
     24 C           5.0747    1.7882   -1.7340 C.ar    1  UNL1       -0.0612
     25 C           5.8572    0.6945   -1.4458 C.ar    1  UNL1       -0.0497
     26 C           5.6502   -0.0915   -0.3093 C.ar    1  UNL1        0.0612
     27 C           6.5596   -1.2469   -0.1111 C.3     1  UNL1        0.4178
     28 F           5.8653   -2.4523   -0.0909 F       1  UNL1       -0.1659
     29 F           7.4691   -1.3367   -1.1404 F       1  UNL1       -0.1659
     30 F           7.2913   -1.1110    1.0615 F       1  UNL1       -0.1659
     31 C           1.7391   -0.9584    0.6122 C.ar    1  UNL1       -0.0181
     32 C           0.4208   -1.0853    0.1362 C.ar    1  UNL1       -0.0334
     33 H          -4.9014   -2.3823   -0.1784 H       1  UNL1        0.1823
     34 H          -5.8112   -3.6741   -2.0470 H       1  UNL1        0.2414
     35 H          -5.4337    1.4393   -2.0491 H       1  UNL1        0.2110
     36 H          -5.2724   -0.3633    0.7848 H       1  UNL1        0.0594
     37 H          -6.3028    0.1929   -0.5456 H       1  UNL1        0.0594
     38 H          -4.3886    3.0644   -0.6011 H       1  UNL1        0.0560
     39 H          -4.2741    3.1730    1.1631 H       1  UNL1        0.0560
     40 H          -2.2229    2.4534   -0.0138 H       1  UNL1        0.0307
     41 H          -2.7901    1.5052    1.4606 H       1  UNL1        0.0307
     42 H          -2.2129    0.6719   -1.3641 H       1  UNL1        0.0575
     43 H          -1.1773   -0.0131    2.8237 H       1  UNL1        0.0638
     44 H           1.0830    0.2266    3.7015 H       1  UNL1        0.0655
     45 H           5.2777   -0.4592    2.5205 H       1  UNL1        0.0748
     46 H           4.4910   -1.7222    1.5626 H       1  UNL1        0.0748
     47 H           3.0463    1.5906    0.9473 H       1  UNL1        0.0621
     48 H           3.4439    2.9538   -1.0778 H       1  UNL1        0.0618
     49 H           5.2504    2.3863   -2.6211 H       1  UNL1        0.0618
     50 H           6.6651    0.4468   -2.1431 H       1  UNL1        0.0623
     51 H           2.5699   -1.2328   -0.0146 H       1  UNL1        0.0655
     52 H           0.3258   -1.4628   -0.8801 H       1  UNL1        0.0638
@<TRIPOS>BOND
     1     1     2    2
     2     2     3   am
     3     3     4    1
     4     2     5    1
     5     5     6    1
     6     5     7    1
     7     7     8    1
     8     8     9    1
     9     9    10    1
    10    10    11    1
    11    11    12    1
    12    12    13    2
    13    12    14    2
    14    12    15    1
    15    15    16   ar
    16    16    17   ar
    17    17    18   ar
    18    18    19    1
    19    19    20    1
    20    20    21    1
    21    21    22   ar
    22    22    23   ar
    23    23    24   ar
    24    24    25   ar
    25    25    26   ar
    26    26    27    1
    27    27    28    1
    28    27    29    1
    29    27    30    1
    30    18    31   ar
    31    31    32   ar
    32    11     5    1
    33    32    15   ar
    34    26    21   ar
    35     3    33    1
    36     4    34    1
    37     6    35    1
    38     7    36    1
    39     7    37    1
    40     9    38    1
    41     9    39    1
    42    10    40    1
    43    10    41    1
    44    11    42    1
    45    16    43    1
    46    17    44    1
    47    20    45    1
    48    20    46    1
    49    22    47    1
    50    23    48    1
    51    24    49    1
    52    25    50    1
    53    31    51    1
    54    32    52    1
