@<TRIPOS>MOLECULE
*****
 52 56 0 0 0
SMALL
GASTEIGER

@<TRIPOS>ATOM
      1 C          -4.1597   -2.4521   -2.0515 C.3     1  UNL1        0.0365
      2 O          -3.5358   -2.0019   -0.8749 O.3     1  UNL1       -0.3809
      3 C          -2.1628   -2.0425   -1.0939 C.3     1  UNL1        0.0683
      4 C          -1.3746   -1.5773    0.1098 C.3     1  UNL1        0.0621
      5 C          -1.6234   -2.4088    1.3350 C.3     1  UNL1       -0.0180
      6 C          -2.9517   -2.5500    1.9337 C.3     1  UNL1       -0.0479
      7 C          -2.3160   -3.6904    1.1586 C.3     1  UNL1       -0.0479
      8 N          -1.5866   -0.1579    0.3586 N.ar    1  UNL1       -0.3228
      9 C          -2.7225    0.5310    0.4711 C.ar    1  UNL1        0.0974
     10 N          -2.4570    1.8504    0.7051 N.ar    1  UNL1       -0.2351
     11 C          -1.1079    1.9986    0.7416 C.ar    1  UNL1        0.0982
     12 C          -0.3403    3.2385    0.9686 C.ar    1  UNL1        0.0027
     13 C          -0.5104    3.9521    2.1430 C.ar    1  UNL1       -0.0498
     14 C           0.2280    5.1025    2.3149 C.ar    1  UNL1       -0.0258
     15 C           1.1221    5.5594    1.3622 C.ar    1  UNL1        0.1234
     16 F           1.8343    6.7115    1.5808 F       1  UNL1       -0.2055
     17 C           1.2967    4.8537    0.1902 C.ar    1  UNL1       -0.0258
     18 C           0.5547    3.7059    0.0273 C.ar    1  UNL1       -0.0498
     19 C          -0.5904    0.7394    0.5240 C.ar    1  UNL1        0.0969
     20 C           0.8415    0.4060    0.4728 C.ar    1  UNL1        0.1103
     21 C           1.6117    0.6184    1.5965 C.ar    1  UNL1       -0.0290
     22 C           2.9602    0.3361    1.6442 C.ar    1  UNL1       -0.0153
     23 C           3.5222   -0.1880    0.4715 C.ar    1  UNL1        0.1549
     24 N           4.7548   -0.5655    0.1650 N.ar    1  UNL1       -0.2339
     25 C           4.7484   -0.9961   -1.1022 C.ar    1  UNL1        0.0605
     26 C           3.4744   -0.8866   -1.6091 C.ar    1  UNL1        0.1470
     27 C           3.0264   -1.2431   -2.9442 C.2     1  UNL1        0.2615
     28 N           3.9817   -1.7705   -3.8611 N.am    1  UNL1       -0.3240
     29 O           1.8317   -1.0968   -3.2982 O.2     1  UNL1       -0.2687
     30 N           2.7347   -0.3756   -0.5907 N.ar    1  UNL1       -0.2076
     31 N           1.4274   -0.0911   -0.6051 N.ar    1  UNL1       -0.1628
     32 H          -3.8948   -1.8016   -2.9149 H       1  UNL1        0.0523
     33 H          -5.2534   -2.4340   -1.9690 H       1  UNL1        0.0523
     34 H          -3.8141   -3.4664   -2.2897 H       1  UNL1        0.0523
     35 H          -1.9453   -1.3013   -1.9068 H       1  UNL1        0.0580
     36 H          -1.8012   -3.0050   -1.4465 H       1  UNL1        0.0580
     37 H          -0.2934   -1.7569   -0.1718 H       1  UNL1        0.0554
     38 H          -0.7676   -2.3740    2.0668 H       1  UNL1        0.0321
     39 H          -3.8127   -2.0397    1.4951 H       1  UNL1        0.0269
     40 H          -3.0357   -2.6816    3.0347 H       1  UNL1        0.0269
     41 H          -2.8012   -3.9693    0.2001 H       1  UNL1        0.0269
     42 H          -1.9117   -4.5521    1.7075 H       1  UNL1        0.0269
     43 H          -3.7156    0.0850    0.3853 H       1  UNL1        0.1029
     44 H          -1.2109    3.5844    2.8767 H       1  UNL1        0.0625
     45 H           0.1060    5.6776    3.2344 H       1  UNL1        0.0646
     46 H           1.9993    5.2190   -0.5502 H       1  UNL1        0.0646
     47 H           0.6661    3.1166   -0.8924 H       1  UNL1        0.0625
     48 H           1.1274    1.0288    2.4852 H       1  UNL1        0.0641
     49 H           3.5794    0.4972    2.5188 H       1  UNL1        0.0655
     50 H           5.5858   -1.3826   -1.6924 H       1  UNL1        0.0854
     51 H           4.6733   -1.1608   -4.3452 H       1  UNL1        0.1453
     52 H           4.0088   -2.7928   -4.0695 H       1  UNL1        0.1453
@<TRIPOS>BOND
     1     1     2    1
     2     2     3    1
     3     3     4    1
     4     4     5    1
     5     5     6    1
     6     6     7    1
     7     4     8    1
     8     8     9   ar
     9     9    10   ar
    10    10    11   ar
    11    11    12    1
    12    12    13   ar
    13    13    14   ar
    14    14    15   ar
    15    15    16    1
    16    15    17   ar
    17    17    18   ar
    18    11    19   ar
    19    19    20    1
    20    20    21   ar
    21    21    22   ar
    22    22    23   ar
    23    23    24   ar
    24    24    25   ar
    25    25    26   ar
    26    26    27    1
    27    27    28   am
    28    27    29    2
    29    26    30   ar
    30    30    31   ar
    31     7     5    1
    32    19     8   ar
    33    31    20   ar
    34    18    12   ar
    35    30    23   ar
    36     1    32    1
    37     1    33    1
    38     1    34    1
    39     3    35    1
    40     3    36    1
    41     4    37    1
    42     5    38    1
    43     6    39    1
    44     6    40    1
    45     7    41    1
    46     7    42    1
    47     9    43    1
    48    13    44    1
    49    14    45    1
    50    17    46    1
    51    18    47    1
    52    21    48    1
    53    22    49    1
    54    25    50    1
    55    28    51    1
    56    28    52    1
