
     RDKit          3D

 52 56  0  0  0  0  0  0  0  0999 V2000
   -4.1597   -2.4521   -2.0515 C   0  0  0  0  0  0  0  0  0  0  0  0
   -3.5358   -2.0019   -0.8749 O   0  0  0  0  0  0  0  0  0  0  0  0
   -2.1628   -2.0425   -1.0939 C   0  0  0  0  0  0  0  0  0  0  0  0
   -1.3746   -1.5773    0.1098 C   0  0  0  0  0  0  0  0  0  0  0  0
   -1.6234   -2.4088    1.3350 C   0  0  0  0  0  0  0  0  0  0  0  0
   -2.9517   -2.5500    1.9337 C   0  0  0  0  0  0  0  0  0  0  0  0
   -2.3160   -3.6904    1.1586 C   0  0  0  0  0  0  0  0  0  0  0  0
   -1.5866   -0.1579    0.3586 N   0  0  0  0  0  0  0  0  0  0  0  0
   -2.7225    0.5310    0.4711 C   0  0  0  0  0  0  0  0  0  0  0  0
   -2.4570    1.8504    0.7051 N   0  0  0  0  0  0  0  0  0  0  0  0
   -1.1079    1.9986    0.7416 C   0  0  0  0  0  0  0  0  0  0  0  0
   -0.3403    3.2385    0.9686 C   0  0  0  0  0  0  0  0  0  0  0  0
   -0.5104    3.9521    2.1430 C   0  0  0  0  0  0  0  0  0  0  0  0
    0.2280    5.1025    2.3149 C   0  0  0  0  0  0  0  0  0  0  0  0
    1.1221    5.5594    1.3622 C   0  0  0  0  0  0  0  0  0  0  0  0
    1.8343    6.7115    1.5808 F   0  0  0  0  0  0  0  0  0  0  0  0
    1.2967    4.8537    0.1902 C   0  0  0  0  0  0  0  0  0  0  0  0
    0.5547    3.7059    0.0273 C   0  0  0  0  0  0  0  0  0  0  0  0
   -0.5904    0.7394    0.5240 C   0  0  0  0  0  0  0  0  0  0  0  0
    0.8415    0.4060    0.4728 C   0  0  0  0  0  0  0  0  0  0  0  0
    1.6117    0.6184    1.5965 C   0  0  0  0  0  0  0  0  0  0  0  0
    2.9602    0.3361    1.6442 C   0  0  0  0  0  0  0  0  0  0  0  0
    3.5222   -0.1880    0.4715 C   0  0  0  0  0  0  0  0  0  0  0  0
    4.7548   -0.5655    0.1650 N   0  0  0  0  0  0  0  0  0  0  0  0
    4.7484   -0.9961   -1.1022 C   0  0  0  0  0  0  0  0  0  0  0  0
    3.4744   -0.8866   -1.6091 C   0  0  0  0  0  0  0  0  0  0  0  0
    3.0264   -1.2431   -2.9442 C   0  0  0  0  0  0  0  0  0  0  0  0
    3.9817   -1.7705   -3.8611 N   0  0  0  0  0  0  0  0  0  0  0  0
    1.8317   -1.0968   -3.2982 O   0  0  0  0  0  0  0  0  0  0  0  0
    2.7347   -0.3756   -0.5907 N   0  0  0  0  0  0  0  0  0  0  0  0
    1.4274   -0.0911   -0.6051 N   0  0  0  0  0  0  0  0  0  0  0  0
   -3.8948   -1.8016   -2.9149 H   0  0  0  0  0  0  0  0  0  0  0  0
   -5.2534   -2.4340   -1.9690 H   0  0  0  0  0  0  0  0  0  0  0  0
   -3.8141   -3.4664   -2.2897 H   0  0  0  0  0  0  0  0  0  0  0  0
   -1.9453   -1.3013   -1.9068 H   0  0  0  0  0  0  0  0  0  0  0  0
   -1.8012   -3.0050   -1.4465 H   0  0  0  0  0  0  0  0  0  0  0  0
   -0.2934   -1.7569   -0.1718 H   0  0  0  0  0  0  0  0  0  0  0  0
   -0.7676   -2.3740    2.0668 H   0  0  0  0  0  0  0  0  0  0  0  0
   -3.8127   -2.0397    1.4951 H   0  0  0  0  0  0  0  0  0  0  0  0
   -3.0357   -2.6816    3.0347 H   0  0  0  0  0  0  0  0  0  0  0  0
   -2.8012   -3.9693    0.2001 H   0  0  0  0  0  0  0  0  0  0  0  0
   -1.9117   -4.5521    1.7075 H   0  0  0  0  0  0  0  0  0  0  0  0
   -3.7156    0.0850    0.3853 H   0  0  0  0  0  0  0  0  0  0  0  0
   -1.2109    3.5844    2.8767 H   0  0  0  0  0  0  0  0  0  0  0  0
    0.1060    5.6776    3.2344 H   0  0  0  0  0  0  0  0  0  0  0  0
    1.9993    5.2190   -0.5502 H   0  0  0  0  0  0  0  0  0  0  0  0
    0.6661    3.1166   -0.8924 H   0  0  0  0  0  0  0  0  0  0  0  0
    1.1274    1.0288    2.4852 H   0  0  0  0  0  0  0  0  0  0  0  0
    3.5794    0.4972    2.5188 H   0  0  0  0  0  0  0  0  0  0  0  0
    5.5858   -1.3826   -1.6924 H   0  0  0  0  0  0  0  0  0  0  0  0
    4.6733   -1.1608   -4.3452 H   0  0  0  0  0  0  0  0  0  0  0  0
    4.0088   -2.7928   -4.0695 H   0  0  0  0  0  0  0  0  0  0  0  0
  1  2  1  0
  2  3  1  0
  3  4  1  0
  4  5  1  0
  5  6  1  0
  6  7  1  0
  4  8  1  0
  8  9  1  0
  9 10  2  0
 10 11  1  0
 11 12  1  0
 12 13  2  0
 13 14  1  0
 14 15  2  0
 15 16  1  0
 15 17  1  0
 17 18  2  0
 11 19  2  0
 19 20  1  0
 20 21  1  0
 21 22  2  0
 22 23  1  0
 23 24  2  0
 24 25  1  0
 25 26  2  0
 26 27  1  0
 27 28  1  0
 27 29  2  0
 26 30  1  0
 30 31  1  0
  7  5  1  0
 19  8  1  0
 31 20  2  0
 18 12  1  0
 30 23  1  0
  1 32  1  0
  1 33  1  0
  1 34  1  0
  3 35  1  0
  3 36  1  0
  4 37  1  0
  5 38  1  0
  6 39  1  0
  6 40  1  0
  7 41  1  0
  7 42  1  0
  9 43  1  0
 13 44  1  0
 14 45  1  0
 17 46  1  0
 18 47  1  0
 21 48  1  0
 22 49  1  0
 25 50  1  0
 28 51  1  0
 28 52  1  0
M  END
$$$$
