@<TRIPOS>MOLECULE
*****
 78 83 0 0 0
SMALL
GASTEIGER

@<TRIPOS>ATOM
      1 C          -5.6491    0.0267   -1.1471 C.3     1  UNL1        0.1133
      2 C          -4.6073   -1.0621   -1.2988 C.3     1  UNL1        0.0857
      3 O          -3.4602   -0.4649   -1.7789 O.3     1  UNL1       -0.3049
      4 P          -2.1985   -1.5745   -2.0437 P.3     1  UNL1        0.3420
      5 O          -2.2511   -2.8302   -0.9179 O.3     1  UNL1       -0.3235
      6 O          -2.2620   -2.1101   -3.4638 O.2     1  UNL1       -0.2580
      7 C          -0.6421   -0.6813   -1.8462 C.3     1  UNL1        0.1512
      8 P           0.2190   -1.3165   -0.3901 P.3     1  UNL1        0.3485
      9 O          -0.0522   -2.9889   -0.3024 O.3     1  UNL1       -0.3233
     10 O          -0.3436   -0.6389    0.8393 O.2     1  UNL1       -0.2577
     11 O           1.8751   -0.9933   -0.5616 O.3     1  UNL1       -0.2326
     12 P           2.6106   -2.4268   -1.0793 P.3     1  UNL1        0.3127
     13 O           1.9944   -2.7577   -2.6180 O.3     1  UNL1       -0.3265
     14 S           2.1868   -3.6652    0.0517 S.2     1  UNL1        0.0227
     15 O           4.2857   -2.2268   -1.1660 O.3     1  UNL1       -0.3079
     16 C           4.9098   -2.4049    0.0438 C.3     1  UNL1        0.0854
     17 C           6.4051   -2.2574   -0.0289 C.3     1  UNL1        0.1133
     18 O           6.7719   -1.0080   -0.4710 O.3     1  UNL1       -0.3456
     19 C           8.0939   -0.9024   -0.0500 C.3     1  UNL1        0.1667
     20 N           8.7063    0.3600   -0.3003 N.ar    1  UNL1       -0.2855
     21 C           9.4631    0.6030   -1.3997 C.ar    1  UNL1        0.1004
     22 N           9.9136    1.8555   -1.3889 N.ar    1  UNL1       -0.2306
     23 C           9.4621    2.4745   -0.2742 C.ar    1  UNL1        0.1473
     24 C           9.6265    3.7516    0.2218 C.ar    1  UNL1        0.1472
     25 N          10.4267    4.6370   -0.5640 N.pl3   1  UNL1       -0.3413
     26 N           9.0233    4.0430    1.3889 N.ar    1  UNL1       -0.2188
     27 C           8.2899    3.0962    2.0270 C.ar    1  UNL1        0.1205
     28 N           8.1362    1.8393    1.5257 N.ar    1  UNL1       -0.2159
     29 C           8.7124    1.5004    0.3745 C.ar    1  UNL1        0.1674
     30 C           7.9707   -1.2558    1.4203 C.3     1  UNL1        0.1285
     31 O           9.1770   -1.6315    1.9870 O.3     1  UNL1       -0.3847
     32 C           7.0285   -2.4626    1.3252 C.3     1  UNL1        0.1135
     33 O           7.8532   -3.5906    1.3665 O.3     1  UNL1       -0.3864
     34 O          -6.8547   -0.4606   -0.6675 O.3     1  UNL1       -0.3456
     35 C          -7.5670    0.7175   -0.4526 C.3     1  UNL1        0.1667
     36 N          -8.7590    0.5399    0.3331 N.ar    1  UNL1       -0.2855
     37 C          -9.0622   -0.3888    1.2338 C.ar    1  UNL1        0.1004
     38 N         -10.3090   -0.1372    1.7088 N.ar    1  UNL1       -0.2306
     39 C         -10.7966    0.9689    1.0953 C.ar    1  UNL1        0.1473
     40 C         -11.9755    1.6816    1.1679 C.ar    1  UNL1        0.1472
     41 N         -13.0066    1.2649    2.0559 N.pl3   1  UNL1       -0.3413
     42 N         -12.0951    2.7603    0.3767 N.ar    1  UNL1       -0.2188
     43 C         -11.1747    3.2006   -0.4707 C.ar    1  UNL1        0.1205
     44 N         -10.0400    2.4870   -0.5184 N.ar    1  UNL1       -0.2159
     45 C          -9.8105    1.3896    0.2281 C.ar    1  UNL1        0.1674
     46 C          -6.5925    1.6540    0.2648 C.3     1  UNL1        0.1285
     47 O          -6.6870    2.8810   -0.3887 O.3     1  UNL1       -0.3847
     48 C          -5.2708    0.9831   -0.0191 C.3     1  UNL1        0.1135
     49 O          -4.3338    1.8525   -0.5198 O.3     1  UNL1       -0.3864
     50 H          -5.8150    0.6239   -2.0466 H       1  UNL1        0.0647
     51 H          -4.9826   -1.9065   -1.8869 H       1  UNL1        0.0592
     52 H          -4.3748   -1.4246   -0.2729 H       1  UNL1        0.0592
     53 H          -2.4725   -2.5048   -0.0156 H       1  UNL1        0.2198
     54 H          -0.8026    0.4205   -1.7147 H       1  UNL1        0.0513
     55 H          -0.0051   -0.7675   -2.7681 H       1  UNL1        0.0513
     56 H           0.0011   -3.3634   -1.2194 H       1  UNL1        0.2198
     57 H           2.6822   -2.5204   -3.2737 H       1  UNL1        0.2195
     58 H           4.5586   -1.5531    0.6965 H       1  UNL1        0.0591
     59 H           4.5972   -3.3124    0.5914 H       1  UNL1        0.0591
     60 H           6.7954   -3.0511   -0.6992 H       1  UNL1        0.0647
     61 H           8.6617   -1.7254   -0.5325 H       1  UNL1        0.0866
     62 H           9.7517   -0.0040   -2.2397 H       1  UNL1        0.1030
     63 H          10.3423    5.1654   -1.4580 H       1  UNL1        0.1438
     64 H          11.3712    4.8399   -0.1690 H       1  UNL1        0.1438
     65 H           7.8561    3.4473    2.9509 H       1  UNL1        0.1048
     66 H           7.5092   -0.4379    2.0012 H       1  UNL1        0.0665
     67 H           9.5886   -2.3752    1.5089 H       1  UNL1        0.2101
     68 H           6.2942   -2.4536    2.1568 H       1  UNL1        0.0647
     69 H           7.3578   -4.4335    1.2227 H       1  UNL1        0.2100
     70 H          -7.8342    1.1192   -1.4664 H       1  UNL1        0.0866
     71 H          -8.4263   -1.2051    1.5373 H       1  UNL1        0.1030
     72 H         -13.0286    1.5125    3.0855 H       1  UNL1        0.1438
     73 H         -13.6294    0.7101    1.4002 H       1  UNL1        0.1438
     74 H         -11.2642    4.0666   -1.1090 H       1  UNL1        0.1048
     75 H          -6.8165    1.7349    1.3332 H       1  UNL1        0.0665
     76 H          -6.7740    2.6583   -1.3560 H       1  UNL1        0.2101
     77 H          -4.8882    0.3954    0.8406 H       1  UNL1        0.0647
     78 H          -3.5939    2.0137    0.1421 H       1  UNL1        0.2100
@<TRIPOS>BOND
     1     1     2    1
     2     2     3    1
     3     3     4    1
     4     4     5    1
     5     4     6    2
     6     4     7    1
     7     7     8    1
     8     8     9    1
     9     8    10    2
    10     8    11    1
    11    12    11    1
    12    12    13    1
    13    12    14    2
    14    12    15    1
    15    15    16    1
    16    16    17    1
    17    17    18    1
    18    18    19    1
    19    19    20    1
    20    20    21   ar
    21    21    22   ar
    22    22    23   ar
    23    23    24   ar
    24    24    25    1
    25    24    26   ar
    26    26    27   ar
    27    27    28   ar
    28    28    29   ar
    29    19    30    1
    30    30    31    1
    31    30    32    1
    32    32    33    1
    33     1    34    1
    34    34    35    1
    35    35    36    1
    36    36    37   ar
    37    37    38   ar
    38    38    39   ar
    39    39    40   ar
    40    40    41    1
    41    40    42   ar
    42    42    43   ar
    43    43    44   ar
    44    44    45   ar
    45    35    46    1
    46    46    47    1
    47    46    48    1
    48    48    49    1
    49    48     1    1
    50    32    17    1
    51    45    36   ar
    52    29    20   ar
    53    45    39   ar
    54    29    23   ar
    55     1    50    1
    56     2    51    1
    57     2    52    1
    58     5    53    1
    59     7    54    1
    60     7    55    1
    61     9    56    1
    62    13    57    1
    63    16    58    1
    64    16    59    1
    65    17    60    1
    66    19    61    1
    67    21    62    1
    68    25    63    1
    69    25    64    1
    70    27    65    1
    71    30    66    1
    72    31    67    1
    73    32    68    1
    74    33    69    1
    75    35    70    1
    76    37    71    1
    77    41    72    1
    78    41    73    1
    79    43    74    1
    80    46    75    1
    81    47    76    1
    82    48    77    1
    83    49    78    1
