
     RDKit          3D

 34 34  0  0  0  0  0  0  0  0999 V2000
    3.6907   -0.8151   -0.2048 C   0  0  0  0  0  0  0  0  0  0  0  0
    2.1972   -0.9642    0.1494 C   0  0  0  0  0  0  0  0  0  0  0  0
    1.5726    0.3644    0.4192 C   0  0  0  0  0  0  0  0  0  0  0  0
    0.1137    0.3494    0.7767 C   0  0  0  0  0  0  0  0  0  0  0  0
   -0.0874   -0.4937    2.0076 C   0  0  0  0  0  0  0  0  0  0  0  0
   -0.8610    0.2116   -0.3126 C   0  0  0  0  0  0  0  0  0  0  0  0
   -0.8505   -0.9814   -1.1850 C   0  0  0  0  0  0  0  0  0  0  0  0
   -1.0445   -2.3123   -0.5837 C   0  0  0  0  0  0  0  0  0  0  0  0
   -0.5664    1.3490   -1.2741 C   0  0  0  0  0  0  0  0  0  0  0  0
    0.2170    1.1791   -2.2706 O   0  0  0  0  0  0  0  0  0  0  0  0
   -1.1262    2.6428   -1.1347 N   0  0  0  0  0  0  0  0  0  0  0  0
   -2.2676    2.7856   -0.3126 C   0  0  0  0  0  0  0  0  0  0  0  0
   -2.9834    4.2585   -0.0952 S   0  0  0  0  0  0  0  0  0  0  0  0
   -2.8699    1.6929    0.3728 N   0  0  0  0  0  0  0  0  0  0  0  0
   -2.2702    0.4241    0.1981 C   0  0  0  0  0  0  0  0  0  0  0  0
   -2.8924   -0.6310    0.4653 O   0  0  0  0  0  0  0  0  0  0  0  0
    4.2409   -0.2662    0.5653 H   0  0  0  0  0  0  0  0  0  0  0  0
    4.0476   -1.8582   -0.3187 H   0  0  0  0  0  0  0  0  0  0  0  0
    3.7245   -0.3464   -1.2124 H   0  0  0  0  0  0  0  0  0  0  0  0
    2.2373   -1.6057    1.0805 H   0  0  0  0  0  0  0  0  0  0  0  0
    1.7568   -1.5793   -0.6219 H   0  0  0  0  0  0  0  0  0  0  0  0
    2.1365    0.7821    1.3113 H   0  0  0  0  0  0  0  0  0  0  0  0
    1.7993    1.1139   -0.3792 H   0  0  0  0  0  0  0  0  0  0  0  0
   -0.0722    1.4286    1.1770 H   0  0  0  0  0  0  0  0  0  0  0  0
    0.4264   -1.4667    1.9859 H   0  0  0  0  0  0  0  0  0  0  0  0
    0.4081    0.0550    2.8636 H   0  0  0  0  0  0  0  0  0  0  0  0
   -1.1552   -0.5440    2.3070 H   0  0  0  0  0  0  0  0  0  0  0  0
   -0.0284   -0.9213   -1.9433 H   0  0  0  0  0  0  0  0  0  0  0  0
   -1.7704   -0.8311   -1.8607 H   0  0  0  0  0  0  0  0  0  0  0  0
   -1.9176   -2.8857   -1.0210 H   0  0  0  0  0  0  0  0  0  0  0  0
   -0.1736   -2.9561   -0.8250 H   0  0  0  0  0  0  0  0  0  0  0  0
   -1.2078   -2.3676    0.5021 H   0  0  0  0  0  0  0  0  0  0  0  0
   -0.7236    3.4842   -1.6167 H   0  0  0  0  0  0  0  0  0  0  0  0
   -3.6999    1.7048    0.9904 H   0  0  0  0  0  0  0  0  0  0  0  0
  1  2  1  0
  2  3  1  0
  3  4  1  0
  4  5  1  0
  4  6  1  0
  6  7  1  0
  7  8  1  0
  6  9  1  0
  9 10  2  0
  9 11  1  0
 11 12  1  0
 12 13  2  0
 12 14  1  0
 14 15  1  0
 15 16  2  0
 15  6  1  0
  1 17  1  0
  1 18  1  0
  1 19  1  0
  2 20  1  0
  2 21  1  0
  3 22  1  0
  3 23  1  0
  4 24  1  0
  5 25  1  0
  5 26  1  0
  5 27  1  0
  7 28  1  0
  7 29  1  0
  8 30  1  0
  8 31  1  0
  8 32  1  0
 11 33  1  0
 14 34  1  0
M  END
$$$$
