@<TRIPOS>MOLECULE
*****
 34 34 0 0 0
SMALL
GASTEIGER

@<TRIPOS>ATOM
      1 C           3.6907   -0.8151   -0.2048 C.3     1  UNL1       -0.0653
      2 C           2.1972   -0.9642    0.1494 C.3     1  UNL1       -0.0556
      3 C           1.5726    0.3644    0.4192 C.3     1  UNL1       -0.0493
      4 C           0.1137    0.3494    0.7767 C.3     1  UNL1       -0.0215
      5 C          -0.0874   -0.4937    2.0076 C.3     1  UNL1       -0.0610
      6 C          -0.8610    0.2116   -0.3126 C.3     1  UNL1        0.1255
      7 C          -0.8505   -0.9814   -1.1850 C.3     1  UNL1       -0.0332
      8 C          -1.0445   -2.3123   -0.5837 C.3     1  UNL1       -0.0639
      9 C          -0.5664    1.3490   -1.2741 C.2     1  UNL1        0.2338
     10 O           0.2170    1.1791   -2.2706 O.2     1  UNL1       -0.2743
     11 N          -1.1262    2.6428   -1.1347 N.am    1  UNL1       -0.2667
     12 C          -2.2676    2.7856   -0.3126 C.2     1  UNL1        0.1429
     13 S          -2.9834    4.2585   -0.0952 S.2     1  UNL1       -0.0181
     14 N          -2.8699    1.6929    0.3728 N.am    1  UNL1       -0.2667
     15 C          -2.2702    0.4241    0.1981 C.2     1  UNL1        0.2338
     16 O          -2.8924   -0.6310    0.4653 O.2     1  UNL1       -0.2743
     17 H           4.2409   -0.2662    0.5653 H       1  UNL1        0.0230
     18 H           4.0476   -1.8582   -0.3187 H       1  UNL1        0.0230
     19 H           3.7245   -0.3464   -1.2124 H       1  UNL1        0.0230
     20 H           2.2373   -1.6057    1.0805 H       1  UNL1        0.0263
     21 H           1.7568   -1.5793   -0.6219 H       1  UNL1        0.0263
     22 H           2.1365    0.7821    1.3113 H       1  UNL1        0.0268
     23 H           1.7993    1.1139   -0.3792 H       1  UNL1        0.0268
     24 H          -0.0722    1.4286    1.1770 H       1  UNL1        0.0313
     25 H           0.4264   -1.4667    1.9859 H       1  UNL1        0.0233
     26 H           0.4081    0.0550    2.8636 H       1  UNL1        0.0233
     27 H          -1.1552   -0.5440    2.3070 H       1  UNL1        0.0233
     28 H          -0.0284   -0.9213   -1.9433 H       1  UNL1        0.0277
     29 H          -1.7704   -0.8311   -1.8607 H       1  UNL1        0.0277
     30 H          -1.9176   -2.8857   -1.0210 H       1  UNL1        0.0230
     31 H          -0.1736   -2.9561   -0.8250 H       1  UNL1        0.0230
     32 H          -1.2078   -2.3676    0.5021 H       1  UNL1        0.0230
     33 H          -0.7236    3.4842   -1.6167 H       1  UNL1        0.1565
     34 H          -3.6999    1.7048    0.9904 H       1  UNL1        0.1565
@<TRIPOS>BOND
     1     1     2    1
     2     2     3    1
     3     3     4    1
     4     4     5    1
     5     4     6    1
     6     6     7    1
     7     7     8    1
     8     6     9    1
     9     9    10    2
    10     9    11   am
    11    11    12    1
    12    12    13    2
    13    12    14    1
    14    14    15   am
    15    15    16    2
    16    15     6    1
    17     1    17    1
    18     1    18    1
    19     1    19    1
    20     2    20    1
    21     2    21    1
    22     3    22    1
    23     3    23    1
    24     4    24    1
    25     5    25    1
    26     5    26    1
    27     5    27    1
    28     7    28    1
    29     7    29    1
    30     8    30    1
    31     8    31    1
    32     8    32    1
    33    11    33    1
    34    14    34    1
