@<TRIPOS>MOLECULE
*****
 21 21 0 0 0
SMALL
GASTEIGER

@<TRIPOS>ATOM
      1 O           4.1162   -1.0934    0.3335 O.2     1  UNL1       -0.2458
      2 C           3.7984    0.1131    0.2364 C.2     1  UNL1        0.3296
      3 O           4.7146    1.1425    0.2562 O.3     1  UNL1       -0.4775
      4 C           2.3772    0.4248    0.0956 C.2     1  UNL1        0.0229
      5 C           1.4544   -0.5150    0.0700 C.2     1  UNL1       -0.0477
      6 C           0.0404   -0.2181   -0.0693 C.ar    1  UNL1       -0.0211
      7 C          -0.4755    1.0438   -0.1867 C.ar    1  UNL1       -0.0509
      8 C          -1.8494    1.2870   -0.3195 C.ar    1  UNL1       -0.0160
      9 C          -2.7485    0.2560   -0.3377 C.ar    1  UNL1        0.1582
     10 O          -4.1250    0.4397   -0.4673 O.3     1  UNL1       -0.5033
     11 C          -2.2389   -1.0210   -0.2200 C.ar    1  UNL1        0.1588
     12 O          -3.1534   -2.0918   -0.2373 O.3     1  UNL1       -0.5033
     13 C          -0.8950   -1.2689   -0.0896 C.ar    1  UNL1       -0.0094
     14 H           5.6646    0.9620    0.5717 H       1  UNL1        0.2954
     15 H           2.1096    1.4688    0.0123 H       1  UNL1        0.0689
     16 H           1.8328   -1.5281    0.1611 H       1  UNL1        0.0626
     17 H           0.2144    1.8909   -0.1759 H       1  UNL1        0.0625
     18 H          -2.2068    2.2916   -0.4083 H       1  UNL1        0.0655
     19 H          -4.6135    1.0976    0.1203 H       1  UNL1        0.2923
     20 H          -3.5062   -2.4210    0.6535 H       1  UNL1        0.2923
     21 H          -0.5103   -2.2605    0.0009 H       1  UNL1        0.0661
@<TRIPOS>BOND
     1     1     2    2
     2     2     3    1
     3     2     4    1
     4     4     5    2
     5     5     6    1
     6     6     7   ar
     7     7     8   ar
     8     8     9   ar
     9     9    10    1
    10     9    11   ar
    11    11    12    1
    12    11    13   ar
    13    13     6   ar
    14     3    14    1
    15     4    15    1
    16     5    16    1
    17     7    17    1
    18     8    18    1
    19    10    19    1
    20    12    20    1
    21    13    21    1
