
     RDKit          3D

 21 21  0  0  0  0  0  0  0  0999 V2000
    4.1162   -1.0934    0.3335 O   0  0  0  0  0  0  0  0  0  0  0  0
    3.7984    0.1131    0.2364 C   0  0  0  0  0  0  0  0  0  0  0  0
    4.7146    1.1425    0.2562 O   0  0  0  0  0  0  0  0  0  0  0  0
    2.3772    0.4248    0.0956 C   0  0  0  0  0  0  0  0  0  0  0  0
    1.4544   -0.5150    0.0700 C   0  0  0  0  0  0  0  0  0  0  0  0
    0.0404   -0.2181   -0.0693 C   0  0  0  0  0  0  0  0  0  0  0  0
   -0.4755    1.0438   -0.1867 C   0  0  0  0  0  0  0  0  0  0  0  0
   -1.8494    1.2870   -0.3195 C   0  0  0  0  0  0  0  0  0  0  0  0
   -2.7485    0.2560   -0.3377 C   0  0  0  0  0  0  0  0  0  0  0  0
   -4.1250    0.4397   -0.4673 O   0  0  0  0  0  0  0  0  0  0  0  0
   -2.2389   -1.0210   -0.2200 C   0  0  0  0  0  0  0  0  0  0  0  0
   -3.1534   -2.0918   -0.2373 O   0  0  0  0  0  0  0  0  0  0  0  0
   -0.8950   -1.2689   -0.0896 C   0  0  0  0  0  0  0  0  0  0  0  0
    5.6646    0.9620    0.5717 H   0  0  0  0  0  0  0  0  0  0  0  0
    2.1096    1.4688    0.0123 H   0  0  0  0  0  0  0  0  0  0  0  0
    1.8328   -1.5281    0.1611 H   0  0  0  0  0  0  0  0  0  0  0  0
    0.2144    1.8909   -0.1759 H   0  0  0  0  0  0  0  0  0  0  0  0
   -2.2068    2.2916   -0.4083 H   0  0  0  0  0  0  0  0  0  0  0  0
   -4.6135    1.0976    0.1203 H   0  0  0  0  0  0  0  0  0  0  0  0
   -3.5062   -2.4210    0.6535 H   0  0  0  0  0  0  0  0  0  0  0  0
   -0.5103   -2.2605    0.0009 H   0  0  0  0  0  0  0  0  0  0  0  0
  1  2  2  0
  2  3  1  0
  2  4  1  0
  4  5  2  0
  5  6  1  0
  6  7  2  0
  7  8  1  0
  8  9  2  0
  9 10  1  0
  9 11  1  0
 11 12  1  0
 11 13  2  0
 13  6  1  0
  3 14  1  0
  4 15  1  0
  5 16  1  0
  7 17  1  0
  8 18  1  0
 10 19  1  0
 12 20  1  0
 13 21  1  0
M  END
$$$$
