@<TRIPOS>MOLECULE
*****
 43 45 0 0 0
SMALL
GASTEIGER

@<TRIPOS>ATOM
      1 C           1.6293   -0.3355    1.2339 C.3     1  UNL1        0.1140
      2 C           0.3906   -1.0601    1.7264 C.3     1  UNL1        0.0799
      3 O          -0.5957   -0.1199    1.9082 O.3     1  UNL1       -0.3418
      4 C          -0.9856    0.5493    0.7839 C.3     1  UNL1        0.2280
      5 C          -2.3765    0.0573    0.3940 C.3     1  UNL1        0.1345
      6 O          -2.3647   -1.3211    0.1356 O.3     1  UNL1       -0.2196
      7 S          -3.9129   -1.8023   -0.2866 S.O2    1  UNL1        0.1486
      8 N          -3.8772   -2.7978   -1.7144 N.3     1  UNL1       -0.1833
      9 O          -4.7379   -0.5842   -0.6426 O.2     1  UNL1       -0.1300
     10 O          -4.5830   -2.5369    0.8390 O.2     1  UNL1       -0.1300
     11 O          -1.1208    1.8896    1.0974 O.3     1  UNL1       -0.3130
     12 C          -0.5529    2.6444    0.0930 C.3     1  UNL1        0.1686
     13 C           0.6039    3.4412    0.7071 C.3     1  UNL1       -0.0107
     14 C          -1.5594    3.6128   -0.4781 C.3     1  UNL1       -0.0107
     15 O          -0.1148    1.8023   -0.8933 O.3     1  UNL1       -0.3378
     16 C          -0.1110    0.5095   -0.3848 C.3     1  UNL1        0.1466
     17 C           1.3139    0.0919   -0.1848 C.3     1  UNL1        0.1215
     18 O           1.6126   -1.0745   -0.8900 O.3     1  UNL1       -0.3406
     19 C           2.8221   -1.4479   -0.3093 C.3     1  UNL1        0.1656
     20 C           3.0028   -2.9412   -0.4593 C.3     1  UNL1       -0.0108
     21 C           3.9204   -0.6621   -0.9598 C.3     1  UNL1       -0.0108
     22 O           2.7053   -1.1757    1.0501 O.3     1  UNL1       -0.3410
     23 H           1.8870    0.5320    1.8743 H       1  UNL1        0.0647
     24 H           0.1593   -1.8561    1.0136 H       1  UNL1        0.0588
     25 H           0.5929   -1.5171    2.7168 H       1  UNL1        0.0588
     26 H          -2.7189    0.5648   -0.5390 H       1  UNL1        0.0639
     27 H          -3.1316    0.2911    1.1662 H       1  UNL1        0.0639
     28 H          -4.8775   -3.0170   -1.9252 H       1  UNL1        0.1462
     29 H          -3.3988   -3.7022   -1.5422 H       1  UNL1        0.1462
     30 H           1.0110    4.0744   -0.0924 H       1  UNL1        0.0281
     31 H           1.3520    2.7526    1.1020 H       1  UNL1        0.0281
     32 H           0.1643    4.1167    1.4532 H       1  UNL1        0.0281
     33 H          -1.9430    3.2015   -1.4324 H       1  UNL1        0.0281
     34 H          -1.0397    4.5955   -0.6436 H       1  UNL1        0.0281
     35 H          -2.3756    3.7552    0.2664 H       1  UNL1        0.0281
     36 H          -0.5455   -0.1280   -1.1832 H       1  UNL1        0.0679
     37 H           2.0259    0.9030   -0.4398 H       1  UNL1        0.0652
     38 H           4.0344   -3.2528   -0.2277 H       1  UNL1        0.0281
     39 H           2.7800   -3.2617   -1.5118 H       1  UNL1        0.0281
     40 H           2.2730   -3.4573    0.1785 H       1  UNL1        0.0281
     41 H           4.7658   -1.2923   -1.2588 H       1  UNL1        0.0281
     42 H           4.3066    0.0520   -0.1850 H       1  UNL1        0.0281
     43 H           3.5701   -0.0936   -1.8616 H       1  UNL1        0.0281
@<TRIPOS>BOND
     1     1     2    1
     2     2     3    1
     3     3     4    1
     4     4     5    1
     5     5     6    1
     6     6     7    1
     7     7     8    1
     8     7     9    2
     9     7    10    2
    10     4    11    1
    11    11    12    1
    12    12    13    1
    13    12    14    1
    14    12    15    1
    15    15    16    1
    16    16    17    1
    17    17    18    1
    18    18    19    1
    19    19    20    1
    20    19    21    1
    21    19    22    1
    22    17     1    1
    23    22     1    1
    24    16     4    1
    25     1    23    1
    26     2    24    1
    27     2    25    1
    28     5    26    1
    29     5    27    1
    30     8    28    1
    31     8    29    1
    32    13    30    1
    33    13    31    1
    34    13    32    1
    35    14    33    1
    36    14    34    1
    37    14    35    1
    38    16    36    1
    39    17    37    1
    40    20    38    1
    41    20    39    1
    42    20    40    1
    43    21    41    1
    44    21    42    1
    45    21    43    1
