@<TRIPOS>MOLECULE
*****
 34 36 0 0 0
SMALL
GASTEIGER

@<TRIPOS>ATOM
      1 C          -3.4486   -0.0088   -1.7693 C.3     1  UNL1        0.0084
      2 N          -2.5765   -0.1437   -0.6501 N.am    1  UNL1       -0.2701
      3 C          -1.5334    0.8647   -0.6332 C.ar    1  UNL1        0.0453
      4 C          -0.2688    0.7067   -0.0451 C.ar    1  UNL1        0.0234
      5 C           0.6696    1.7427    0.0113 C.ar    1  UNL1       -0.0324
      6 C           0.2726    2.9344   -0.5577 C.ar    1  UNL1        0.0417
      7 CL          1.4161    4.2309   -0.5058 Cl      1  UNL1       -0.0835
      8 C          -0.9787    3.0952   -1.1460 C.ar    1  UNL1       -0.0416
      9 C          -1.9108    2.0727   -1.1996 C.ar    1  UNL1       -0.0383
     10 C           0.3120   -0.5192    0.5504 C.2     1  UNL1        0.0780
     11 N          -0.4137   -1.3439    1.2463 N.2     1  UNL1       -0.2428
     12 C          -1.8082   -1.3304    1.5996 C.3     1  UNL1        0.2248
     13 O          -2.0412   -0.3707    2.5715 O.3     1  UNL1       -0.3636
     14 C          -2.6803   -1.1476    0.3965 C.2     1  UNL1        0.2709
     15 O          -3.6836   -1.8871    0.1146 O.2     1  UNL1       -0.2702
     16 C           1.7220   -0.7866    0.3405 C.ar    1  UNL1        0.0007
     17 C           2.7629   -0.2960   -0.3920 C.ar    1  UNL1       -0.0526
     18 C           4.0707   -0.6876   -0.3484 C.ar    1  UNL1       -0.0611
     19 C           4.4430   -1.6937    0.5154 C.ar    1  UNL1       -0.0617
     20 C           3.4744   -2.2561    1.2943 C.ar    1  UNL1       -0.0611
     21 C           2.1793   -1.8115    1.1988 C.ar    1  UNL1       -0.0526
     22 H          -3.9073   -1.0171   -1.9342 H       1  UNL1        0.0433
     23 H          -4.3415    0.6483   -1.5895 H       1  UNL1        0.0433
     24 H          -2.9253    0.2109   -2.7183 H       1  UNL1        0.0433
     25 H           1.5897    1.5738    0.5101 H       1  UNL1        0.0639
     26 H          -1.2894    4.0267   -1.5923 H       1  UNL1        0.0633
     27 H          -2.8836    2.0634   -1.6127 H       1  UNL1        0.0637
     28 H          -2.0370   -2.3205    2.0179 H       1  UNL1        0.0952
     29 H          -2.1198    0.5011    2.1062 H       1  UNL1        0.2125
     30 H           2.4002    0.4451   -1.0898 H       1  UNL1        0.0624
     31 H           4.7138   -0.1454   -1.0262 H       1  UNL1        0.0618
     32 H           5.4797   -1.9514    0.5000 H       1  UNL1        0.0618
     33 H           3.8122   -3.0341    1.9483 H       1  UNL1        0.0618
     34 H           1.5296   -2.3651    1.8886 H       1  UNL1        0.0624
@<TRIPOS>BOND
     1     1     2    1
     2     2     3    1
     3     3     4   ar
     4     4     5   ar
     5     5     6   ar
     6     6     7    1
     7     6     8   ar
     8     8     9   ar
     9     4    10    1
    10    10    11    2
    11    11    12    1
    12    12    13    1
    13    12    14    1
    14    14    15    2
    15    10    16    1
    16    16    17   ar
    17    17    18   ar
    18    18    19   ar
    19    19    20   ar
    20    20    21   ar
    21    14     2   am
    22    21    16   ar
    23     9     3   ar
    24     1    22    1
    25     1    23    1
    26     1    24    1
    27     5    25    1
    28     8    26    1
    29     9    27    1
    30    12    28    1
    31    13    29    1
    32    17    30    1
    33    18    31    1
    34    19    32    1
    35    20    33    1
    36    21    34    1
