
     RDKit          3D

 65 67  0  0  0  0  0  0  0  0999 V2000
   -4.8771    1.3537    0.7037 O   0  0  0  0  0  0  0  0  0  0  0  0
   -4.9184    0.1546    1.0612 C   0  0  0  0  0  0  0  0  0  0  0  0
   -6.1360   -0.6787    0.9913 C   0  0  0  0  0  0  0  0  0  0  0  0
   -7.3558    0.0042    0.4983 C   0  0  0  0  0  0  0  0  0  0  0  0
   -7.3021    0.5660   -0.8548 C   0  0  0  0  0  0  0  0  0  0  0  0
   -7.4961   -0.2374   -1.9700 C   0  0  0  0  0  0  0  0  0  0  0  0
   -7.4808    0.2781   -3.2272 C   0  0  0  0  0  0  0  0  0  0  0  0
   -7.2740    1.6084   -3.4438 C   0  0  0  0  0  0  0  0  0  0  0  0
   -7.0775    2.4449   -2.3730 C   0  0  0  0  0  0  0  0  0  0  0  0
   -7.0966    1.8982   -1.0841 C   0  0  0  0  0  0  0  0  0  0  0  0
   -3.6954   -0.3985    1.5591 N   0  0  0  0  0  0  0  0  0  0  0  0
   -2.4523    0.3131    1.6645 C   0  0  0  0  0  0  0  0  0  0  0  0
   -1.8865    0.7922    0.3703 C   0  0  0  0  0  0  0  0  0  0  0  0
   -1.5889   -0.2563   -0.6233 C   0  0  0  0  0  0  0  0  0  0  0  0
   -0.7031   -1.3700   -0.3481 C   0  0  0  0  0  0  0  0  0  0  0  0
    0.7314   -1.2283   -0.0015 C   0  0  2  0  0  0  0  0  0  0  0  0
    1.2887   -2.6191    0.1280 N   0  0  0  0  0  0  0  0  0  0  0  0
    2.5969   -2.8731   -0.9268 S   0  0  0  0  0  6  0  0  0  0  0  0
    2.1689   -2.7199   -2.3578 O   0  0  0  0  0  0  0  0  0  0  0  0
    3.0452   -4.3009   -0.7566 O   0  0  0  0  0  0  0  0  0  0  0  0
    3.9036   -1.7637   -0.5383 C   0  0  0  0  0  0  0  0  0  0  0  0
    4.8525   -2.0976    0.4137 C   0  0  0  0  0  0  0  0  0  0  0  0
    5.8931   -1.2484    0.7366 C   0  0  0  0  0  0  0  0  0  0  0  0
    6.0369   -0.0204    0.1221 C   0  0  0  0  0  0  0  0  0  0  0  0
    7.1407    0.8736    0.4655 C   0  0  0  0  0  0  0  0  0  0  0  0
    7.6497    0.8896    1.7371 C   0  0  0  0  0  0  0  0  0  0  0  0
    8.7028    1.7470    2.0493 C   0  0  0  0  0  0  0  0  0  0  0  0
    9.2647    2.5992    1.1057 C   0  0  0  0  0  0  0  0  0  0  0  0
   10.7067    3.7639    1.5602 Br  0  0  0  0  0  0  0  0  0  0  0  0
    8.7498    2.5835   -0.1818 C   0  0  0  0  0  0  0  0  0  0  0  0
    7.7112    1.7256   -0.4557 C   0  0  0  0  0  0  0  0  0  0  0  0
    5.0939    0.3157   -0.8265 C   0  0  0  0  0  0  0  0  0  0  0  0
    4.0513   -0.5357   -1.1497 C   0  0  0  0  0  0  0  0  0  0  0  0
    0.9939   -0.6479    1.3393 C   0  0  0  0  0  0  0  0  0  0  0  0
    0.8330    0.5435    1.6357 O   0  0  0  0  0  0  0  0  0  0  0  0
    1.4659   -1.4581    2.4125 O   0  0  0  0  0  0  0  0  0  0  0  0
   -6.3533   -1.1591    1.9866 H   0  0  0  0  0  0  0  0  0  0  0  0
   -5.8658   -1.5283    0.2967 H   0  0  0  0  0  0  0  0  0  0  0  0
   -8.2663   -0.6611    0.5925 H   0  0  0  0  0  0  0  0  0  0  0  0
   -7.5618    0.8822    1.1877 H   0  0  0  0  0  0  0  0  0  0  0  0
   -7.6641   -1.2990   -1.8362 H   0  0  0  0  0  0  0  0  0  0  0  0
   -7.6363   -0.3969   -4.0651 H   0  0  0  0  0  0  0  0  0  0  0  0
   -7.2541    2.0596   -4.4339 H   0  0  0  0  0  0  0  0  0  0  0  0
   -6.9121    3.5009   -2.5205 H   0  0  0  0  0  0  0  0  0  0  0  0
   -6.9558    2.6227   -0.2849 H   0  0  0  0  0  0  0  0  0  0  0  0
   -3.7706   -1.4203    1.8597 H   0  0  0  0  0  0  0  0  0  0  0  0
   -2.6803    1.2509    2.2621 H   0  0  0  0  0  0  0  0  0  0  0  0
   -1.7082   -0.2625    2.2828 H   0  0  0  0  0  0  0  0  0  0  0  0
   -2.7831    1.3729   -0.1099 H   0  0  0  0  0  0  0  0  0  0  0  0
   -1.1267    1.5475    0.5084 H   0  0  0  0  0  0  0  0  0  0  0  0
   -1.3220    0.3001   -1.5840 H   0  0  0  0  0  0  0  0  0  0  0  0
   -2.5971   -0.7182   -0.9451 H   0  0  0  0  0  0  0  0  0  0  0  0
   -0.8309   -2.1531   -1.1812 H   0  0  0  0  0  0  0  0  0  0  0  0
   -1.1926   -1.9579    0.5253 H   0  0  0  0  0  0  0  0  0  0  0  0
    1.3035   -0.6943   -0.7602 H   0  0  0  0  0  0  0  0  0  0  0  0
    1.5368   -2.8249    1.1001 H   0  0  0  0  0  0  0  0  0  0  0  0
    4.7334   -3.0720    0.8963 H   0  0  0  0  0  0  0  0  0  0  0  0
    6.6184   -1.5250    1.4778 H   0  0  0  0  0  0  0  0  0  0  0  0
    7.2799    0.2650    2.5392 H   0  0  0  0  0  0  0  0  0  0  0  0
    9.1312    1.7855    3.0473 H   0  0  0  0  0  0  0  0  0  0  0  0
    9.1325    3.2127   -0.9626 H   0  0  0  0  0  0  0  0  0  0  0  0
    7.3157    1.7205   -1.4613 H   0  0  0  0  0  0  0  0  0  0  0  0
    5.2164    1.2894   -1.3056 H   0  0  0  0  0  0  0  0  0  0  0  0
    3.3359   -0.2301   -1.9032 H   0  0  0  0  0  0  0  0  0  0  0  0
    1.3374   -1.1105    3.3563 H   0  0  0  0  0  0  0  0  0  0  0  0
  1  2  2  0
  2  3  1  0
  3  4  1  0
  4  5  1  0
  5  6  2  0
  6  7  1  0
  7  8  2  0
  8  9  1  0
  9 10  2  0
  2 11  1  0
 11 12  1  0
 12 13  1  0
 13 14  1  0
 14 15  1  0
 15 16  1  0
 16 17  1  0
 17 18  1  0
 18 19  2  0
 18 20  2  0
 18 21  1  0
 21 22  2  0
 22 23  1  0
 23 24  2  0
 24 25  1  0
 25 26  2  0
 26 27  1  0
 27 28  2  0
 28 29  1  0
 28 30  1  0
 30 31  2  0
 24 32  1  0
 32 33  2  0
 16 34  1  0
 34 35  2  0
 34 36  1  0
 10  5  1  0
 33 21  1  0
 31 25  1  0
  3 37  1  0
  3 38  1  0
  4 39  1  0
  4 40  1  0
  6 41  1  0
  7 42  1  0
  8 43  1  0
  9 44  1  0
 10 45  1  0
 11 46  1  0
 12 47  1  0
 12 48  1  0
 13 49  1  0
 13 50  1  0
 14 51  1  0
 14 52  1  0
 15 53  1  0
 15 54  1  0
 16 55  1  6
 17 56  1  0
 22 57  1  0
 23 58  1  0
 26 59  1  0
 27 60  1  0
 30 61  1  0
 31 62  1  0
 32 63  1  0
 33 64  1  0
 36 65  1  0
M  END
$$$$
