@<TRIPOS>MOLECULE
*****
 65 67 0 0 0
SMALL
GASTEIGER

@<TRIPOS>ATOM
      1 O          -4.8771    1.3537    0.7037 O.2     1  UNL1       -0.2758
      2 C          -4.9184    0.1546    1.0612 C.2     1  UNL1        0.2133
      3 C          -6.1360   -0.6787    0.9913 C.3     1  UNL1        0.0279
      4 C          -7.3558    0.0042    0.4983 C.3     1  UNL1       -0.0194
      5 C          -7.3021    0.5660   -0.8548 C.ar    1  UNL1       -0.0469
      6 C          -7.4961   -0.2374   -1.9700 C.ar    1  UNL1       -0.0586
      7 C          -7.4808    0.2781   -3.2272 C.ar    1  UNL1       -0.0615
      8 C          -7.2740    1.6084   -3.4438 C.ar    1  UNL1       -0.0617
      9 C          -7.0775    2.4449   -2.3730 C.ar    1  UNL1       -0.0615
     10 C          -7.0966    1.8982   -1.0841 C.ar    1  UNL1       -0.0586
     11 N          -3.6954   -0.3985    1.5591 N.am    1  UNL1       -0.3153
     12 C          -2.4523    0.3131    1.6645 C.3     1  UNL1        0.0116
     13 C          -1.8865    0.7922    0.3703 C.3     1  UNL1       -0.0373
     14 C          -1.5889   -0.2563   -0.6233 C.3     1  UNL1       -0.0497
     15 C          -0.7031   -1.3700   -0.3481 C.3     1  UNL1       -0.0256
     16 C           0.7314   -1.2283   -0.0015 C.3     1  UNL1        0.1253
     17 N           1.2887   -2.6191    0.1280 N.3     1  UNL1       -0.1762
     18 S           2.5969   -2.8731   -0.9268 S.O2    1  UNL1        0.0591
     19 O           2.1689   -2.7199   -2.3578 O.2     1  UNL1       -0.1530
     20 O           3.0452   -4.3009   -0.7566 O.2     1  UNL1       -0.1530
     21 C           3.9036   -1.7637   -0.5383 C.ar    1  UNL1        0.1053
     22 C           4.8525   -2.0976    0.4137 C.ar    1  UNL1       -0.0348
     23 C           5.8931   -1.2484    0.7366 C.ar    1  UNL1       -0.0522
     24 C           6.0369   -0.0204    0.1221 C.ar    1  UNL1       -0.0178
     25 C           7.1407    0.8736    0.4655 C.ar    1  UNL1       -0.0178
     26 C           7.6497    0.8896    1.7371 C.ar    1  UNL1       -0.0530
     27 C           8.7028    1.7470    2.0493 C.ar    1  UNL1       -0.0472
     28 C           9.2647    2.5992    1.1057 C.ar    1  UNL1        0.0179
     29 BR         10.7067    3.7639    1.5602 Br      1  UNL1       -0.0503
     30 C           8.7498    2.5835   -0.1818 C.ar    1  UNL1       -0.0472
     31 C           7.7112    1.7256   -0.4557 C.ar    1  UNL1       -0.0530
     32 C           5.0939    0.3157   -0.8265 C.ar    1  UNL1       -0.0522
     33 C           4.0513   -0.5357   -1.1497 C.ar    1  UNL1       -0.0348
     34 C           0.9939   -0.6479    1.3393 C.2     1  UNL1        0.3235
     35 O           0.8330    0.5435    1.6357 O.2     1  UNL1       -0.2492
     36 O           1.4659   -1.4581    2.4125 O.3     1  UNL1       -0.4795
     37 H          -6.3533   -1.1591    1.9866 H       1  UNL1        0.0361
     38 H          -5.8658   -1.5283    0.2967 H       1  UNL1        0.0361
     39 H          -8.2663   -0.6611    0.5925 H       1  UNL1        0.0318
     40 H          -7.5618    0.8822    1.1877 H       1  UNL1        0.0318
     41 H          -7.6641   -1.2990   -1.8362 H       1  UNL1        0.0620
     42 H          -7.6363   -0.3969   -4.0651 H       1  UNL1        0.0618
     43 H          -7.2541    2.0596   -4.4339 H       1  UNL1        0.0618
     44 H          -6.9121    3.5009   -2.5205 H       1  UNL1        0.0618
     45 H          -6.9558    2.6227   -0.2849 H       1  UNL1        0.0620
     46 H          -3.7706   -1.4203    1.8597 H       1  UNL1        0.1487
     47 H          -2.6803    1.2509    2.2621 H       1  UNL1        0.0462
     48 H          -1.7082   -0.2625    2.2828 H       1  UNL1        0.0462
     49 H          -2.7831    1.3729   -0.1099 H       1  UNL1        0.0280
     50 H          -1.1267    1.5475    0.5084 H       1  UNL1        0.0280
     51 H          -1.3220    0.3001   -1.5840 H       1  UNL1        0.0266
     52 H          -2.5971   -0.7182   -0.9451 H       1  UNL1        0.0266
     53 H          -0.8309   -2.1531   -1.1812 H       1  UNL1        0.0286
     54 H          -1.1926   -1.9579    0.5253 H       1  UNL1        0.0286
     55 H           1.3035   -0.6943   -0.7602 H       1  UNL1        0.0592
     56 H           1.5368   -2.8249    1.1001 H       1  UNL1        0.1489
     57 H           4.7334   -3.0720    0.8963 H       1  UNL1        0.0637
     58 H           6.6184   -1.5250    1.4778 H       1  UNL1        0.0624
     59 H           7.2799    0.2650    2.5392 H       1  UNL1        0.0624
     60 H           9.1312    1.7855    3.0473 H       1  UNL1        0.0629
     61 H           9.1325    3.2127   -0.9626 H       1  UNL1        0.0629
     62 H           7.3157    1.7205   -1.4613 H       1  UNL1        0.0624
     63 H           5.2164    1.2894   -1.3056 H       1  UNL1        0.0624
     64 H           3.3359   -0.2301   -1.9032 H       1  UNL1        0.0637
     65 H           1.3374   -1.1105    3.3563 H       1  UNL1        0.2951
@<TRIPOS>BOND
     1     1     2    2
     2     2     3    1
     3     3     4    1
     4     4     5    1
     5     5     6   ar
     6     6     7   ar
     7     7     8   ar
     8     8     9   ar
     9     9    10   ar
    10     2    11   am
    11    11    12    1
    12    12    13    1
    13    13    14    1
    14    14    15    1
    15    15    16    1
    16    16    17    1
    17    17    18    1
    18    18    19    2
    19    18    20    2
    20    18    21    1
    21    21    22   ar
    22    22    23   ar
    23    23    24   ar
    24    24    25    1
    25    25    26   ar
    26    26    27   ar
    27    27    28   ar
    28    28    29    1
    29    28    30   ar
    30    30    31   ar
    31    24    32   ar
    32    32    33   ar
    33    16    34    1
    34    34    35    2
    35    34    36    1
    36    10     5   ar
    37    33    21   ar
    38    31    25   ar
    39     3    37    1
    40     3    38    1
    41     4    39    1
    42     4    40    1
    43     6    41    1
    44     7    42    1
    45     8    43    1
    46     9    44    1
    47    10    45    1
    48    11    46    1
    49    12    47    1
    50    12    48    1
    51    13    49    1
    52    13    50    1
    53    14    51    1
    54    14    52    1
    55    15    53    1
    56    15    54    1
    57    16    55    1
    58    17    56    1
    59    22    57    1
    60    23    58    1
    61    26    59    1
    62    27    60    1
    63    30    61    1
    64    31    62    1
    65    32    63    1
    66    33    64    1
    67    36    65    1
