@<TRIPOS>MOLECULE
*****
 63 67 0 0 0
SMALL
GASTEIGER

@<TRIPOS>ATOM
      1 F          -6.0883    5.4766    0.5286 F       1  UNL1       -0.2055
      2 C          -5.3416    4.3520    0.4660 C.ar    1  UNL1        0.1234
      3 C          -5.2419    3.4633    1.5166 C.ar    1  UNL1       -0.0262
      4 C          -4.4797    2.3137    1.4550 C.ar    1  UNL1       -0.0553
      5 C          -3.7743    2.0063    0.3133 C.ar    1  UNL1       -0.0398
      6 C          -3.8845    2.9068   -0.7309 C.ar    1  UNL1       -0.0553
      7 C          -4.6356    4.0616   -0.7015 C.ar    1  UNL1       -0.0262
      8 C          -2.9412    0.7764    0.2083 C.3     1  UNL1        0.0093
      9 C          -2.2408    0.4331    1.4657 C.3     1  UNL1       -0.0410
     10 C          -1.4057   -0.8213    1.3316 C.3     1  UNL1       -0.0394
     11 C          -0.3601   -0.6619    0.2715 C.3     1  UNL1       -0.0011
     12 N           0.4938   -1.7931    0.0751 N.3     1  UNL1       -0.3022
     13 C           1.3987   -2.0972    1.1247 C.3     1  UNL1        0.0008
     14 C           2.6905   -1.3101    1.0669 C.3     1  UNL1       -0.0191
     15 C           3.2659   -1.5887   -0.3157 C.3     1  UNL1        0.0417
     16 C           2.3399   -1.0116   -1.2961 C.3     1  UNL1       -0.0191
     17 C           1.0592   -1.8632   -1.2494 C.3     1  UNL1        0.0008
     18 N           4.6550   -1.2813   -0.4054 N.ar    1  UNL1       -0.2891
     19 C           5.7065   -2.1346   -0.5325 C.ar    1  UNL1        0.3278
     20 O           5.6475   -3.3950   -0.5967 O.2     1  UNL1       -0.2465
     21 N           6.8850   -1.4892   -0.5874 N.ar    1  UNL1       -0.3059
     22 C           6.6180   -0.1845   -0.4957 C.ar    1  UNL1        0.0670
     23 C           7.4739    0.8939   -0.5022 C.ar    1  UNL1       -0.0362
     24 C           6.9357    2.1640   -0.3916 C.ar    1  UNL1       -0.0597
     25 C           5.5757    2.3461   -0.2775 C.ar    1  UNL1       -0.0597
     26 C           4.7670    1.2115   -0.2777 C.ar    1  UNL1       -0.0360
     27 C           5.2397   -0.0759   -0.3843 C.ar    1  UNL1        0.0700
     28 C          -3.7960   -0.2954   -0.3329 C.ar    1  UNL1       -0.0398
     29 C          -4.5197   -1.1250    0.5235 C.ar    1  UNL1       -0.0553
     30 C          -5.3180   -2.1223    0.0617 C.ar    1  UNL1       -0.0262
     31 C          -5.4611   -2.3757   -1.2992 C.ar    1  UNL1        0.1234
     32 F          -6.2637   -3.3763   -1.7276 F       1  UNL1       -0.2055
     33 C          -4.7440   -1.5526   -2.1289 C.ar    1  UNL1       -0.0262
     34 C          -3.9284   -0.5364   -1.7043 C.ar    1  UNL1       -0.0553
     35 H          -5.8087    3.7400    2.3922 H       1  UNL1        0.0646
     36 H          -4.4540    1.6764    2.3114 H       1  UNL1        0.0621
     37 H          -3.3516    2.7325   -1.6758 H       1  UNL1        0.0621
     38 H          -4.6899    4.7369   -1.5485 H       1  UNL1        0.0646
     39 H          -2.1815    1.0191   -0.5698 H       1  UNL1        0.0397
     40 H          -2.9036    0.3451    2.3505 H       1  UNL1        0.0275
     41 H          -1.5597    1.2824    1.7090 H       1  UNL1        0.0275
     42 H          -0.9088   -1.0740    2.2974 H       1  UNL1        0.0278
     43 H          -2.0801   -1.7004    1.1055 H       1  UNL1        0.0278
     44 H           0.2687    0.1959    0.5186 H       1  UNL1        0.0426
     45 H          -0.8909   -0.5159   -0.7176 H       1  UNL1        0.0426
     46 H           0.9364   -1.8429    2.0971 H       1  UNL1        0.0427
     47 H           1.6577   -3.1744    1.2012 H       1  UNL1        0.0427
     48 H           3.3838   -1.7338    1.7978 H       1  UNL1        0.0298
     49 H           2.5305   -0.2365    1.2445 H       1  UNL1        0.0298
     50 H           3.1672   -2.7066   -0.4076 H       1  UNL1        0.0530
     51 H           1.9409   -0.0180   -0.9548 H       1  UNL1        0.0298
     52 H           2.6616   -1.0071   -2.3486 H       1  UNL1        0.0298
     53 H           0.3332   -1.3784   -1.9421 H       1  UNL1        0.0427
     54 H           1.2876   -2.8795   -1.5697 H       1  UNL1        0.0427
     55 H           7.8310   -1.9080   -0.6825 H       1  UNL1        0.1704
     56 H           8.5402    0.7792   -0.5906 H       1  UNL1        0.0639
     57 H           7.5997    2.9953   -0.3970 H       1  UNL1        0.0618
     58 H           5.1728    3.3492   -0.1918 H       1  UNL1        0.0618
     59 H           3.7250    1.3774   -0.1883 H       1  UNL1        0.0639
     60 H          -4.4308   -0.9557    1.5744 H       1  UNL1        0.0621
     61 H          -5.8958   -2.7867    0.7241 H       1  UNL1        0.0646
     62 H          -4.8417   -1.7339   -3.2010 H       1  UNL1        0.0646
     63 H          -3.3664    0.1083   -2.3663 H       1  UNL1        0.0621
@<TRIPOS>BOND
     1     1     2    1
     2     2     3   ar
     3     3     4   ar
     4     4     5   ar
     5     5     6   ar
     6     6     7   ar
     7     5     8    1
     8     8     9    1
     9     9    10    1
    10    10    11    1
    11    11    12    1
    12    12    13    1
    13    13    14    1
    14    14    15    1
    15    15    16    1
    16    16    17    1
    17    15    18    1
    18    18    19   ar
    19    19    20    2
    20    19    21   ar
    21    21    22   ar
    22    22    23   ar
    23    23    24   ar
    24    24    25   ar
    25    25    26   ar
    26    26    27   ar
    27     8    28    1
    28    28    29   ar
    29    29    30   ar
    30    30    31   ar
    31    31    32    1
    32    31    33   ar
    33    33    34   ar
    34     7     2   ar
    35    17    12    1
    36    27    18   ar
    37    34    28   ar
    38    27    22   ar
    39     3    35    1
    40     4    36    1
    41     6    37    1
    42     7    38    1
    43     8    39    1
    44     9    40    1
    45     9    41    1
    46    10    42    1
    47    10    43    1
    48    11    44    1
    49    11    45    1
    50    13    46    1
    51    13    47    1
    52    14    48    1
    53    14    49    1
    54    15    50    1
    55    16    51    1
    56    16    52    1
    57    17    53    1
    58    17    54    1
    59    21    55    1
    60    23    56    1
    61    24    57    1
    62    25    58    1
    63    26    59    1
    64    29    60    1
    65    30    61    1
    66    33    62    1
    67    34    63    1
