@<TRIPOS>MOLECULE
*****
 30 30 0 0 0
SMALL
GASTEIGER

@<TRIPOS>ATOM
      1 C           0.1114   -0.2344    1.3394 C.3     1  UNL1        0.1818
      2 O           0.7529   -0.4935    2.5459 O.3     1  UNL1       -0.3652
      3 O          -1.1107   -0.9171    1.2542 O.3     1  UNL1       -0.3411
      4 C          -1.9067   -0.1057    0.4152 C.3     1  UNL1        0.1130
      5 C          -3.3062   -0.6576    0.2570 C.3     1  UNL1        0.0730
      6 O          -3.9805    0.2351   -0.5904 O.3     1  UNL1       -0.3924
      7 C          -1.2657   -0.0422   -0.9503 C.3     1  UNL1        0.1115
      8 O          -0.9179    1.2710   -1.2659 O.3     1  UNL1       -0.3865
      9 C          -0.0329   -0.9512   -0.9884 C.3     1  UNL1        0.1105
     10 O           0.5419   -0.8511   -2.2475 O.3     1  UNL1       -0.3868
     11 C           0.9362   -0.5743    0.1277 C.3     1  UNL1        0.1329
     12 N           1.7135    0.5734   -0.2488 N.2     1  UNL1       -0.2439
     13 C           2.9824    0.6893   -0.1728 C.2     1  UNL1        0.1797
     14 C           3.6476   -0.5094    0.3618 C.3     1  UNL1        0.0112
     15 O           2.3855    1.8242   -0.6759 O.2     1  UNL1       -0.4958
     16 H          -0.0872    0.8706    1.2967 H       1  UNL1        0.0931
     17 H           0.9140    0.3381    3.0620 H       1  UNL1        0.2125
     18 H          -1.9186    0.8962    0.8910 H       1  UNL1        0.0647
     19 H          -3.8391   -0.7061    1.2198 H       1  UNL1        0.0584
     20 H          -3.2452   -1.6168   -0.2875 H       1  UNL1        0.0584
     21 H          -4.4542    0.8946   -0.0227 H       1  UNL1        0.2095
     22 H          -1.9276   -0.3972   -1.7671 H       1  UNL1        0.0647
     23 H          -1.3050    1.9159   -0.6115 H       1  UNL1        0.2100
     24 H          -0.4432   -1.9701   -0.7836 H       1  UNL1        0.0643
     25 H          -0.2177   -0.8037   -2.8965 H       1  UNL1        0.2100
     26 H           1.5520   -1.4777    0.3385 H       1  UNL1        0.0623
     27 H           3.2393   -0.7468    1.3820 H       1  UNL1        0.0324
     28 H           4.7309   -0.3334    0.4621 H       1  UNL1        0.0324
     29 H           3.5080   -1.3914   -0.3066 H       1  UNL1        0.0324
     30 H           2.9428    2.5570   -1.1379 H       1  UNL1        0.2934
@<TRIPOS>BOND
     1     1     2    1
     2     1     3    1
     3     3     4    1
     4     4     5    1
     5     5     6    1
     6     4     7    1
     7     7     8    1
     8     7     9    1
     9     9    10    1
    10     9    11    1
    11    11    12    1
    12    12    13    2
    13    13    14    1
    14    13    15    1
    15    11     1    1
    16     1    16    1
    17     2    17    1
    18     4    18    1
    19     5    19    1
    20     5    20    1
    21     6    21    1
    22     7    22    1
    23     8    23    1
    24     9    24    1
    25    10    25    1
    26    11    26    1
    27    14    27    1
    28    14    28    1
    29    14    29    1
    30    15    30    1
