
     RDKit          3D

 30 30  0  0  0  0  0  0  0  0999 V2000
    0.1114   -0.2344    1.3394 C   0  0  2  0  0  0  0  0  0  0  0  0
    0.7529   -0.4935    2.5459 O   0  0  0  0  0  0  0  0  0  0  0  0
   -1.1107   -0.9171    1.2542 O   0  0  0  0  0  0  0  0  0  0  0  0
   -1.9067   -0.1057    0.4152 C   0  0  2  0  0  0  0  0  0  0  0  0
   -3.3062   -0.6576    0.2570 C   0  0  0  0  0  0  0  0  0  0  0  0
   -3.9805    0.2351   -0.5904 O   0  0  0  0  0  0  0  0  0  0  0  0
   -1.2657   -0.0422   -0.9503 C   0  0  1  0  0  0  0  0  0  0  0  0
   -0.9179    1.2710   -1.2659 O   0  0  0  0  0  0  0  0  0  0  0  0
   -0.0329   -0.9512   -0.9884 C   0  0  1  0  0  0  0  0  0  0  0  0
    0.5419   -0.8511   -2.2475 O   0  0  0  0  0  0  0  0  0  0  0  0
    0.9362   -0.5743    0.1277 C   0  0  1  0  0  0  0  0  0  0  0  0
    1.7135    0.5734   -0.2488 N   0  0  0  0  0  0  0  0  0  0  0  0
    2.9824    0.6893   -0.1728 C   0  0  0  0  0  0  0  0  0  0  0  0
    3.6476   -0.5094    0.3618 C   0  0  0  0  0  0  0  0  0  0  0  0
    2.3855    1.8242   -0.6759 O   0  0  0  0  0  0  0  0  0  0  0  0
   -0.0872    0.8706    1.2967 H   0  0  0  0  0  0  0  0  0  0  0  0
    0.9140    0.3381    3.0620 H   0  0  0  0  0  0  0  0  0  0  0  0
   -1.9186    0.8962    0.8910 H   0  0  0  0  0  0  0  0  0  0  0  0
   -3.8391   -0.7061    1.2198 H   0  0  0  0  0  0  0  0  0  0  0  0
   -3.2452   -1.6168   -0.2875 H   0  0  0  0  0  0  0  0  0  0  0  0
   -4.4542    0.8946   -0.0227 H   0  0  0  0  0  0  0  0  0  0  0  0
   -1.9276   -0.3972   -1.7671 H   0  0  0  0  0  0  0  0  0  0  0  0
   -1.3050    1.9159   -0.6115 H   0  0  0  0  0  0  0  0  0  0  0  0
   -0.4432   -1.9701   -0.7836 H   0  0  0  0  0  0  0  0  0  0  0  0
   -0.2177   -0.8037   -2.8965 H   0  0  0  0  0  0  0  0  0  0  0  0
    1.5520   -1.4777    0.3385 H   0  0  0  0  0  0  0  0  0  0  0  0
    3.2393   -0.7468    1.3820 H   0  0  0  0  0  0  0  0  0  0  0  0
    4.7309   -0.3334    0.4621 H   0  0  0  0  0  0  0  0  0  0  0  0
    3.5080   -1.3914   -0.3066 H   0  0  0  0  0  0  0  0  0  0  0  0
    2.9428    2.5570   -1.1379 H   0  0  0  0  0  0  0  0  0  0  0  0
  1  2  1  0
  1  3  1  0
  3  4  1  0
  4  5  1  0
  5  6  1  0
  4  7  1  0
  7  8  1  0
  7  9  1  0
  9 10  1  0
  9 11  1  0
 11 12  1  0
 12 13  2  3
 13 14  1  0
 13 15  1  0
 11  1  1  0
  1 16  1  6
  2 17  1  0
  4 18  1  1
  5 19  1  0
  5 20  1  0
  6 21  1  0
  7 22  1  6
  8 23  1  0
  9 24  1  1
 10 25  1  0
 11 26  1  1
 14 27  1  0
 14 28  1  0
 14 29  1  0
 15 30  1  0
M  END
$$$$
