@<TRIPOS>MOLECULE
*****
 40 42 0 0 0
SMALL
GASTEIGER

@<TRIPOS>ATOM
      1 O           4.0102   -3.7215    0.3506 O.2     1  UNL1       -0.1498
      2 S           4.1173   -2.2173    0.4664 S.O2    1  UNL1        0.0766
      3 O           4.8059   -1.9707    1.7884 O.2     1  UNL1       -0.1498
      4 N           5.0171   -1.5652   -0.8417 N.pl3   1  UNL1       -0.1937
      5 C           5.2814   -0.1299   -0.8099 C.ar    1  UNL1        0.1774
      6 N           5.0752    0.8226   -0.1417 N.ar    1  UNL1       -0.2321
      7 C           5.4542    2.0605   -0.3704 C.ar    1  UNL1        0.0369
      8 C           6.1553    2.2789   -1.4865 C.ar    1  UNL1       -0.0030
      9 S           6.2510    0.6130   -2.2060 S.2     1  UNL1       -0.0594
     10 C           2.5212   -1.5154    0.5544 C.ar    1  UNL1        0.1450
     11 C           2.1295   -0.8335    1.6781 C.ar    1  UNL1       -0.0121
     12 C           0.8746   -0.2567    1.8004 C.ar    1  UNL1        0.0638
     13 CL          0.3595    0.6161    3.2265 Cl      1  UNL1       -0.0816
     14 C          -0.0081   -0.3762    0.7504 C.ar    1  UNL1        0.0486
     15 N          -1.3110    0.1915    0.8102 N.pl3   1  UNL1       -0.3401
     16 C          -2.2543    0.0792   -0.2785 C.3     1  UNL1        0.0376
     17 C          -3.5455    0.7678    0.0533 C.3     1  UNL1        0.0973
     18 C          -4.1207    0.2876    1.3576 C.3     1  UNL1        0.0754
     19 O          -5.2667   -0.4697    1.1915 O.3     1  UNL1       -0.3749
     20 C          -6.2527    0.1694    0.4579 C.3     1  UNL1        0.0711
     21 C          -5.6689    1.1383   -0.5419 C.3     1  UNL1        0.0715
     22 O          -4.4567    0.6633   -0.9897 O.3     1  UNL1       -0.3705
     23 C           0.3385   -1.0517   -0.3998 C.ar    1  UNL1       -0.0022
     24 C           1.6129   -1.6166   -0.4791 C.ar    1  UNL1        0.1517
     25 F           2.0067   -2.2891   -1.5805 F       1  UNL1       -0.2034
     26 H           5.3366   -2.1807   -1.5894 H       1  UNL1        0.1758
     27 H           5.2026    2.8892    0.3334 H       1  UNL1        0.0835
     28 H           6.6095    3.1871   -1.9531 H       1  UNL1        0.0710
     29 H           2.8051   -0.7314    2.5046 H       1  UNL1        0.0653
     30 H          -1.6256    0.7221    1.6758 H       1  UNL1        0.1462
     31 H          -1.8518    0.5068   -1.2180 H       1  UNL1        0.0487
     32 H          -2.4594   -0.9965   -0.4949 H       1  UNL1        0.0487
     33 H          -3.3353    1.8613    0.1764 H       1  UNL1        0.0635
     34 H          -3.3811   -0.3409    1.8804 H       1  UNL1        0.0586
     35 H          -4.3772    1.1266    2.0362 H       1  UNL1        0.0586
     36 H          -7.0137    0.6750    1.1010 H       1  UNL1        0.0583
     37 H          -6.7778   -0.6431   -0.1243 H       1  UNL1        0.0583
     38 H          -5.4990    2.1469   -0.0831 H       1  UNL1        0.0583
     39 H          -6.4079    1.2594   -1.3617 H       1  UNL1        0.0583
     40 H          -0.3507   -1.1563   -1.2440 H       1  UNL1        0.0666
@<TRIPOS>BOND
     1     1     2    2
     2     2     3    2
     3     2     4    1
     4     4     5    1
     5     5     6   ar
     6     6     7   ar
     7     7     8   ar
     8     8     9   ar
     9     2    10    1
    10    10    11   ar
    11    11    12   ar
    12    12    13    1
    13    12    14   ar
    14    14    15    1
    15    15    16    1
    16    16    17    1
    17    17    18    1
    18    18    19    1
    19    19    20    1
    20    20    21    1
    21    21    22    1
    22    14    23   ar
    23    23    24   ar
    24    24    25    1
    25     9     5   ar
    26    24    10   ar
    27    22    17    1
    28     4    26    1
    29     7    27    1
    30     8    28    1
    31    11    29    1
    32    15    30    1
    33    16    31    1
    34    16    32    1
    35    17    33    1
    36    18    34    1
    37    18    35    1
    38    20    36    1
    39    20    37    1
    40    21    38    1
    41    21    39    1
    42    23    40    1
