@<TRIPOS>MOLECULE
*****
 64 69 0 0 0
SMALL
GASTEIGER

@<TRIPOS>ATOM
      1 C          -8.2154   -0.1309    1.7220 C.3     1  UNL1       -0.0387
      2 C          -7.2078    0.2296    0.6887 C.ar    1  UNL1       -0.0330
      3 C          -7.1072    1.5177    0.2242 C.ar    1  UNL1        0.0620
      4 C          -7.9855    2.5890    0.7451 C.2     1  UNL1        0.3371
      5 O          -8.8369    2.3539    1.6145 O.2     1  UNL1       -0.2451
      6 O          -7.8516    3.8648    0.2513 O.3     1  UNL1       -0.4771
      7 C          -6.1731    1.8173   -0.7406 C.ar    1  UNL1       -0.0472
      8 C          -5.3323    0.8584   -1.2589 C.ar    1  UNL1       -0.0558
      9 C          -5.4315   -0.4351   -0.7964 C.ar    1  UNL1       -0.0237
     10 C          -6.3568   -0.7451    0.1659 C.ar    1  UNL1       -0.0387
     11 C          -6.2216   -2.1983    0.4888 C.3     1  UNL1       -0.0251
     12 C          -5.6032   -2.7447   -0.7883 C.3     1  UNL1       -0.0263
     13 C          -4.6549   -1.6870   -1.1883 C.3     1  UNL1        0.0493
     14 N          -3.4511   -1.7154   -0.3619 N.am    1  UNL1       -0.3033
     15 C          -2.2990   -1.1529   -0.9441 C.2     1  UNL1        0.2630
     16 O          -2.3734   -0.6541   -2.1181 O.2     1  UNL1       -0.2685
     17 C          -1.0186   -1.1069   -0.2710 C.ar    1  UNL1        0.1313
     18 C           0.0052   -0.3357   -0.7818 C.ar    1  UNL1       -0.0005
     19 C           1.2760   -0.2406   -0.2363 C.ar    1  UNL1        0.1299
     20 C           2.2847    0.5909   -0.8572 C.2     1  UNL1        0.2628
     21 O           1.9513    1.2723   -1.8865 O.2     1  UNL1       -0.2685
     22 N           3.6410    0.7297   -0.4330 N.am    1  UNL1       -0.3060
     23 C           4.5457    1.6083   -1.1682 C.3     1  UNL1        0.0372
     24 C           5.9412    1.1541   -0.9521 C.ar    1  UNL1       -0.0283
     25 C           6.4810    0.0858   -1.6197 C.ar    1  UNL1       -0.0535
     26 C           7.7933   -0.2596   -1.4704 C.ar    1  UNL1       -0.0178
     27 C           8.6348    0.4665   -0.6293 C.ar    1  UNL1        0.1423
     28 C           8.0740    1.5389    0.0369 C.ar    1  UNL1        0.0760
     29 C           6.7538    1.8995   -0.0998 C.ar    1  UNL1       -0.0322
     30 N           8.9518    2.3074    0.8791 N.am    1  UNL1       -0.2798
     31 C          10.2992    1.9359    0.9755 C.2     1  UNL1        0.2549
     32 O          11.1103    2.7621    1.5263 O.2     1  UNL1       -0.2717
     33 C          10.7920    0.6394    0.4638 C.3     1  UNL1        0.1656
     34 O           9.9499    0.1113   -0.4910 O.3     1  UNL1       -0.4809
     35 N           1.4934   -0.9615    0.8657 N.ar    1  UNL1       -0.2231
     36 C           0.5079   -1.7392    1.4053 C.ar    1  UNL1        0.1571
     37 C           0.5193   -2.5470    2.5133 C.ar    1  UNL1        0.0024
     38 C          -0.7317   -3.1034    2.6059 C.ar    1  UNL1        0.0519
     39 N          -1.4412   -2.6222    1.5721 N.ar    1  UNL1       -0.1727
     40 N          -0.7238   -1.8107    0.8474 N.ar    1  UNL1       -0.2095
     41 H          -8.1109   -1.1970    2.0076 H       1  UNL1        0.0278
     42 H          -8.0101    0.4490    2.6504 H       1  UNL1        0.0278
     43 H          -9.2152    0.0322    1.3108 H       1  UNL1        0.0278
     44 H          -8.3566    4.6673    0.5876 H       1  UNL1        0.2954
     45 H          -6.0882    2.8418   -1.1170 H       1  UNL1        0.0626
     46 H          -4.5913    1.0927   -2.0175 H       1  UNL1        0.0621
     47 H          -5.4327   -2.2977    1.2811 H       1  UNL1        0.0314
     48 H          -7.1736   -2.6804    0.7523 H       1  UNL1        0.0314
     49 H          -5.1508   -3.7387   -0.6035 H       1  UNL1        0.0289
     50 H          -6.4616   -2.8302   -1.5073 H       1  UNL1        0.0289
     51 H          -4.3875   -1.6073   -2.2536 H       1  UNL1        0.0548
     52 H          -3.4828   -2.1274    0.5928 H       1  UNL1        0.1497
     53 H          -0.1947    0.2499   -1.6853 H       1  UNL1        0.0663
     54 H           3.9473    0.1977    0.3903 H       1  UNL1        0.1494
     55 H           4.4137    2.6664   -0.8288 H       1  UNL1        0.0512
     56 H           4.3524    1.5850   -2.2601 H       1  UNL1        0.0512
     57 H           5.7971   -0.4689   -2.2773 H       1  UNL1        0.0622
     58 H           8.2017   -1.1189   -2.0172 H       1  UNL1        0.0655
     59 H           6.3486    2.7616    0.4581 H       1  UNL1        0.0640
     60 H           8.5695    3.1426    1.4113 H       1  UNL1        0.1550
     61 H          10.9220   -0.1142    1.2755 H       1  UNL1        0.0795
     62 H          11.8256    0.8721    0.0384 H       1  UNL1        0.0795
     63 H           1.3349   -2.7225    3.1881 H       1  UNL1        0.0670
     64 H          -1.0461   -3.7975    3.3844 H       1  UNL1        0.0848
@<TRIPOS>BOND
     1     1     2    1
     2     2     3   ar
     3     3     4    1
     4     4     5    2
     5     4     6    1
     6     3     7   ar
     7     7     8   ar
     8     8     9   ar
     9     9    10   ar
    10    10    11    1
    11    11    12    1
    12    12    13    1
    13    13    14    1
    14    14    15   am
    15    15    16    2
    16    15    17    1
    17    17    18   ar
    18    18    19   ar
    19    19    20    1
    20    20    21    2
    21    20    22   am
    22    22    23    1
    23    23    24    1
    24    24    25   ar
    25    25    26   ar
    26    26    27   ar
    27    27    28   ar
    28    28    29   ar
    29    28    30    1
    30    30    31   am
    31    31    32    2
    32    31    33    1
    33    33    34    1
    34    19    35   ar
    35    35    36   ar
    36    36    37   ar
    37    37    38   ar
    38    38    39   ar
    39    39    40   ar
    40    10     2   ar
    41    40    17   ar
    42    13     9    1
    43    29    24   ar
    44    40    36   ar
    45    34    27    1
    46     1    41    1
    47     1    42    1
    48     1    43    1
    49     6    44    1
    50     7    45    1
    51     8    46    1
    52    11    47    1
    53    11    48    1
    54    12    49    1
    55    12    50    1
    56    13    51    1
    57    14    52    1
    58    18    53    1
    59    22    54    1
    60    23    55    1
    61    23    56    1
    62    25    57    1
    63    26    58    1
    64    29    59    1
    65    30    60    1
    66    33    61    1
    67    33    62    1
    68    37    63    1
    69    38    64    1
