
     RDKit          3D

 64 69  0  0  0  0  0  0  0  0999 V2000
   -8.2154   -0.1309    1.7220 C   0  0  0  0  0  0  0  0  0  0  0  0
   -7.2078    0.2296    0.6887 C   0  0  0  0  0  0  0  0  0  0  0  0
   -7.1072    1.5177    0.2242 C   0  0  0  0  0  0  0  0  0  0  0  0
   -7.9855    2.5890    0.7451 C   0  0  0  0  0  0  0  0  0  0  0  0
   -8.8369    2.3539    1.6145 O   0  0  0  0  0  0  0  0  0  0  0  0
   -7.8516    3.8648    0.2513 O   0  0  0  0  0  0  0  0  0  0  0  0
   -6.1731    1.8173   -0.7406 C   0  0  0  0  0  0  0  0  0  0  0  0
   -5.3323    0.8584   -1.2589 C   0  0  0  0  0  0  0  0  0  0  0  0
   -5.4315   -0.4351   -0.7964 C   0  0  0  0  0  0  0  0  0  0  0  0
   -6.3568   -0.7451    0.1659 C   0  0  0  0  0  0  0  0  0  0  0  0
   -6.2216   -2.1983    0.4888 C   0  0  0  0  0  0  0  0  0  0  0  0
   -5.6032   -2.7447   -0.7883 C   0  0  0  0  0  0  0  0  0  0  0  0
   -4.6549   -1.6870   -1.1883 C   0  0  2  0  0  0  0  0  0  0  0  0
   -3.4511   -1.7154   -0.3619 N   0  0  0  0  0  0  0  0  0  0  0  0
   -2.2990   -1.1529   -0.9441 C   0  0  0  0  0  0  0  0  0  0  0  0
   -2.3734   -0.6541   -2.1181 O   0  0  0  0  0  0  0  0  0  0  0  0
   -1.0186   -1.1069   -0.2710 C   0  0  0  0  0  0  0  0  0  0  0  0
    0.0052   -0.3357   -0.7818 C   0  0  0  0  0  0  0  0  0  0  0  0
    1.2760   -0.2406   -0.2363 C   0  0  0  0  0  0  0  0  0  0  0  0
    2.2847    0.5909   -0.8572 C   0  0  0  0  0  0  0  0  0  0  0  0
    1.9513    1.2723   -1.8865 O   0  0  0  0  0  0  0  0  0  0  0  0
    3.6410    0.7297   -0.4330 N   0  0  0  0  0  0  0  0  0  0  0  0
    4.5457    1.6083   -1.1682 C   0  0  0  0  0  0  0  0  0  0  0  0
    5.9412    1.1541   -0.9521 C   0  0  0  0  0  0  0  0  0  0  0  0
    6.4810    0.0858   -1.6197 C   0  0  0  0  0  0  0  0  0  0  0  0
    7.7933   -0.2596   -1.4704 C   0  0  0  0  0  0  0  0  0  0  0  0
    8.6348    0.4665   -0.6293 C   0  0  0  0  0  0  0  0  0  0  0  0
    8.0740    1.5389    0.0369 C   0  0  0  0  0  0  0  0  0  0  0  0
    6.7538    1.8995   -0.0998 C   0  0  0  0  0  0  0  0  0  0  0  0
    8.9518    2.3074    0.8791 N   0  0  0  0  0  0  0  0  0  0  0  0
   10.2992    1.9359    0.9755 C   0  0  0  0  0  0  0  0  0  0  0  0
   11.1103    2.7621    1.5263 O   0  0  0  0  0  0  0  0  0  0  0  0
   10.7920    0.6394    0.4638 C   0  0  0  0  0  0  0  0  0  0  0  0
    9.9499    0.1113   -0.4910 O   0  0  0  0  0  0  0  0  0  0  0  0
    1.4934   -0.9615    0.8657 N   0  0  0  0  0  0  0  0  0  0  0  0
    0.5079   -1.7392    1.4053 C   0  0  0  0  0  0  0  0  0  0  0  0
    0.5193   -2.5470    2.5133 C   0  0  0  0  0  0  0  0  0  0  0  0
   -0.7317   -3.1034    2.6059 C   0  0  0  0  0  0  0  0  0  0  0  0
   -1.4412   -2.6222    1.5721 N   0  0  0  0  0  0  0  0  0  0  0  0
   -0.7238   -1.8107    0.8474 N   0  0  0  0  0  0  0  0  0  0  0  0
   -8.1109   -1.1970    2.0076 H   0  0  0  0  0  0  0  0  0  0  0  0
   -8.0101    0.4490    2.6504 H   0  0  0  0  0  0  0  0  0  0  0  0
   -9.2152    0.0322    1.3108 H   0  0  0  0  0  0  0  0  0  0  0  0
   -8.3566    4.6673    0.5876 H   0  0  0  0  0  0  0  0  0  0  0  0
   -6.0882    2.8418   -1.1170 H   0  0  0  0  0  0  0  0  0  0  0  0
   -4.5913    1.0927   -2.0175 H   0  0  0  0  0  0  0  0  0  0  0  0
   -5.4327   -2.2977    1.2811 H   0  0  0  0  0  0  0  0  0  0  0  0
   -7.1736   -2.6804    0.7523 H   0  0  0  0  0  0  0  0  0  0  0  0
   -5.1508   -3.7387   -0.6035 H   0  0  0  0  0  0  0  0  0  0  0  0
   -6.4616   -2.8302   -1.5073 H   0  0  0  0  0  0  0  0  0  0  0  0
   -4.3875   -1.6073   -2.2536 H   0  0  0  0  0  0  0  0  0  0  0  0
   -3.4828   -2.1274    0.5928 H   0  0  0  0  0  0  0  0  0  0  0  0
   -0.1947    0.2499   -1.6853 H   0  0  0  0  0  0  0  0  0  0  0  0
    3.9473    0.1977    0.3903 H   0  0  0  0  0  0  0  0  0  0  0  0
    4.4137    2.6664   -0.8288 H   0  0  0  0  0  0  0  0  0  0  0  0
    4.3524    1.5850   -2.2601 H   0  0  0  0  0  0  0  0  0  0  0  0
    5.7971   -0.4689   -2.2773 H   0  0  0  0  0  0  0  0  0  0  0  0
    8.2017   -1.1189   -2.0172 H   0  0  0  0  0  0  0  0  0  0  0  0
    6.3486    2.7616    0.4581 H   0  0  0  0  0  0  0  0  0  0  0  0
    8.5695    3.1426    1.4113 H   0  0  0  0  0  0  0  0  0  0  0  0
   10.9220   -0.1142    1.2755 H   0  0  0  0  0  0  0  0  0  0  0  0
   11.8256    0.8721    0.0384 H   0  0  0  0  0  0  0  0  0  0  0  0
    1.3349   -2.7225    3.1881 H   0  0  0  0  0  0  0  0  0  0  0  0
   -1.0461   -3.7975    3.3844 H   0  0  0  0  0  0  0  0  0  0  0  0
  1  2  1  0
  2  3  2  0
  3  4  1  0
  4  5  2  0
  4  6  1  0
  3  7  1  0
  7  8  2  0
  8  9  1  0
  9 10  2  0
 10 11  1  0
 11 12  1  0
 12 13  1  0
 13 14  1  0
 14 15  1  0
 15 16  2  0
 15 17  1  0
 17 18  2  0
 18 19  1  0
 19 20  1  0
 20 21  2  0
 20 22  1  0
 22 23  1  0
 23 24  1  0
 24 25  2  0
 25 26  1  0
 26 27  2  0
 27 28  1  0
 28 29  2  0
 28 30  1  0
 30 31  1  0
 31 32  2  0
 31 33  1  0
 33 34  1  0
 19 35  2  0
 35 36  1  0
 36 37  2  0
 37 38  1  0
 38 39  2  0
 39 40  1  0
 10  2  1  0
 40 17  1  0
 13  9  1  0
 29 24  1  0
 40 36  1  0
 34 27  1  0
  1 41  1  0
  1 42  1  0
  1 43  1  0
  6 44  1  0
  7 45  1  0
  8 46  1  0
 11 47  1  0
 11 48  1  0
 12 49  1  0
 12 50  1  0
 13 51  1  6
 14 52  1  0
 18 53  1  0
 22 54  1  0
 23 55  1  0
 23 56  1  0
 25 57  1  0
 26 58  1  0
 29 59  1  0
 30 60  1  0
 33 61  1  0
 33 62  1  0
 37 63  1  0
 38 64  1  0
M  END
$$$$
