
     RDKit          3D

 56 59  0  0  0  0  0  0  0  0999 V2000
   -6.6809    3.7893    0.6187 C   0  0  0  0  0  0  0  0  0  0  0  0
   -5.4680    4.1123    1.4315 C   0  0  0  0  0  0  0  0  0  0  0  0
   -3.9395    3.5874    0.6210 S   0  0  0  0  0  0  0  0  0  0  0  0
   -3.8278    1.8141    0.5110 C   0  0  0  0  0  0  0  0  0  0  0  0
   -2.7672    1.1354   -0.0773 C   0  0  0  0  0  0  0  0  0  0  0  0
   -2.6660   -0.2353   -0.1640 C   0  0  0  0  0  0  0  0  0  0  0  0
   -3.7421   -0.8721    0.4028 C   0  0  0  0  0  0  0  0  0  0  0  0
   -3.7818   -2.6545    0.4051 S   0  0  0  0  0  0  0  0  0  0  0  0
   -2.2954   -3.1796   -0.4319 C   0  0  0  0  0  0  0  0  0  0  0  0
   -2.1786   -4.5337   -0.5465 C   0  0  0  0  0  0  0  0  0  0  0  0
   -1.0699   -5.0513   -1.1843 C   0  0  0  0  0  0  0  0  0  0  0  0
   -0.1290   -4.1716   -1.6780 C   0  0  0  0  0  0  0  0  0  0  0  0
   -0.3434   -2.8219   -1.5094 C   0  0  0  0  0  0  0  0  0  0  0  0
   -1.4165   -2.2273   -0.8873 C   0  0  0  0  0  0  0  0  0  0  0  0
   -1.5456   -0.8233   -0.7837 N   0  0  0  0  0  0  0  0  0  0  0  0
   -0.4447   -0.0725   -1.3009 C   0  0  0  0  0  0  0  0  0  0  0  0
    0.7542   -0.0834   -0.3760 C   0  0  0  0  0  0  0  0  0  0  0  0
    1.9412    0.6835   -0.9233 C   0  0  0  0  0  0  0  0  0  0  0  0
    3.0664    0.6192    0.0271 N   0  0  0  0  0  0  0  0  0  0  0  0
    3.5722   -0.6977    0.1061 C   0  0  0  0  0  0  0  0  0  0  0  0
    5.0347   -0.8839    0.1925 C   0  0  0  0  0  0  0  0  0  0  0  0
    5.8024    0.3199    0.3719 N   0  0  0  0  0  0  0  0  0  0  0  0
    7.1958   -0.0109    0.1628 C   0  0  0  0  0  0  0  0  0  0  0  0
    5.3609    1.3426   -0.5476 C   0  0  0  0  0  0  0  0  0  0  0  0
    3.9602    1.6943   -0.1580 C   0  0  0  0  0  0  0  0  0  0  0  0
   -4.8231   -0.2903    0.9997 C   0  0  0  0  0  0  0  0  0  0  0  0
   -4.8690    1.0839    1.0559 C   0  0  0  0  0  0  0  0  0  0  0  0
   -7.1064    4.7305    0.1653 H   0  0  0  0  0  0  0  0  0  0  0  0
   -7.5154    3.3778    1.2275 H   0  0  0  0  0  0  0  0  0  0  0  0
   -6.4098    3.1417   -0.2253 H   0  0  0  0  0  0  0  0  0  0  0  0
   -5.5796    3.6371    2.4384 H   0  0  0  0  0  0  0  0  0  0  0  0
   -5.4185    5.1991    1.5932 H   0  0  0  0  0  0  0  0  0  0  0  0
   -2.0479    1.8224   -0.4441 H   0  0  0  0  0  0  0  0  0  0  0  0
   -2.8879   -5.2453   -0.1763 H   0  0  0  0  0  0  0  0  0  0  0  0
   -0.9406   -6.1129   -1.2937 H   0  0  0  0  0  0  0  0  0  0  0  0
    0.7221   -4.6207   -2.1699 H   0  0  0  0  0  0  0  0  0  0  0  0
    0.4679   -2.2651   -1.9629 H   0  0  0  0  0  0  0  0  0  0  0  0
   -0.7341    0.9740   -1.4565 H   0  0  0  0  0  0  0  0  0  0  0  0
   -0.1453   -0.4229   -2.3313 H   0  0  0  0  0  0  0  0  0  0  0  0
    1.0649   -1.0806   -0.1171 H   0  0  0  0  0  0  0  0  0  0  0  0
    0.4245    0.5188    0.5136 H   0  0  0  0  0  0  0  0  0  0  0  0
    2.3168    0.2169   -1.8581 H   0  0  0  0  0  0  0  0  0  0  0  0
    1.6598    1.7184   -1.1594 H   0  0  0  0  0  0  0  0  0  0  0  0
    3.1537   -1.2858   -0.7547 H   0  0  0  0  0  0  0  0  0  0  0  0
    3.1249   -1.1750    1.0178 H   0  0  0  0  0  0  0  0  0  0  0  0
    5.3527   -1.6028    0.9758 H   0  0  0  0  0  0  0  0  0  0  0  0
    5.4111   -1.3385   -0.7612 H   0  0  0  0  0  0  0  0  0  0  0  0
    7.3527   -1.0902    0.4495 H   0  0  0  0  0  0  0  0  0  0  0  0
    7.3737    0.0056   -0.9412 H   0  0  0  0  0  0  0  0  0  0  0  0
    7.8946    0.6237    0.7363 H   0  0  0  0  0  0  0  0  0  0  0  0
    5.9869    2.2602   -0.3496 H   0  0  0  0  0  0  0  0  0  0  0  0
    5.4703    0.9758   -1.5891 H   0  0  0  0  0  0  0  0  0  0  0  0
    3.6201    2.4694   -0.8827 H   0  0  0  0  0  0  0  0  0  0  0  0
    4.0439    2.2402    0.8251 H   0  0  0  0  0  0  0  0  0  0  0  0
   -5.6472   -0.8318    1.4330 H   0  0  0  0  0  0  0  0  0  0  0  0
   -5.7071    1.5872    1.5212 H   0  0  0  0  0  0  0  0  0  0  0  0
  1  2  1  0
  2  3  1  0
  3  4  1  0
  4  5  2  0
  5  6  1  0
  6  7  2  0
  7  8  1  0
  8  9  1  0
  9 10  2  0
 10 11  1  0
 11 12  2  0
 12 13  1  0
 13 14  2  0
 14 15  1  0
 15 16  1  0
 16 17  1  0
 17 18  1  0
 18 19  1  0
 19 20  1  0
 20 21  1  0
 21 22  1  0
 22 23  1  0
 22 24  1  0
 24 25  1  0
  7 26  1  0
 26 27  2  0
 27  4  1  0
 15  6  1  0
 25 19  1  0
 14  9  1  0
  1 28  1  0
  1 29  1  0
  1 30  1  0
  2 31  1  0
  2 32  1  0
  5 33  1  0
 10 34  1  0
 11 35  1  0
 12 36  1  0
 13 37  1  0
 16 38  1  0
 16 39  1  0
 17 40  1  0
 17 41  1  0
 18 42  1  0
 18 43  1  0
 20 44  1  0
 20 45  1  0
 21 46  1  0
 21 47  1  0
 23 48  1  0
 23 49  1  0
 23 50  1  0
 24 51  1  0
 24 52  1  0
 25 53  1  0
 25 54  1  0
 26 55  1  0
 27 56  1  0
M  END
$$$$
