@<TRIPOS>MOLECULE
*****
 31 33 0 0 0
SMALL
GASTEIGER

@<TRIPOS>ATOM
      1 C          -5.8726    0.9259   -1.1714 C.3     1  UNL1       -0.0397
      2 C          -4.5519    0.5567   -0.5873 C.ar    1  UNL1       -0.0504
      3 C          -3.3962    1.0312   -1.1639 C.ar    1  UNL1       -0.0582
      4 C          -2.1755    0.6872   -0.6202 C.ar    1  UNL1       -0.0523
      5 C          -2.0447   -0.1155    0.4823 C.ar    1  UNL1        0.0010
      6 C          -0.7319   -0.4867    1.0685 C.ar    1  UNL1        0.0802
      7 C          -0.5803   -1.2685    2.1438 C.ar    1  UNL1        0.0049
      8 S           1.2098   -1.3767    2.4006 S.2     1  UNL1       -0.0599
      9 C           1.4895   -0.2468    0.8769 C.ar    1  UNL1        0.1652
     10 N           2.9056    0.0489    0.5601 N.am    1  UNL1       -0.2580
     11 C           3.6260   -0.8033   -0.3196 C.2     1  UNL1        0.2877
     12 O           3.0484   -1.8145   -0.8287 O.2     1  UNL1       -0.2663
     13 C           5.0161   -0.4987   -0.6203 C.ar    1  UNL1        0.2217
     14 C           5.8198    0.5321   -0.1816 C.ar    1  UNL1        0.0098
     15 C           7.0732    0.3910   -0.7507 C.ar    1  UNL1        0.0708
     16 N           6.9694   -0.7153   -1.5048 N.ar    1  UNL1       -0.0859
     17 O           5.7693   -1.2079   -1.4098 O.2     1  UNL1       -0.3500
     18 N           0.4180   -0.0609    0.5581 N.ar    1  UNL1       -0.2246
     19 C          -3.2009   -0.5880    1.0559 C.ar    1  UNL1       -0.0523
     20 C          -4.4416   -0.2528    0.5232 C.ar    1  UNL1       -0.0582
     21 H          -5.8019    1.1676   -2.2395 H       1  UNL1        0.0278
     22 H          -6.6042    0.0926   -1.0798 H       1  UNL1        0.0278
     23 H          -6.2966    1.7820   -0.6410 H       1  UNL1        0.0278
     24 H          -3.4318    1.6638   -2.0286 H       1  UNL1        0.0620
     25 H          -1.2394    1.0527   -1.0615 H       1  UNL1        0.0624
     26 H          -1.3543   -1.8098    2.8346 H       1  UNL1        0.0716
     27 H           3.3731    0.8765    0.9788 H       1  UNL1        0.1572
     28 H           5.5261    1.3111    0.4863 H       1  UNL1        0.0673
     29 H           7.9679    0.9768   -0.6649 H       1  UNL1        0.0864
     30 H          -3.1317   -1.2343    1.9414 H       1  UNL1        0.0624
     31 H          -5.3567   -0.6164    0.9630 H       1  UNL1        0.0620
@<TRIPOS>BOND
     1     1     2    1
     2     2     3   ar
     3     3     4   ar
     4     4     5   ar
     5     5     6    1
     6     6     7   ar
     7     7     8   ar
     8     8     9   ar
     9     9    10    1
    10    10    11   am
    11    11    12    2
    12    11    13    1
    13    13    14   ar
    14    14    15   ar
    15    15    16   ar
    16    16    17   ar
    17     9    18   ar
    18     5    19   ar
    19    19    20   ar
    20    20     2   ar
    21    18     6   ar
    22    17    13   ar
    23     1    21    1
    24     1    22    1
    25     1    23    1
    26     3    24    1
    27     4    25    1
    28     7    26    1
    29    10    27    1
    30    14    28    1
    31    15    29    1
    32    19    30    1
    33    20    31    1
