
     RDKit          3D

 31 33  0  0  0  0  0  0  0  0999 V2000
   -5.8726    0.9259   -1.1714 C   0  0  0  0  0  0  0  0  0  0  0  0
   -4.5519    0.5567   -0.5873 C   0  0  0  0  0  0  0  0  0  0  0  0
   -3.3962    1.0312   -1.1639 C   0  0  0  0  0  0  0  0  0  0  0  0
   -2.1755    0.6872   -0.6202 C   0  0  0  0  0  0  0  0  0  0  0  0
   -2.0447   -0.1155    0.4823 C   0  0  0  0  0  0  0  0  0  0  0  0
   -0.7319   -0.4867    1.0685 C   0  0  0  0  0  0  0  0  0  0  0  0
   -0.5803   -1.2685    2.1438 C   0  0  0  0  0  0  0  0  0  0  0  0
    1.2098   -1.3767    2.4006 S   0  0  0  0  0  0  0  0  0  0  0  0
    1.4895   -0.2468    0.8769 C   0  0  0  0  0  0  0  0  0  0  0  0
    2.9056    0.0489    0.5601 N   0  0  0  0  0  0  0  0  0  0  0  0
    3.6260   -0.8033   -0.3196 C   0  0  0  0  0  0  0  0  0  0  0  0
    3.0484   -1.8145   -0.8287 O   0  0  0  0  0  0  0  0  0  0  0  0
    5.0161   -0.4987   -0.6203 C   0  0  0  0  0  0  0  0  0  0  0  0
    5.8198    0.5321   -0.1816 C   0  0  0  0  0  0  0  0  0  0  0  0
    7.0732    0.3910   -0.7507 C   0  0  0  0  0  0  0  0  0  0  0  0
    6.9694   -0.7153   -1.5048 N   0  0  0  0  0  0  0  0  0  0  0  0
    5.7693   -1.2079   -1.4098 O   0  0  0  0  0  0  0  0  0  0  0  0
    0.4180   -0.0609    0.5581 N   0  0  0  0  0  0  0  0  0  0  0  0
   -3.2009   -0.5880    1.0559 C   0  0  0  0  0  0  0  0  0  0  0  0
   -4.4416   -0.2528    0.5232 C   0  0  0  0  0  0  0  0  0  0  0  0
   -5.8019    1.1676   -2.2395 H   0  0  0  0  0  0  0  0  0  0  0  0
   -6.6042    0.0926   -1.0798 H   0  0  0  0  0  0  0  0  0  0  0  0
   -6.2966    1.7820   -0.6410 H   0  0  0  0  0  0  0  0  0  0  0  0
   -3.4318    1.6638   -2.0286 H   0  0  0  0  0  0  0  0  0  0  0  0
   -1.2394    1.0527   -1.0615 H   0  0  0  0  0  0  0  0  0  0  0  0
   -1.3543   -1.8098    2.8346 H   0  0  0  0  0  0  0  0  0  0  0  0
    3.3731    0.8765    0.9788 H   0  0  0  0  0  0  0  0  0  0  0  0
    5.5261    1.3111    0.4863 H   0  0  0  0  0  0  0  0  0  0  0  0
    7.9679    0.9768   -0.6649 H   0  0  0  0  0  0  0  0  0  0  0  0
   -3.1317   -1.2343    1.9414 H   0  0  0  0  0  0  0  0  0  0  0  0
   -5.3567   -0.6164    0.9630 H   0  0  0  0  0  0  0  0  0  0  0  0
  1  2  1  0
  2  3  2  0
  3  4  1  0
  4  5  2  0
  5  6  1  0
  6  7  2  0
  7  8  1  0
  8  9  1  0
  9 10  1  0
 10 11  1  0
 11 12  2  0
 11 13  1  0
 13 14  2  0
 14 15  1  0
 15 16  2  0
 16 17  1  0
  9 18  2  0
  5 19  1  0
 19 20  2  0
 20  2  1  0
 18  6  1  0
 17 13  1  0
  1 21  1  0
  1 22  1  0
  1 23  1  0
  3 24  1  0
  4 25  1  0
  7 26  1  0
 10 27  1  0
 14 28  1  0
 15 29  1  0
 19 30  1  0
 20 31  1  0
M  END
$$$$
