
     RDKit          3D

 76 79  0  0  0  0  0  0  0  0999 V2000
   -0.3845    2.7356   -2.4261 C   0  0  0  0  0  0  0  0  0  0  0  0
   -0.1134    1.2683   -2.4683 C   0  0  0  0  0  0  0  0  0  0  0  0
   -0.7824    0.5925   -3.6360 C   0  0  0  0  0  0  0  0  0  0  0  0
   -0.4084    0.6564   -1.1602 C   0  0  0  0  0  0  0  0  0  0  0  0
   -1.6464    0.3915   -0.6457 C   0  0  0  0  0  0  0  0  0  0  0  0
   -2.9562    0.7370   -1.2268 C   0  0  0  0  0  0  0  0  0  0  0  0
   -3.0574    1.6098   -2.1353 O   0  0  0  0  0  0  0  0  0  0  0  0
   -4.1824    0.1364   -0.8319 N   0  0  0  0  0  0  0  0  0  0  0  0
   -5.3658    0.5854   -1.4834 C   0  0  0  0  0  0  0  0  0  0  0  0
   -6.1201    1.6110   -0.9252 C   0  0  0  0  0  0  0  0  0  0  0  0
   -7.2604    2.0772   -1.5413 C   0  0  0  0  0  0  0  0  0  0  0  0
   -7.6927    1.5516   -2.7216 C   0  0  0  0  0  0  0  0  0  0  0  0
   -6.9559    0.5258   -3.2987 C   0  0  0  0  0  0  0  0  0  0  0  0
   -5.7979    0.0574   -2.6656 C   0  0  0  0  0  0  0  0  0  0  0  0
   -1.4457   -0.2129    0.5879 C   0  0  0  0  0  0  0  0  0  0  0  0
   -2.4026   -0.6833    1.5670 C   0  0  0  0  0  0  0  0  0  0  0  0
   -3.0743    0.2265    2.3545 C   0  0  0  0  0  0  0  0  0  0  0  0
   -3.9816   -0.2360    3.2992 C   0  0  0  0  0  0  0  0  0  0  0  0
   -4.2385   -1.5660    3.4819 C   0  0  0  0  0  0  0  0  0  0  0  0
   -3.5617   -2.4762    2.6886 C   0  0  0  0  0  0  0  0  0  0  0  0
   -2.6428   -2.0236    1.7306 C   0  0  0  0  0  0  0  0  0  0  0  0
   -0.0553   -0.2786    0.7501 C   0  0  0  0  0  0  0  0  0  0  0  0
    0.5632   -0.8578    1.9418 C   0  0  0  0  0  0  0  0  0  0  0  0
    0.6266   -2.2257    2.0346 C   0  0  0  0  0  0  0  0  0  0  0  0
    1.1882   -2.8750    3.1297 C   0  0  0  0  0  0  0  0  0  0  0  0
    1.6881   -2.1057    4.1369 C   0  0  0  0  0  0  0  0  0  0  0  0
    2.2466   -2.7417    5.2184 F   0  0  0  0  0  0  0  0  0  0  0  0
    1.6336   -0.7455    4.0609 C   0  0  0  0  0  0  0  0  0  0  0  0
    1.0714   -0.0847    2.9652 C   0  0  0  0  0  0  0  0  0  0  0  0
    0.5510    0.2409   -0.2950 N   0  0  0  0  0  0  0  0  0  0  0  0
    1.9750    0.3668   -0.5168 C   0  0  0  0  0  0  0  0  0  0  0  0
    2.5222   -0.8572   -1.1997 C   0  0  0  0  0  0  0  0  0  0  0  0
    3.9978   -0.7572   -1.4936 C   0  0  1  0  0  0  0  0  0  0  0  0
    4.1979    0.3344   -2.3372 O   0  0  0  0  0  0  0  0  0  0  0  0
    4.8387   -0.6372   -0.2366 C   0  0  0  0  0  0  0  0  0  0  0  0
    6.2909   -0.5348   -0.5273 C   0  0  1  0  0  0  0  0  0  0  0  0
    6.5814    0.6021   -1.3282 O   0  0  0  0  0  0  0  0  0  0  0  0
    7.0700   -0.3269    0.7368 C   0  0  0  0  0  0  0  0  0  0  0  0
    6.7140    0.9197    1.4300 C   0  0  0  0  0  0  0  0  0  0  0  0
    5.9198    1.7744    0.9864 O   0  0  0  0  0  0  0  0  0  0  0  0
    7.2771    1.2188    2.6780 O   0  0  0  0  0  0  0  0  0  0  0  0
   -1.0324    3.0501   -3.2861 H   0  0  0  0  0  0  0  0  0  0  0  0
    0.5705    3.3310   -2.5511 H   0  0  0  0  0  0  0  0  0  0  0  0
   -0.8367    3.0489   -1.4568 H   0  0  0  0  0  0  0  0  0  0  0  0
    1.0069    1.1306   -2.6924 H   0  0  0  0  0  0  0  0  0  0  0  0
   -0.0460    0.1409   -4.3556 H   0  0  0  0  0  0  0  0  0  0  0  0
   -1.4871   -0.2271   -3.3203 H   0  0  0  0  0  0  0  0  0  0  0  0
   -1.3839    1.3149   -4.2203 H   0  0  0  0  0  0  0  0  0  0  0  0
   -4.2239   -0.5905   -0.1236 H   0  0  0  0  0  0  0  0  0  0  0  0
   -5.7827    2.0278    0.0078 H   0  0  0  0  0  0  0  0  0  0  0  0
   -7.8104    2.8680   -1.0763 H   0  0  0  0  0  0  0  0  0  0  0  0
   -8.5916    1.9001   -3.2325 H   0  0  0  0  0  0  0  0  0  0  0  0
   -7.3191    0.1267   -4.2333 H   0  0  0  0  0  0  0  0  0  0  0  0
   -5.2504   -0.7384   -3.1374 H   0  0  0  0  0  0  0  0  0  0  0  0
   -2.9213    1.3033    2.2635 H   0  0  0  0  0  0  0  0  0  0  0  0
   -4.4846    0.5023    3.8952 H   0  0  0  0  0  0  0  0  0  0  0  0
   -4.9477   -1.9232    4.2181 H   0  0  0  0  0  0  0  0  0  0  0  0
   -3.7536   -3.5332    2.8200 H   0  0  0  0  0  0  0  0  0  0  0  0
   -2.1254   -2.7375    1.1175 H   0  0  0  0  0  0  0  0  0  0  0  0
    0.2344   -2.8284    1.2329 H   0  0  0  0  0  0  0  0  0  0  0  0
    1.2060   -3.9462    3.1407 H   0  0  0  0  0  0  0  0  0  0  0  0
    2.0298   -0.1542    4.8597 H   0  0  0  0  0  0  0  0  0  0  0  0
    1.0251    0.9825    2.8999 H   0  0  0  0  0  0  0  0  0  0  0  0
    2.4886    0.4904    0.4831 H   0  0  0  0  0  0  0  0  0  0  0  0
    2.2385    1.2618   -1.0863 H   0  0  0  0  0  0  0  0  0  0  0  0
    2.4226   -1.7081   -0.4611 H   0  0  0  0  0  0  0  0  0  0  0  0
    1.9820   -1.1418   -2.0988 H   0  0  0  0  0  0  0  0  0  0  0  0
    4.3238   -1.6619   -2.0389 H   0  0  0  0  0  0  0  0  0  0  0  0
    4.1038    1.1934   -1.8995 H   0  0  0  0  0  0  0  0  0  0  0  0
    4.5043    0.1758    0.4096 H   0  0  0  0  0  0  0  0  0  0  0  0
    4.7032   -1.5773    0.3790 H   0  0  0  0  0  0  0  0  0  0  0  0
    6.7154   -1.4440   -1.0091 H   0  0  0  0  0  0  0  0  0  0  0  0
    7.5230    0.8139   -1.1891 H   0  0  0  0  0  0  0  0  0  0  0  0
    8.1658   -0.2614    0.4384 H   0  0  0  0  0  0  0  0  0  0  0  0
    6.9521   -1.2180    1.4139 H   0  0  0  0  0  0  0  0  0  0  0  0
    6.9739    2.0349    3.2113 H   0  0  0  0  0  0  0  0  0  0  0  0
  1  2  1  0
  2  3  1  0
  2  4  1  0
  4  5  2  0
  5  6  1  0
  6  7  2  0
  6  8  1  0
  8  9  1  0
  9 10  2  0
 10 11  1  0
 11 12  2  0
 12 13  1  0
 13 14  2  0
  5 15  1  0
 15 16  1  0
 16 17  2  0
 17 18  1  0
 18 19  2  0
 19 20  1  0
 20 21  2  0
 15 22  2  0
 22 23  1  0
 23 24  2  0
 24 25  1  0
 25 26  2  0
 26 27  1  0
 26 28  1  0
 28 29  2  0
 22 30  1  0
 30 31  1  0
 31 32  1  0
 32 33  1  0
 33 34  1  0
 33 35  1  0
 35 36  1  0
 36 37  1  0
 36 38  1  0
 38 39  1  0
 39 40  2  0
 39 41  1  0
 30  4  1  0
 14  9  1  0
 21 16  1  0
 29 23  1  0
  1 42  1  0
  1 43  1  0
  1 44  1  0
  2 45  1  0
  3 46  1  0
  3 47  1  0
  3 48  1  0
  8 49  1  0
 10 50  1  0
 11 51  1  0
 12 52  1  0
 13 53  1  0
 14 54  1  0
 17 55  1  0
 18 56  1  0
 19 57  1  0
 20 58  1  0
 21 59  1  0
 24 60  1  0
 25 61  1  0
 28 62  1  0
 29 63  1  0
 31 64  1  0
 31 65  1  0
 32 66  1  0
 32 67  1  0
 33 68  1  6
 34 69  1  0
 35 70  1  0
 35 71  1  0
 36 72  1  6
 37 73  1  0
 38 74  1  0
 38 75  1  0
 41 76  1  0
M  END
$$$$
