@<TRIPOS>MOLECULE
*****
 76 79 0 0 0
SMALL
GASTEIGER

@<TRIPOS>ATOM
      1 C          -0.3845    2.7356   -2.4261 C.3     1  UNL1       -0.0573
      2 C          -0.1134    1.2683   -2.4683 C.3     1  UNL1       -0.0054
      3 C          -0.7824    0.5925   -3.6360 C.3     1  UNL1       -0.0573
      4 C          -0.4084    0.6564   -1.1602 C.ar    1  UNL1        0.0345
      5 C          -1.6464    0.3915   -0.6457 C.ar    1  UNL1        0.0662
      6 C          -2.9562    0.7370   -1.2268 C.2     1  UNL1        0.2506
      7 O          -3.0574    1.6098   -2.1353 O.2     1  UNL1       -0.2698
      8 N          -4.1824    0.1364   -0.8319 N.am    1  UNL1       -0.2814
      9 C          -5.3658    0.5854   -1.4834 C.ar    1  UNL1        0.0337
     10 C          -6.1201    1.6110   -0.9252 C.ar    1  UNL1       -0.0405
     11 C          -7.2604    2.0772   -1.5413 C.ar    1  UNL1       -0.0600
     12 C          -7.6927    1.5516   -2.7216 C.ar    1  UNL1       -0.0616
     13 C          -6.9559    0.5258   -3.2987 C.ar    1  UNL1       -0.0600
     14 C          -5.7979    0.0574   -2.6656 C.ar    1  UNL1       -0.0405
     15 C          -1.4457   -0.2129    0.5879 C.ar    1  UNL1        0.0200
     16 C          -2.4026   -0.6833    1.5670 C.ar    1  UNL1       -0.0151
     17 C          -3.0743    0.2265    2.3545 C.ar    1  UNL1       -0.0539
     18 C          -3.9816   -0.2360    3.2992 C.ar    1  UNL1       -0.0612
     19 C          -4.2385   -1.5660    3.4819 C.ar    1  UNL1       -0.0617
     20 C          -3.5617   -2.4762    2.6886 C.ar    1  UNL1       -0.0612
     21 C          -2.6428   -2.0236    1.7306 C.ar    1  UNL1       -0.0539
     22 C          -0.0553   -0.2786    0.7501 C.ar    1  UNL1        0.0578
     23 C           0.5632   -0.8578    1.9418 C.ar    1  UNL1       -0.0007
     24 C           0.6266   -2.2257    2.0346 C.ar    1  UNL1       -0.0499
     25 C           1.1882   -2.8750    3.1297 C.ar    1  UNL1       -0.0258
     26 C           1.6881   -2.1057    4.1369 C.ar    1  UNL1        0.1234
     27 F           2.2466   -2.7417    5.2184 F       1  UNL1       -0.2055
     28 C           1.6336   -0.7455    4.0609 C.ar    1  UNL1       -0.0258
     29 C           1.0714   -0.0847    2.9652 C.ar    1  UNL1       -0.0499
     30 N           0.5510    0.2409   -0.2950 N.ar    1  UNL1       -0.3422
     31 C           1.9750    0.3668   -0.5168 C.3     1  UNL1        0.0259
     32 C           2.5222   -0.8572   -1.1997 C.3     1  UNL1       -0.0087
     33 C           3.9978   -0.7572   -1.4936 C.3     1  UNL1        0.0592
     34 O           4.1979    0.3344   -2.3372 O.3     1  UNL1       -0.3916
     35 C           4.8387   -0.6372   -0.2366 C.3     1  UNL1       -0.0002
     36 C           6.2909   -0.5348   -0.5273 C.3     1  UNL1        0.0676
     37 O           6.5814    0.6021   -1.3282 O.3     1  UNL1       -0.3912
     38 C           7.0700   -0.3269    0.7368 C.3     1  UNL1        0.0708
     39 C           6.7140    0.9197    1.4300 C.2     1  UNL1        0.3072
     40 O           5.9198    1.7744    0.9864 O.2     1  UNL1       -0.2509
     41 O           7.2771    1.2188    2.6780 O.3     1  UNL1       -0.4806
     42 H          -1.0324    3.0501   -3.2861 H       1  UNL1        0.0236
     43 H           0.5705    3.3310   -2.5511 H       1  UNL1        0.0236
     44 H          -0.8367    3.0489   -1.4568 H       1  UNL1        0.0236
     45 H           1.0069    1.1306   -2.6924 H       1  UNL1        0.0358
     46 H          -0.0460    0.1409   -4.3556 H       1  UNL1        0.0236
     47 H          -1.4871   -0.2271   -3.3203 H       1  UNL1        0.0236
     48 H          -1.3839    1.3149   -4.2203 H       1  UNL1        0.0236
     49 H          -4.2239   -0.5905   -0.1236 H       1  UNL1        0.1551
     50 H          -5.7827    2.0278    0.0078 H       1  UNL1        0.0636
     51 H          -7.8104    2.8680   -1.0763 H       1  UNL1        0.0618
     52 H          -8.5916    1.9001   -3.2325 H       1  UNL1        0.0618
     53 H          -7.3191    0.1267   -4.2333 H       1  UNL1        0.0618
     54 H          -5.2504   -0.7384   -3.1374 H       1  UNL1        0.0636
     55 H          -2.9213    1.3033    2.2635 H       1  UNL1        0.0624
     56 H          -4.4846    0.5023    3.8952 H       1  UNL1        0.0618
     57 H          -4.9477   -1.9232    4.2181 H       1  UNL1        0.0618
     58 H          -3.7536   -3.5332    2.8200 H       1  UNL1        0.0618
     59 H          -2.1254   -2.7375    1.1175 H       1  UNL1        0.0624
     60 H           0.2344   -2.8284    1.2329 H       1  UNL1        0.0625
     61 H           1.2060   -3.9462    3.1407 H       1  UNL1        0.0646
     62 H           2.0298   -0.1542    4.8597 H       1  UNL1        0.0646
     63 H           1.0251    0.9825    2.8999 H       1  UNL1        0.0625
     64 H           2.4886    0.4904    0.4831 H       1  UNL1        0.0493
     65 H           2.2385    1.2618   -1.0863 H       1  UNL1        0.0493
     66 H           2.4226   -1.7081   -0.4611 H       1  UNL1        0.0307
     67 H           1.9820   -1.1418   -2.0988 H       1  UNL1        0.0307
     68 H           4.3238   -1.6619   -2.0389 H       1  UNL1        0.0594
     69 H           4.1038    1.1934   -1.8995 H       1  UNL1        0.2098
     70 H           4.5043    0.1758    0.4096 H       1  UNL1        0.0315
     71 H           4.7032   -1.5773    0.3790 H       1  UNL1        0.0315
     72 H           6.7154   -1.4440   -1.0091 H       1  UNL1        0.0599
     73 H           7.5230    0.8139   -1.1891 H       1  UNL1        0.2098
     74 H           8.1658   -0.2614    0.4384 H       1  UNL1        0.0403
     75 H           6.9521   -1.2180    1.4139 H       1  UNL1        0.0403
     76 H           6.9739    2.0349    3.2113 H       1  UNL1        0.2951
@<TRIPOS>BOND
     1     1     2    1
     2     2     3    1
     3     2     4    1
     4     4     5   ar
     5     5     6    1
     6     6     7    2
     7     6     8   am
     8     8     9    1
     9     9    10   ar
    10    10    11   ar
    11    11    12   ar
    12    12    13   ar
    13    13    14   ar
    14     5    15   ar
    15    15    16    1
    16    16    17   ar
    17    17    18   ar
    18    18    19   ar
    19    19    20   ar
    20    20    21   ar
    21    15    22   ar
    22    22    23    1
    23    23    24   ar
    24    24    25   ar
    25    25    26   ar
    26    26    27    1
    27    26    28   ar
    28    28    29   ar
    29    22    30   ar
    30    30    31    1
    31    31    32    1
    32    32    33    1
    33    33    34    1
    34    33    35    1
    35    35    36    1
    36    36    37    1
    37    36    38    1
    38    38    39    1
    39    39    40    2
    40    39    41    1
    41    30     4   ar
    42    14     9   ar
    43    21    16   ar
    44    29    23   ar
    45     1    42    1
    46     1    43    1
    47     1    44    1
    48     2    45    1
    49     3    46    1
    50     3    47    1
    51     3    48    1
    52     8    49    1
    53    10    50    1
    54    11    51    1
    55    12    52    1
    56    13    53    1
    57    14    54    1
    58    17    55    1
    59    18    56    1
    60    19    57    1
    61    20    58    1
    62    21    59    1
    63    24    60    1
    64    25    61    1
    65    28    62    1
    66    29    63    1
    67    31    64    1
    68    31    65    1
    69    32    66    1
    70    32    67    1
    71    33    68    1
    72    34    69    1
    73    35    70    1
    74    35    71    1
    75    36    72    1
    76    37    73    1
    77    38    74    1
    78    38    75    1
    79    41    76    1
