
     RDKit          3D

 55 56  0  0  0  0  0  0  0  0999 V2000
   -0.9266   -1.9082   -0.2973 C   0  0  2  0  0  0  0  0  0  0  0  0
   -1.5021   -1.8133    1.0768 C   0  0  0  0  0  0  0  0  0  0  0  0
   -2.8841   -1.6088    1.0990 O   0  0  0  0  0  0  0  0  0  0  0  0
   -3.5658   -0.5497    0.5559 C   0  0  0  0  0  0  0  0  0  0  0  0
   -2.8920    0.3196   -0.0152 O   0  0  0  0  0  0  0  0  0  0  0  0
   -5.0364   -0.6579    0.7680 C   0  0  0  0  0  0  0  0  0  0  0  0
   -5.6879    0.5210    0.1526 C   0  0  0  0  0  0  0  0  0  0  0  0
   -5.8864    1.6749    0.9077 C   0  0  0  0  0  0  0  0  0  0  0  0
   -6.4813    2.8338    0.4439 C   0  0  0  0  0  0  0  0  0  0  0  0
   -6.6556    4.1993    1.5246 Cl  0  0  0  0  0  0  0  0  0  0  0  0
   -6.9030    2.8309   -0.8630 C   0  0  0  0  0  0  0  0  0  0  0  0
   -6.7259    1.7073   -1.6485 C   0  0  0  0  0  0  0  0  0  0  0  0
   -6.1281    0.5486   -1.1752 C   0  0  0  0  0  0  0  0  0  0  0  0
   -1.3201   -3.1892   -1.0073 C   0  0  0  0  0  0  0  0  0  0  0  0
   -0.6413   -4.2090   -0.0936 C   0  0  0  0  0  0  0  0  0  0  0  0
    0.5490   -3.4514    0.4237 C   0  0  0  0  0  0  0  0  0  0  0  0
    0.5114   -2.1200   -0.1762 N   0  0  0  0  0  0  0  0  0  0  0  0
    1.6756   -1.3665   -0.4946 C   0  0  0  0  0  0  0  0  0  0  0  0
    2.4499   -2.2592   -0.0788 O   0  0  0  0  0  0  0  0  0  0  0  0
    1.4688   -0.0260   -1.1016 C   0  0  0  0  0  0  0  0  0  0  0  0
    2.7140    0.6438   -1.3808 N   0  0  0  0  0  0  0  0  0  0  0  0
    3.6316    0.9363   -0.3361 C   0  0  0  0  0  0  0  0  0  0  0  0
    3.4411    0.6458    0.8762 O   0  0  0  0  0  0  0  0  0  0  0  0
    4.8031    1.5756   -0.6552 O   0  0  0  0  0  0  0  0  0  0  0  0
    5.8103    1.9301    0.2840 C   0  0  0  0  0  0  0  0  0  0  0  0
    5.1838    2.8613    1.2902 C   0  0  0  0  0  0  0  0  0  0  0  0
    6.8734    2.6787   -0.4812 C   0  0  0  0  0  0  0  0  0  0  0  0
    6.3689    0.7264    1.0026 C   0  0  0  0  0  0  0  0  0  0  0  0
   -1.1707   -1.0129   -0.8767 H   0  0  0  0  0  0  0  0  0  0  0  0
   -0.9415   -0.9968    1.6124 H   0  0  0  0  0  0  0  0  0  0  0  0
   -1.3006   -2.7215    1.6772 H   0  0  0  0  0  0  0  0  0  0  0  0
   -5.2639   -0.6628    1.8408 H   0  0  0  0  0  0  0  0  0  0  0  0
   -5.4530   -1.5874    0.3298 H   0  0  0  0  0  0  0  0  0  0  0  0
   -5.5454    1.6465    1.9280 H   0  0  0  0  0  0  0  0  0  0  0  0
   -7.3688    3.7452   -1.2183 H   0  0  0  0  0  0  0  0  0  0  0  0
   -7.0629    1.7161   -2.6797 H   0  0  0  0  0  0  0  0  0  0  0  0
   -5.9856   -0.3276   -1.7741 H   0  0  0  0  0  0  0  0  0  0  0  0
   -2.3963   -3.3388   -1.0946 H   0  0  0  0  0  0  0  0  0  0  0  0
   -0.7538   -3.2155   -1.9529 H   0  0  0  0  0  0  0  0  0  0  0  0
   -0.3360   -5.0657   -0.7320 H   0  0  0  0  0  0  0  0  0  0  0  0
   -1.3756   -4.4975    0.6752 H   0  0  0  0  0  0  0  0  0  0  0  0
    0.6100   -3.4217    1.5301 H   0  0  0  0  0  0  0  0  0  0  0  0
    1.4857   -3.9572    0.0705 H   0  0  0  0  0  0  0  0  0  0  0  0
    0.8231    0.5443   -0.3841 H   0  0  0  0  0  0  0  0  0  0  0  0
    0.8786   -0.1395   -2.0210 H   0  0  0  0  0  0  0  0  0  0  0  0
    2.9658    0.9296   -2.3723 H   0  0  0  0  0  0  0  0  0  0  0  0
    4.2934    3.3830    0.8883 H   0  0  0  0  0  0  0  0  0  0  0  0
    5.9336    3.5569    1.7076 H   0  0  0  0  0  0  0  0  0  0  0  0
    4.8532    2.2292    2.1523 H   0  0  0  0  0  0  0  0  0  0  0  0
    7.4842    1.9643   -1.0863 H   0  0  0  0  0  0  0  0  0  0  0  0
    7.5213    3.2652    0.1809 H   0  0  0  0  0  0  0  0  0  0  0  0
    6.3573    3.3221   -1.2222 H   0  0  0  0  0  0  0  0  0  0  0  0
    7.4519    0.7963    1.2169 H   0  0  0  0  0  0  0  0  0  0  0  0
    6.1852   -0.2124    0.4116 H   0  0  0  0  0  0  0  0  0  0  0  0
    5.8670    0.5842    1.9797 H   0  0  0  0  0  0  0  0  0  0  0  0
  1  2  1  0
  2  3  1  0
  3  4  1  0
  4  5  2  0
  4  6  1  0
  6  7  1  0
  7  8  2  0
  8  9  1  0
  9 10  1  0
  9 11  2  0
 11 12  1  0
 12 13  2  0
  1 14  1  0
 14 15  1  0
 15 16  1  0
 16 17  1  0
 17 18  1  0
 18 19  2  0
 18 20  1  0
 20 21  1  0
 21 22  1  0
 22 23  2  0
 22 24  1  0
 24 25  1  0
 25 26  1  0
 25 27  1  0
 25 28  1  0
 17  1  1  0
 13  7  1  0
  1 29  1  6
  2 30  1  0
  2 31  1  0
  6 32  1  0
  6 33  1  0
  8 34  1  0
 11 35  1  0
 12 36  1  0
 13 37  1  0
 14 38  1  0
 14 39  1  0
 15 40  1  0
 15 41  1  0
 16 42  1  0
 16 43  1  0
 20 44  1  0
 20 45  1  0
 21 46  1  0
 26 47  1  0
 26 48  1  0
 26 49  1  0
 27 50  1  0
 27 51  1  0
 27 52  1  0
 28 53  1  0
 28 54  1  0
 28 55  1  0
M  END
$$$$
