@<TRIPOS>MOLECULE
*****
 55 56 0 0 0
SMALL
GASTEIGER

@<TRIPOS>ATOM
      1 C          -0.9266   -1.9082   -0.2973 C.3     1  UNL1        0.0602
      2 C          -1.5021   -1.8133    1.0768 C.3     1  UNL1        0.1109
      3 O          -2.8841   -1.6088    1.0990 O.3     1  UNL1       -0.4625
      4 C          -3.5658   -0.5497    0.5559 C.2     1  UNL1        0.3115
      5 O          -2.8920    0.3196   -0.0152 O.2     1  UNL1       -0.2505
      6 C          -5.0364   -0.6579    0.7680 C.3     1  UNL1        0.0701
      7 C          -5.6879    0.5210    0.1526 C.ar    1  UNL1       -0.0354
      8 C          -5.8864    1.6749    0.9077 C.ar    1  UNL1       -0.0397
      9 C          -6.4813    2.8338    0.4439 C.ar    1  UNL1        0.0412
     10 CL         -6.6556    4.1993    1.5246 Cl      1  UNL1       -0.0835
     11 C          -6.9030    2.8309   -0.8630 C.ar    1  UNL1       -0.0434
     12 C          -6.7259    1.7073   -1.6485 C.ar    1  UNL1       -0.0601
     13 C          -6.1281    0.5486   -1.1752 C.ar    1  UNL1       -0.0580
     14 C          -1.3201   -3.1892   -1.0073 C.3     1  UNL1       -0.0297
     15 C          -0.6413   -4.2090   -0.0936 C.3     1  UNL1       -0.0353
     16 C           0.5490   -3.4514    0.4237 C.3     1  UNL1        0.0152
     17 N           0.5114   -2.1200   -0.1762 N.am    1  UNL1       -0.2939
     18 C           1.6756   -1.3665   -0.4946 C.2     1  UNL1        0.2332
     19 O           2.4499   -2.2592   -0.0788 O.2     1  UNL1       -0.2739
     20 C           1.4688   -0.0260   -1.1016 C.3     1  UNL1        0.0914
     21 N           2.7140    0.6438   -1.3808 N.am    1  UNL1       -0.2725
     22 C           3.6316    0.9363   -0.3361 C.2     1  UNL1        0.4012
     23 O           3.4411    0.6458    0.8762 O.2     1  UNL1       -0.2265
     24 O           4.8031    1.5756   -0.6552 O.3     1  UNL1       -0.4447
     25 C           5.8103    1.9301    0.2840 C.3     1  UNL1        0.1068
     26 C           5.1838    2.8613    1.2902 C.3     1  UNL1       -0.0253
     27 C           6.8734    2.6787   -0.4812 C.3     1  UNL1       -0.0253
     28 C           6.3689    0.7264    1.0026 C.3     1  UNL1       -0.0253
     29 H          -1.1707   -1.0129   -0.8767 H       1  UNL1        0.0534
     30 H          -0.9415   -0.9968    1.6124 H       1  UNL1        0.0716
     31 H          -1.3006   -2.7215    1.6772 H       1  UNL1        0.0716
     32 H          -5.2639   -0.6628    1.8408 H       1  UNL1        0.0426
     33 H          -5.4530   -1.5874    0.3298 H       1  UNL1        0.0426
     34 H          -5.5454    1.6465    1.9280 H       1  UNL1        0.0635
     35 H          -7.3688    3.7452   -1.2183 H       1  UNL1        0.0632
     36 H          -7.0629    1.7161   -2.6797 H       1  UNL1        0.0618
     37 H          -5.9856   -0.3276   -1.7741 H       1  UNL1        0.0620
     38 H          -2.3963   -3.3388   -1.0946 H       1  UNL1        0.0285
     39 H          -0.7538   -3.2155   -1.9529 H       1  UNL1        0.0285
     40 H          -0.3360   -5.0657   -0.7320 H       1  UNL1        0.0281
     41 H          -1.3756   -4.4975    0.6752 H       1  UNL1        0.0281
     42 H           0.6100   -3.4217    1.5301 H       1  UNL1        0.0465
     43 H           1.4857   -3.9572    0.0705 H       1  UNL1        0.0465
     44 H           0.8231    0.5443   -0.3841 H       1  UNL1        0.0559
     45 H           0.8786   -0.1395   -2.0210 H       1  UNL1        0.0559
     46 H           2.9658    0.9296   -2.3723 H       1  UNL1        0.1525
     47 H           4.2934    3.3830    0.8883 H       1  UNL1        0.0268
     48 H           5.9336    3.5569    1.7076 H       1  UNL1        0.0268
     49 H           4.8532    2.2292    2.1523 H       1  UNL1        0.0268
     50 H           7.4842    1.9643   -1.0863 H       1  UNL1        0.0268
     51 H           7.5213    3.2652    0.1809 H       1  UNL1        0.0268
     52 H           6.3573    3.3221   -1.2222 H       1  UNL1        0.0268
     53 H           7.4519    0.7963    1.2169 H       1  UNL1        0.0268
     54 H           6.1852   -0.2124    0.4116 H       1  UNL1        0.0268
     55 H           5.8670    0.5842    1.9797 H       1  UNL1        0.0268
@<TRIPOS>BOND
     1     1     2    1
     2     2     3    1
     3     3     4    1
     4     4     5    2
     5     4     6    1
     6     6     7    1
     7     7     8   ar
     8     8     9   ar
     9     9    10    1
    10     9    11   ar
    11    11    12   ar
    12    12    13   ar
    13     1    14    1
    14    14    15    1
    15    15    16    1
    16    16    17    1
    17    17    18   am
    18    18    19    2
    19    18    20    1
    20    20    21    1
    21    21    22   am
    22    22    23    2
    23    22    24    1
    24    24    25    1
    25    25    26    1
    26    25    27    1
    27    25    28    1
    28    17     1    1
    29    13     7   ar
    30     1    29    1
    31     2    30    1
    32     2    31    1
    33     6    32    1
    34     6    33    1
    35     8    34    1
    36    11    35    1
    37    12    36    1
    38    13    37    1
    39    14    38    1
    40    14    39    1
    41    15    40    1
    42    15    41    1
    43    16    42    1
    44    16    43    1
    45    20    44    1
    46    20    45    1
    47    21    46    1
    48    26    47    1
    49    26    48    1
    50    26    49    1
    51    27    50    1
    52    27    51    1
    53    27    52    1
    54    28    53    1
    55    28    54    1
    56    28    55    1
