@<TRIPOS>MOLECULE
*****
 61 63 0 0 0
SMALL
GASTEIGER

@<TRIPOS>ATOM
      1 C           6.4041    3.3167    0.5862 C.3     1  UNL1       -0.0638
      2 C           6.1127    1.8830    0.9130 C.3     1  UNL1       -0.0350
      3 C           4.6804    1.5188    0.5368 C.3     1  UNL1        0.0817
      4 S           4.4184   -0.1769    0.9507 S.O2    1  UNL1        0.0318
      5 O           4.6775   -0.4071    2.4163 O.2     1  UNL1       -0.1580
      6 O           5.4176   -1.0258    0.2047 O.2     1  UNL1       -0.1580
      7 N           2.8595   -0.7378    0.5891 N.3     1  UNL1       -0.1811
      8 C           1.8892   -0.0055    1.3340 C.3     1  UNL1        0.0211
      9 C           0.7043    0.4796    0.4973 C.3     1  UNL1       -0.0231
     10 C           0.0958   -0.6181   -0.2964 C.3     1  UNL1        0.0650
     11 C          -0.7405   -0.1417   -1.4159 C.3     1  UNL1        0.0259
     12 N          -1.8996    0.6372   -1.2034 N.am    1  UNL1       -0.3103
     13 C          -2.1041    1.9208   -0.6991 C.2     1  UNL1        0.2455
     14 O          -1.1401    2.6178   -0.3476 O.2     1  UNL1       -0.2702
     15 C          -3.4559    2.5165   -0.5561 C.ar    1  UNL1        0.0550
     16 C          -4.1679    2.6825   -1.7252 C.ar    1  UNL1       -0.0468
     17 C          -5.4359    3.2216   -1.7408 C.ar    1  UNL1       -0.0426
     18 C          -6.0120    3.6076   -0.5527 C.ar    1  UNL1        0.0424
     19 CL         -7.6368    4.3074   -0.4949 Cl      1  UNL1       -0.0835
     20 C          -5.2955    3.4393    0.6119 C.ar    1  UNL1       -0.0243
     21 C          -4.0095    2.8916    0.6208 C.ar    1  UNL1        0.0544
     22 CL         -3.1009    2.6772    2.0897 Cl      1  UNL1       -0.0827
     23 C          -0.6277   -1.5252    0.6332 C.2     1  UNL1        0.2235
     24 O          -0.5917   -1.1859    1.8701 O.2     1  UNL1       -0.2749
     25 N          -1.3342   -2.6834    0.3495 N.am    1  UNL1       -0.2966
     26 C          -1.9584   -3.4251    1.4225 C.3     1  UNL1        0.0382
     27 C          -3.2668   -3.9833    0.9099 C.3     1  UNL1        0.0635
     28 O          -3.0461   -4.8686   -0.1155 O.3     1  UNL1       -0.3767
     29 C          -1.8579   -4.6994   -0.7746 C.3     1  UNL1        0.0635
     30 C          -1.5003   -3.2068   -0.9701 C.3     1  UNL1        0.0382
     31 C           1.2008   -1.4732   -0.9393 C.3     1  UNL1       -0.0231
     32 C           2.5610   -0.7946   -0.8233 C.3     1  UNL1        0.0211
     33 H           5.5382    3.9692    0.7280 H       1  UNL1        0.0230
     34 H           7.2786    3.6739    1.1996 H       1  UNL1        0.0230
     35 H           6.7351    3.3832   -0.4747 H       1  UNL1        0.0230
     36 H           6.8143    1.2282    0.3621 H       1  UNL1        0.0279
     37 H           6.2526    1.7472    2.0171 H       1  UNL1        0.0279
     38 H           4.0282    2.2090    1.0649 H       1  UNL1        0.0515
     39 H           4.5577    1.6620   -0.5493 H       1  UNL1        0.0515
     40 H           2.3318    0.9558    1.7421 H       1  UNL1        0.0444
     41 H           1.5566   -0.5457    2.2319 H       1  UNL1        0.0444
     42 H           1.0742    1.3167   -0.1389 H       1  UNL1        0.0289
     43 H          -0.0007    0.8942    1.2388 H       1  UNL1        0.0289
     44 H          -0.9840   -0.9473   -2.1617 H       1  UNL1        0.0472
     45 H           0.0226    0.4727   -2.0593 H       1  UNL1        0.0472
     46 H          -2.8277    0.1452   -1.4828 H       1  UNL1        0.1490
     47 H          -3.7555    2.3914   -2.7013 H       1  UNL1        0.0626
     48 H          -5.9964    3.3537   -2.6481 H       1  UNL1        0.0632
     49 H          -5.7473    3.7408    1.5327 H       1  UNL1        0.0647
     50 H          -1.3369   -4.2878    1.7425 H       1  UNL1        0.0487
     51 H          -2.1123   -2.8064    2.3274 H       1  UNL1        0.0487
     52 H          -3.9339   -3.1616    0.5783 H       1  UNL1        0.0575
     53 H          -3.7293   -4.5573    1.7540 H       1  UNL1        0.0575
     54 H          -1.8741   -5.1236   -1.8009 H       1  UNL1        0.0575
     55 H          -0.9762   -5.1302   -0.2646 H       1  UNL1        0.0575
     56 H          -0.6176   -3.2302   -1.6071 H       1  UNL1        0.0487
     57 H          -2.3884   -2.6928   -1.4170 H       1  UNL1        0.0487
     58 H           1.0463   -1.6285   -2.0144 H       1  UNL1        0.0289
     59 H           1.3112   -2.4531   -0.4517 H       1  UNL1        0.0289
     60 H           3.2802   -1.4985   -1.2892 H       1  UNL1        0.0444
     61 H           2.6130    0.1607   -1.3397 H       1  UNL1        0.0444
@<TRIPOS>BOND
     1     1     2    1
     2     2     3    1
     3     3     4    1
     4     4     5    2
     5     4     6    2
     6     4     7    1
     7     7     8    1
     8     8     9    1
     9     9    10    1
    10    10    11    1
    11    11    12    1
    12    12    13   am
    13    13    14    2
    14    13    15    1
    15    15    16   ar
    16    16    17   ar
    17    17    18   ar
    18    18    19    1
    19    18    20   ar
    20    20    21   ar
    21    21    22    1
    22    10    23    1
    23    23    24    2
    24    23    25   am
    25    25    26    1
    26    26    27    1
    27    27    28    1
    28    28    29    1
    29    29    30    1
    30    10    31    1
    31    31    32    1
    32    32     7    1
    33    21    15   ar
    34    30    25    1
    35     1    33    1
    36     1    34    1
    37     1    35    1
    38     2    36    1
    39     2    37    1
    40     3    38    1
    41     3    39    1
    42     8    40    1
    43     8    41    1
    44     9    42    1
    45     9    43    1
    46    11    44    1
    47    11    45    1
    48    12    46    1
    49    16    47    1
    50    17    48    1
    51    20    49    1
    52    26    50    1
    53    26    51    1
    54    27    52    1
    55    27    53    1
    56    29    54    1
    57    29    55    1
    58    30    56    1
    59    30    57    1
    60    31    58    1
    61    31    59    1
    62    32    60    1
    63    32    61    1
