
     RDKit          3D

 61 63  0  0  0  0  0  0  0  0999 V2000
    6.4041    3.3167    0.5862 C   0  0  0  0  0  0  0  0  0  0  0  0
    6.1127    1.8830    0.9130 C   0  0  0  0  0  0  0  0  0  0  0  0
    4.6804    1.5188    0.5368 C   0  0  0  0  0  0  0  0  0  0  0  0
    4.4184   -0.1769    0.9507 S   0  0  0  0  0  6  0  0  0  0  0  0
    4.6775   -0.4071    2.4163 O   0  0  0  0  0  0  0  0  0  0  0  0
    5.4176   -1.0258    0.2047 O   0  0  0  0  0  0  0  0  0  0  0  0
    2.8595   -0.7378    0.5891 N   0  0  0  0  0  0  0  0  0  0  0  0
    1.8892   -0.0055    1.3340 C   0  0  0  0  0  0  0  0  0  0  0  0
    0.7043    0.4796    0.4973 C   0  0  0  0  0  0  0  0  0  0  0  0
    0.0958   -0.6181   -0.2964 C   0  0  0  0  0  0  0  0  0  0  0  0
   -0.7405   -0.1417   -1.4159 C   0  0  0  0  0  0  0  0  0  0  0  0
   -1.8996    0.6372   -1.2034 N   0  0  0  0  0  0  0  0  0  0  0  0
   -2.1041    1.9208   -0.6991 C   0  0  0  0  0  0  0  0  0  0  0  0
   -1.1401    2.6178   -0.3476 O   0  0  0  0  0  0  0  0  0  0  0  0
   -3.4559    2.5165   -0.5561 C   0  0  0  0  0  0  0  0  0  0  0  0
   -4.1679    2.6825   -1.7252 C   0  0  0  0  0  0  0  0  0  0  0  0
   -5.4359    3.2216   -1.7408 C   0  0  0  0  0  0  0  0  0  0  0  0
   -6.0120    3.6076   -0.5527 C   0  0  0  0  0  0  0  0  0  0  0  0
   -7.6368    4.3074   -0.4949 Cl  0  0  0  0  0  0  0  0  0  0  0  0
   -5.2955    3.4393    0.6119 C   0  0  0  0  0  0  0  0  0  0  0  0
   -4.0095    2.8916    0.6208 C   0  0  0  0  0  0  0  0  0  0  0  0
   -3.1009    2.6772    2.0897 Cl  0  0  0  0  0  0  0  0  0  0  0  0
   -0.6277   -1.5252    0.6332 C   0  0  0  0  0  0  0  0  0  0  0  0
   -0.5917   -1.1859    1.8701 O   0  0  0  0  0  0  0  0  0  0  0  0
   -1.3342   -2.6834    0.3495 N   0  0  0  0  0  0  0  0  0  0  0  0
   -1.9584   -3.4251    1.4225 C   0  0  0  0  0  0  0  0  0  0  0  0
   -3.2668   -3.9833    0.9099 C   0  0  0  0  0  0  0  0  0  0  0  0
   -3.0461   -4.8686   -0.1155 O   0  0  0  0  0  0  0  0  0  0  0  0
   -1.8579   -4.6994   -0.7746 C   0  0  0  0  0  0  0  0  0  0  0  0
   -1.5003   -3.2068   -0.9701 C   0  0  0  0  0  0  0  0  0  0  0  0
    1.2008   -1.4732   -0.9393 C   0  0  0  0  0  0  0  0  0  0  0  0
    2.5610   -0.7946   -0.8233 C   0  0  0  0  0  0  0  0  0  0  0  0
    5.5382    3.9692    0.7280 H   0  0  0  0  0  0  0  0  0  0  0  0
    7.2786    3.6739    1.1996 H   0  0  0  0  0  0  0  0  0  0  0  0
    6.7351    3.3832   -0.4747 H   0  0  0  0  0  0  0  0  0  0  0  0
    6.8143    1.2282    0.3621 H   0  0  0  0  0  0  0  0  0  0  0  0
    6.2526    1.7472    2.0171 H   0  0  0  0  0  0  0  0  0  0  0  0
    4.0282    2.2090    1.0649 H   0  0  0  0  0  0  0  0  0  0  0  0
    4.5577    1.6620   -0.5493 H   0  0  0  0  0  0  0  0  0  0  0  0
    2.3318    0.9558    1.7421 H   0  0  0  0  0  0  0  0  0  0  0  0
    1.5566   -0.5457    2.2319 H   0  0  0  0  0  0  0  0  0  0  0  0
    1.0742    1.3167   -0.1389 H   0  0  0  0  0  0  0  0  0  0  0  0
   -0.0007    0.8942    1.2388 H   0  0  0  0  0  0  0  0  0  0  0  0
   -0.9840   -0.9473   -2.1617 H   0  0  0  0  0  0  0  0  0  0  0  0
    0.0226    0.4727   -2.0593 H   0  0  0  0  0  0  0  0  0  0  0  0
   -2.8277    0.1452   -1.4828 H   0  0  0  0  0  0  0  0  0  0  0  0
   -3.7555    2.3914   -2.7013 H   0  0  0  0  0  0  0  0  0  0  0  0
   -5.9964    3.3537   -2.6481 H   0  0  0  0  0  0  0  0  0  0  0  0
   -5.7473    3.7408    1.5327 H   0  0  0  0  0  0  0  0  0  0  0  0
   -1.3369   -4.2878    1.7425 H   0  0  0  0  0  0  0  0  0  0  0  0
   -2.1123   -2.8064    2.3274 H   0  0  0  0  0  0  0  0  0  0  0  0
   -3.9339   -3.1616    0.5783 H   0  0  0  0  0  0  0  0  0  0  0  0
   -3.7293   -4.5573    1.7540 H   0  0  0  0  0  0  0  0  0  0  0  0
   -1.8741   -5.1236   -1.8009 H   0  0  0  0  0  0  0  0  0  0  0  0
   -0.9762   -5.1302   -0.2646 H   0  0  0  0  0  0  0  0  0  0  0  0
   -0.6176   -3.2302   -1.6071 H   0  0  0  0  0  0  0  0  0  0  0  0
   -2.3884   -2.6928   -1.4170 H   0  0  0  0  0  0  0  0  0  0  0  0
    1.0463   -1.6285   -2.0144 H   0  0  0  0  0  0  0  0  0  0  0  0
    1.3112   -2.4531   -0.4517 H   0  0  0  0  0  0  0  0  0  0  0  0
    3.2802   -1.4985   -1.2892 H   0  0  0  0  0  0  0  0  0  0  0  0
    2.6130    0.1607   -1.3397 H   0  0  0  0  0  0  0  0  0  0  0  0
  1  2  1  0
  2  3  1  0
  3  4  1  0
  4  5  2  0
  4  6  2  0
  4  7  1  0
  7  8  1  0
  8  9  1  0
  9 10  1  0
 10 11  1  0
 11 12  1  0
 12 13  1  0
 13 14  2  0
 13 15  1  0
 15 16  2  0
 16 17  1  0
 17 18  2  0
 18 19  1  0
 18 20  1  0
 20 21  2  0
 21 22  1  0
 10 23  1  0
 23 24  2  0
 23 25  1  0
 25 26  1  0
 26 27  1  0
 27 28  1  0
 28 29  1  0
 29 30  1  0
 10 31  1  0
 31 32  1  0
 32  7  1  0
 21 15  1  0
 30 25  1  0
  1 33  1  0
  1 34  1  0
  1 35  1  0
  2 36  1  0
  2 37  1  0
  3 38  1  0
  3 39  1  0
  8 40  1  0
  8 41  1  0
  9 42  1  0
  9 43  1  0
 11 44  1  0
 11 45  1  0
 12 46  1  0
 16 47  1  0
 17 48  1  0
 20 49  1  0
 26 50  1  0
 26 51  1  0
 27 52  1  0
 27 53  1  0
 29 54  1  0
 29 55  1  0
 30 56  1  0
 30 57  1  0
 31 58  1  0
 31 59  1  0
 32 60  1  0
 32 61  1  0
M  END
$$$$
