@<TRIPOS>MOLECULE
*****
 86 87 0 0 0
SMALL
GASTEIGER

@<TRIPOS>ATOM
      1 C          -1.5833   -3.6291    0.8209 C.3     1  UNL1       -0.0650
      2 C          -2.3592   -3.0112   -0.3040 C.3     1  UNL1       -0.0512
      3 C          -1.6115   -2.8251   -1.5632 C.3     1  UNL1       -0.0171
      4 C          -1.0258   -3.9877   -2.2373 C.3     1  UNL1       -0.0603
      5 C          -0.6249   -1.6322   -1.5578 C.3     1  UNL1        0.1020
      6 N           0.3195   -1.7787   -0.4969 N.am    1  UNL1       -0.3022
      7 C           1.6357   -2.3186   -0.6109 C.2     1  UNL1        0.2340
      8 O           1.9242   -2.7032   -1.8008 O.2     1  UNL1       -0.2738
      9 C           2.6516   -2.4895    0.3845 C.3     1  UNL1        0.1010
     10 C           3.0211   -3.8092    0.9269 C.3     1  UNL1       -0.0236
     11 C           3.5511   -4.8603    0.0302 C.3     1  UNL1       -0.0446
     12 C           2.6963   -5.3804   -1.0605 C.3     1  UNL1       -0.0626
     13 C           4.8065   -4.2806   -0.6804 C.3     1  UNL1       -0.0626
     14 N           2.3558   -1.5754    1.5270 N.am    1  UNL1       -0.2881
     15 C           3.4104   -0.7021    1.9730 C.2     1  UNL1        0.3005
     16 O           4.5441   -0.7374    1.3890 O.2     1  UNL1       -0.2528
     17 N           3.2781    0.2131    3.0403 N.am    1  UNL1       -0.2953
     18 C           4.3233    1.0897    3.5150 C.3     1  UNL1        0.0383
     19 C           4.4883    2.2141    2.5655 C.ar    1  UNL1       -0.0288
     20 C           3.6902    3.3526    2.6198 C.ar    1  UNL1       -0.0556
     21 C           3.8356    4.4241    1.7698 C.ar    1  UNL1       -0.0417
     22 C           4.8154    4.3989    0.8022 C.ar    1  UNL1        0.0593
     23 CL          5.0102    5.7737   -0.2849 Cl      1  UNL1       -0.0820
     24 C           5.6329    3.2958    0.7051 C.ar    1  UNL1        0.0596
     25 CL          6.8665    3.2954   -0.5520 Cl      1  UNL1       -0.0820
     26 C           5.4752    2.2215    1.5700 C.ar    1  UNL1       -0.0373
     27 C          -1.3904   -0.3876   -1.6226 C.2     1  UNL1        0.2342
     28 O          -2.0000   -0.0920   -2.7204 O.2     1  UNL1       -0.2738
     29 N          -1.5661    0.5848   -0.5838 N.am    1  UNL1       -0.3037
     30 C          -2.3838    1.7738   -0.8952 C.3     1  UNL1        0.0882
     31 C          -3.8441    1.4165   -0.5340 C.3     1  UNL1       -0.0242
     32 C          -4.7770    2.5526   -0.8484 C.3     1  UNL1       -0.0166
     33 C          -4.7998    2.8814   -2.3242 C.3     1  UNL1        0.1048
     34 N          -5.6675    3.9508   -2.6843 N.pl3   1  UNL1       -0.1138
     35 C          -6.8831    4.1305   -2.3945 C.cat   1  UNL1        0.3765
     36 N          -7.5360    5.3171   -2.8991 N.pl3   1  UNL1       -0.2893
     37 N          -7.6913    3.2677   -1.6120 N.pl3   1  UNL1       -0.2893
     38 C          -2.0124    2.9705   -0.1693 C.2     1  UNL1        0.2079
     39 O          -2.3275    4.1442   -0.5552 O.2     1  UNL1       -0.2879
     40 C          -1.2282    2.8133    1.1015 C.ar    1  UNL1        0.1453
     41 N          -0.7690    2.0780    1.8375 N.ar    1  UNL1       -0.2443
     42 C          -0.1293    2.2613    2.9633 C.ar    1  UNL1        0.0355
     43 C           0.0376    3.5378    3.3571 C.ar    1  UNL1       -0.0041
     44 S          -0.7845    4.4476    2.0016 S.2     1  UNL1       -0.0728
     45 H          -1.6732   -2.9340    1.6945 H       1  UNL1        0.0230
     46 H          -0.5131   -3.7611    0.6493 H       1  UNL1        0.0230
     47 H          -2.0794   -4.5654    1.1837 H       1  UNL1        0.0230
     48 H          -3.2348   -3.6634   -0.4966 H       1  UNL1        0.0266
     49 H          -2.8178   -2.0364   -0.0076 H       1  UNL1        0.0266
     50 H          -2.4558   -2.4862   -2.3091 H       1  UNL1        0.0321
     51 H          -1.7590   -4.5584   -2.8751 H       1  UNL1        0.0233
     52 H          -0.2407   -3.6917   -2.9833 H       1  UNL1        0.0233
     53 H          -0.5633   -4.7336   -1.5623 H       1  UNL1        0.0233
     54 H          -0.1185   -1.7703   -2.5665 H       1  UNL1        0.0597
     55 H           0.0664   -1.4688    0.4793 H       1  UNL1        0.1495
     56 H           3.6172   -2.0714   -0.0622 H       1  UNL1        0.0595
     57 H           3.8752   -3.6011    1.6650 H       1  UNL1        0.0290
     58 H           2.2448   -4.2282    1.6305 H       1  UNL1        0.0290
     59 H           3.9307   -5.7546    0.6200 H       1  UNL1        0.0296
     60 H           2.6938   -6.5380   -1.0192 H       1  UNL1        0.0232
     61 H           1.6241   -5.1584   -0.9077 H       1  UNL1        0.0232
     62 H           2.9792   -5.1245   -2.0786 H       1  UNL1        0.0232
     63 H           5.3008   -3.5501   -0.0126 H       1  UNL1        0.0232
     64 H           5.4651   -5.1113   -0.9558 H       1  UNL1        0.0232
     65 H           4.4510   -3.8085   -1.6140 H       1  UNL1        0.0232
     66 H           1.4315   -1.5601    1.9889 H       1  UNL1        0.1510
     67 H           2.3253    0.2338    3.5196 H       1  UNL1        0.1506
     68 H           5.2637    0.4849    3.5834 H       1  UNL1        0.0512
     69 H           4.0781    1.5385    4.4968 H       1  UNL1        0.0512
     70 H           2.9187    3.3897    3.3710 H       1  UNL1        0.0621
     71 H           3.2074    5.2924    1.8327 H       1  UNL1        0.0633
     72 H           6.1487    1.3894    1.4662 H       1  UNL1        0.0636
     73 H          -1.1205    0.4059    0.3296 H       1  UNL1        0.1495
     74 H          -2.4051    1.9042   -1.9762 H       1  UNL1        0.0582
     75 H          -3.9376    1.1166    0.5189 H       1  UNL1        0.0288
     76 H          -4.1961    0.5442   -1.1558 H       1  UNL1        0.0288
     77 H          -4.4978    3.4920   -0.3258 H       1  UNL1        0.0298
     78 H          -5.8356    2.2767   -0.5819 H       1  UNL1        0.0298
     79 H          -3.7659    3.2059   -2.6543 H       1  UNL1        0.0693
     80 H          -5.0312    1.9547   -2.9308 H       1  UNL1        0.0693
     81 H          -8.1798    5.2291   -3.6910 H       1  UNL1        0.2546
     82 H          -7.3401    6.2129   -2.4548 H       1  UNL1        0.2546
     83 H          -7.9059    3.4440   -0.6118 H       1  UNL1        0.2546
     84 H          -8.0829    2.4164   -2.0855 H       1  UNL1        0.2546
     85 H           0.2528    1.4124    3.5636 H       1  UNL1        0.0835
     86 H           0.5043    4.0251    4.2182 H       1  UNL1        0.0709
@<TRIPOS>BOND
     1     1     2    1
     2     2     3    1
     3     3     4    1
     4     3     5    1
     5     5     6    1
     6     6     7   am
     7     7     8    2
     8     7     9    1
     9     9    10    1
    10    10    11    1
    11    11    12    1
    12    11    13    1
    13     9    14    1
    14    14    15   am
    15    15    16    2
    16    15    17   am
    17    17    18    1
    18    18    19    1
    19    19    20   ar
    20    20    21   ar
    21    21    22   ar
    22    22    23    1
    23    22    24   ar
    24    24    25    1
    25    24    26   ar
    26     5    27    1
    27    27    28    2
    28    27    29   am
    29    29    30    1
    30    30    31    1
    31    31    32    1
    32    32    33    1
    33    33    34    1
    34    34    35    2
    35    35    36    1
    36    35    37    1
    37    30    38    1
    38    38    39    2
    39    38    40    1
    40    40    41   ar
    41    41    42   ar
    42    42    43   ar
    43    43    44   ar
    44    26    19   ar
    45    44    40   ar
    46     1    45    1
    47     1    46    1
    48     1    47    1
    49     2    48    1
    50     2    49    1
    51     3    50    1
    52     4    51    1
    53     4    52    1
    54     4    53    1
    55     5    54    1
    56     6    55    1
    57     9    56    1
    58    10    57    1
    59    10    58    1
    60    11    59    1
    61    12    60    1
    62    12    61    1
    63    12    62    1
    64    13    63    1
    65    13    64    1
    66    13    65    1
    67    14    66    1
    68    17    67    1
    69    18    68    1
    70    18    69    1
    71    20    70    1
    72    21    71    1
    73    26    72    1
    74    29    73    1
    75    30    74    1
    76    31    75    1
    77    31    76    1
    78    32    77    1
    79    32    78    1
    80    33    79    1
    81    33    80    1
    82    36    81    1
    83    36    82    1
    84    37    83    1
    85    37    84    1
    86    42    85    1
    87    43    86    1
