@<TRIPOS>MOLECULE
*****
 80 84 0 0 0
SMALL
GASTEIGER

@<TRIPOS>ATOM
      1 C           2.9231    1.0357    2.4666 C.3     1  UNL1        0.0805
      2 O           2.2234    0.8218    1.2452 O.3     1  UNL1       -0.4782
      3 C           2.6063   -0.2784    0.4871 C.ar    1  UNL1        0.2447
      4 N           3.5822   -1.1200    0.8571 N.ar    1  UNL1       -0.1777
      5 C           3.9747   -2.1901    0.1464 C.ar    1  UNL1        0.2215
      6 N           5.0002   -3.0887    0.5222 N.pl3   1  UNL1       -0.3133
      7 C           5.7902   -2.9026    1.6937 C.3     1  UNL1        0.0130
      8 C           6.8901   -1.9297    1.4966 C.3     1  UNL1       -0.0246
      9 C           6.5423   -0.5466    1.1049 C.3     1  UNL1        0.0005
     10 N           7.7476    0.3042    0.9893 N.3     1  UNL1       -0.2979
     11 C           8.5082   -0.1408   -0.1365 C.3     1  UNL1        0.0224
     12 C           9.5960    0.8649   -0.4981 C.3     1  UNL1        0.0604
     13 O           9.0985    2.1424   -0.6170 O.3     1  UNL1       -0.3772
     14 C           7.7275    2.2089   -0.5519 C.3     1  UNL1        0.0604
     15 C           7.2474    1.6431    0.7745 C.3     1  UNL1        0.0224
     16 N           3.3251   -2.4147   -1.0206 N.ar    1  UNL1       -0.1777
     17 C           2.3435   -1.6054   -1.4357 C.ar    1  UNL1        0.2447
     18 O           1.6983   -1.8601   -2.6308 O.3     1  UNL1       -0.4782
     19 C           2.0892   -2.9795   -3.3985 C.3     1  UNL1        0.0805
     20 C           1.9394   -0.5009   -0.7024 C.ar    1  UNL1        0.1584
     21 N           0.9174    0.3902   -1.0975 N.am    1  UNL1       -0.2705
     22 C          -0.4418    0.2017   -0.6762 C.2     1  UNL1        0.2839
     23 O          -0.6708   -0.7899    0.0541 O.2     1  UNL1       -0.2665
     24 C          -1.4803    1.1448   -1.0979 C.ar    1  UNL1        0.1937
     25 C          -1.3352    2.2174   -1.9467 C.ar    1  UNL1       -0.0074
     26 C          -2.5678    2.8171   -2.0526 C.ar    1  UNL1        0.0227
     27 C          -3.4161    2.0733   -1.2540 C.ar    1  UNL1        0.2924
     28 O          -4.7555    2.3368   -1.0743 O.3     1  UNL1       -0.4249
     29 C          -5.6357    1.6321   -0.2915 C.ar    1  UNL1        0.1350
     30 C          -6.7598    1.0394   -0.8214 C.ar    1  UNL1       -0.0150
     31 C          -7.6772    0.3213   -0.0803 C.ar    1  UNL1       -0.0350
     32 C          -7.4517    0.1930    1.2580 C.ar    1  UNL1       -0.0432
     33 C          -6.3216    0.7808    1.8278 C.ar    1  UNL1       -0.0519
     34 C          -5.4203    1.4952    1.0592 C.ar    1  UNL1       -0.0078
     35 C          -4.2462    2.0875    1.7515 C.3     1  UNL1       -0.0362
     36 C          -8.4938   -0.5973    1.9519 C.3     1  UNL1       -0.0266
     37 C          -9.5996   -0.6218    0.9262 C.3     1  UNL1       -0.0399
     38 C          -8.9229   -0.3780   -0.4085 C.3     1  UNL1       -0.0092
     39 C          -8.6934   -1.7059   -1.0529 C.3     1  UNL1       -0.0558
     40 C          -9.8589    0.5057   -1.2154 C.3     1  UNL1       -0.0558
     41 O          -2.7270    1.1064   -0.7195 O.2     1  UNL1       -0.4199
     42 H           3.6913    1.8332    2.3502 H       1  UNL1        0.0660
     43 H           3.4823    0.1266    2.7781 H       1  UNL1        0.0660
     44 H           2.2600    1.3379    3.2885 H       1  UNL1        0.0660
     45 H           5.1529   -3.9221   -0.1239 H       1  UNL1        0.1489
     46 H           5.1308   -2.6422    2.5652 H       1  UNL1        0.0462
     47 H           6.1870   -3.9300    1.9686 H       1  UNL1        0.0462
     48 H           7.6227   -2.3750    0.7718 H       1  UNL1        0.0293
     49 H           7.4335   -1.8604    2.4901 H       1  UNL1        0.0293
     50 H           5.9005   -0.0067    1.8174 H       1  UNL1        0.0427
     51 H           6.0771   -0.4649    0.0963 H       1  UNL1        0.0427
     52 H           7.8621   -0.2403   -1.0235 H       1  UNL1        0.0449
     53 H           9.0124   -1.1147    0.0373 H       1  UNL1        0.0449
     54 H           9.9969    0.5332   -1.4865 H       1  UNL1        0.0572
     55 H          10.3803    0.8556    0.3001 H       1  UNL1        0.0572
     56 H           7.4041    3.2554   -0.6065 H       1  UNL1        0.0572
     57 H           7.2441    1.6784   -1.3960 H       1  UNL1        0.0572
     58 H           7.6051    2.3023    1.5739 H       1  UNL1        0.0449
     59 H           6.1404    1.7065    0.7414 H       1  UNL1        0.0449
     60 H           3.1750   -3.1338   -3.2837 H       1  UNL1        0.0660
     61 H           1.9027   -2.7179   -4.4774 H       1  UNL1        0.0660
     62 H           1.5794   -3.9150   -3.1213 H       1  UNL1        0.0660
     63 H           1.1184    1.2265   -1.7162 H       1  UNL1        0.1555
     64 H          -0.4531    2.5691   -2.4594 H       1  UNL1        0.0658
     65 H          -2.8548    3.6858   -2.6267 H       1  UNL1        0.0689
     66 H          -6.9386    1.1418   -1.8826 H       1  UNL1        0.0657
     67 H          -6.1292    0.6867    2.8874 H       1  UNL1        0.0624
     68 H          -3.7870    2.8911    1.1387 H       1  UNL1        0.0279
     69 H          -3.4487    1.3420    1.9439 H       1  UNL1        0.0279
     70 H          -4.5686    2.4622    2.7565 H       1  UNL1        0.0279
     71 H          -8.1223   -1.6206    2.1058 H       1  UNL1        0.0314
     72 H          -8.8278   -0.1014    2.8934 H       1  UNL1        0.0314
     73 H         -10.3127    0.1916    1.1911 H       1  UNL1        0.0277
     74 H         -10.1614   -1.5629    0.9570 H       1  UNL1        0.0277
     75 H          -8.5151   -2.4768   -0.2665 H       1  UNL1        0.0238
     76 H          -7.7787   -1.6664   -1.6757 H       1  UNL1        0.0238
     77 H          -9.5422   -1.9964   -1.7146 H       1  UNL1        0.0238
     78 H         -10.9251    0.3038   -0.9617 H       1  UNL1        0.0238
     79 H          -9.6756    0.3347   -2.2916 H       1  UNL1        0.0238
     80 H          -9.6130    1.5702   -0.9956 H       1  UNL1        0.0238
@<TRIPOS>BOND
     1     1     2    1
     2     2     3    1
     3     3     4   ar
     4     4     5   ar
     5     5     6    1
     6     6     7    1
     7     7     8    1
     8     8     9    1
     9     9    10    1
    10    10    11    1
    11    11    12    1
    12    12    13    1
    13    13    14    1
    14    14    15    1
    15     5    16   ar
    16    16    17   ar
    17    17    18    1
    18    18    19    1
    19    17    20   ar
    20    20    21    1
    21    21    22   am
    22    22    23    2
    23    22    24    1
    24    24    25   ar
    25    25    26   ar
    26    26    27   ar
    27    27    28    1
    28    28    29    1
    29    29    30   ar
    30    30    31   ar
    31    31    32   ar
    32    32    33   ar
    33    33    34   ar
    34    34    35    1
    35    32    36    1
    36    36    37    1
    37    37    38    1
    38    38    39    1
    39    38    40    1
    40    27    41   ar
    41    20     3   ar
    42    41    24   ar
    43    15    10    1
    44    34    29   ar
    45    38    31    1
    46     1    42    1
    47     1    43    1
    48     1    44    1
    49     6    45    1
    50     7    46    1
    51     7    47    1
    52     8    48    1
    53     8    49    1
    54     9    50    1
    55     9    51    1
    56    11    52    1
    57    11    53    1
    58    12    54    1
    59    12    55    1
    60    14    56    1
    61    14    57    1
    62    15    58    1
    63    15    59    1
    64    19    60    1
    65    19    61    1
    66    19    62    1
    67    21    63    1
    68    25    64    1
    69    26    65    1
    70    30    66    1
    71    33    67    1
    72    35    68    1
    73    35    69    1
    74    35    70    1
    75    36    71    1
    76    36    72    1
    77    37    73    1
    78    37    74    1
    79    39    75    1
    80    39    76    1
    81    39    77    1
    82    40    78    1
    83    40    79    1
    84    40    80    1
