@<TRIPOS>MOLECULE
*****
 76 78 0 0 0
SMALL
GASTEIGER

@<TRIPOS>ATOM
      1 C          -7.4683   -1.4749   -1.5701 C.3     1  UNL1       -0.0653
      2 C          -5.9812   -1.7912   -1.4888 C.3     1  UNL1       -0.0558
      3 C          -5.2035   -0.4494   -1.4411 C.3     1  UNL1       -0.0512
      4 C          -3.7541   -0.6945   -1.3616 C.3     1  UNL1       -0.0270
      5 C          -2.8247    0.4758   -1.3286 C.3     1  UNL1        0.0937
      6 N          -1.4729   -0.1324   -1.2432 N.am    1  UNL1       -0.2710
      7 C          -1.0122   -0.8626   -0.1423 C.2     1  UNL1        0.4012
      8 O          -1.7275   -1.0419    0.8445 O.2     1  UNL1       -0.2265
      9 O           0.2710   -1.4318   -0.0831 O.3     1  UNL1       -0.4450
     10 C           0.7206   -2.1622    1.0282 C.3     1  UNL1        0.1251
     11 C           1.8543   -1.5980    1.7771 C.3     1  UNL1        0.0539
     12 N           3.0885   -1.3949    1.0632 N.am    1  UNL1       -0.2802
     13 C           4.2229   -2.2569    0.9527 C.3     1  UNL1        0.0325
     14 C           5.3583   -1.4605    0.3545 C.3     1  UNL1        0.0371
     15 N           4.8496   -0.1317    0.1634 N.am    1  UNL1       -0.2539
     16 C           5.6734    1.0024   -0.1256 C.ar    1  UNL1        0.0378
     17 C           6.2040    1.7852    0.8777 C.ar    1  UNL1       -0.0397
     18 C           7.0017    2.8859    0.6251 C.ar    1  UNL1       -0.0484
     19 C           7.2965    3.2409   -0.6763 C.ar    1  UNL1        0.0549
     20 C           8.1492    4.4165   -0.9918 C.3     1  UNL1        0.4174
     21 F           9.4338    4.2388   -0.5014 F       1  UNL1       -0.1659
     22 F           7.6443    5.5361   -0.3325 F       1  UNL1       -0.1659
     23 F           8.1253    4.6460   -2.3417 F       1  UNL1       -0.1659
     24 C           6.7740    2.4687   -1.6921 C.ar    1  UNL1       -0.0484
     25 C           5.9681    1.3567   -1.4255 C.ar    1  UNL1       -0.0397
     26 C           3.4582   -0.2093    0.3159 C.2     1  UNL1        0.3093
     27 O           2.6312    0.6320   -0.1317 O.2     1  UNL1       -0.2521
     28 C           0.7979   -3.6065    0.6325 C.3     1  UNL1        0.0009
     29 C           1.2998   -4.5053    1.7432 C.3     1  UNL1       -0.0566
     30 C           1.4749   -3.8622   -0.6873 C.3     1  UNL1       -0.0566
     31 C          -0.6608   -4.1047    0.4082 C.3     1  UNL1       -0.0566
     32 C          -3.0205    1.4448   -0.2632 C.2     1  UNL1        0.2376
     33 O          -2.2200    1.5076    0.7357 O.2     1  UNL1       -0.2852
     34 C          -4.1178    2.4036   -0.2532 C.2     1  UNL1        0.2867
     35 O          -4.9330    2.5006   -1.2118 O.2     1  UNL1       -0.2666
     36 N          -4.3417    3.2886    0.8318 N.am    1  UNL1       -0.2643
     37 C          -5.3607    4.2371    0.9328 C.ar    1  UNL1        0.1205
     38 C          -5.5262    5.0774    2.0399 C.ar    1  UNL1       -0.0023
     39 C          -6.6194    5.8542    1.7650 C.ar    1  UNL1        0.0510
     40 N          -7.0902    5.5073    0.5632 N.ar    1  UNL1       -0.1807
     41 N          -6.3298    4.5246    0.0517 N.ar    1  UNL1       -0.2639
     42 H          -8.0732   -2.1062   -0.9048 H       1  UNL1        0.0230
     43 H          -7.7711   -1.5072   -2.6373 H       1  UNL1        0.0230
     44 H          -7.6130   -0.4170   -1.2194 H       1  UNL1        0.0230
     45 H          -5.6479   -2.3998   -2.3347 H       1  UNL1        0.0263
     46 H          -5.8040   -2.3278   -0.5349 H       1  UNL1        0.0263
     47 H          -5.5953    0.1155   -2.2724 H       1  UNL1        0.0266
     48 H          -5.5408    0.0348   -0.4767 H       1  UNL1        0.0266
     49 H          -3.4937   -1.3512   -2.2522 H       1  UNL1        0.0287
     50 H          -3.5559   -1.3952   -0.4942 H       1  UNL1        0.0287
     51 H          -2.8700    0.9482   -2.3274 H       1  UNL1        0.0583
     52 H          -0.8491   -0.0018   -2.0470 H       1  UNL1        0.1527
     53 H          -0.1561   -2.1513    1.7873 H       1  UNL1        0.0756
     54 H           2.1435   -2.2357    2.6695 H       1  UNL1        0.0502
     55 H           1.5366   -0.6338    2.2857 H       1  UNL1        0.0502
     56 H           4.0060   -3.0703    0.2448 H       1  UNL1        0.0481
     57 H           4.5084   -2.7357    1.9114 H       1  UNL1        0.0481
     58 H           6.2284   -1.5241    1.0392 H       1  UNL1        0.0485
     59 H           5.6979   -1.8868   -0.6345 H       1  UNL1        0.0485
     60 H           5.9975    1.5417    1.9131 H       1  UNL1        0.0636
     61 H           7.4106    3.4910    1.4473 H       1  UNL1        0.0624
     62 H           7.0102    2.7531   -2.7179 H       1  UNL1        0.0624
     63 H           5.5654    0.7596   -2.2562 H       1  UNL1        0.0636
     64 H           0.6848   -4.2978    2.6360 H       1  UNL1        0.0236
     65 H           1.0669   -5.5449    1.4363 H       1  UNL1        0.0236
     66 H           2.3801   -4.4127    1.9210 H       1  UNL1        0.0236
     67 H           0.7834   -4.1671   -1.4990 H       1  UNL1        0.0236
     68 H           2.0072   -2.9672   -1.0737 H       1  UNL1        0.0236
     69 H           2.2745   -4.6482   -0.5683 H       1  UNL1        0.0236
     70 H          -1.1647   -3.4763   -0.3477 H       1  UNL1        0.0236
     71 H          -1.2065   -4.0894    1.3627 H       1  UNL1        0.0236
     72 H          -0.5399   -5.1177   -0.0245 H       1  UNL1        0.0236
     73 H          -3.6407    3.1879    1.6288 H       1  UNL1        0.1566
     74 H          -4.8987    5.0755    2.9036 H       1  UNL1        0.0667
     75 H          -7.0297    6.6276    2.4283 H       1  UNL1        0.0848
     76 H          -6.4840    4.0701   -0.8845 H       1  UNL1        0.1903
@<TRIPOS>BOND
     1     1     2    1
     2     2     3    1
     3     3     4    1
     4     4     5    1
     5     5     6    1
     6     6     7   am
     7     7     8    2
     8     7     9    1
     9     9    10    1
    10    10    11    1
    11    11    12    1
    12    12    13    1
    13    13    14    1
    14    14    15    1
    15    15    16    1
    16    16    17   ar
    17    17    18   ar
    18    18    19   ar
    19    19    20    1
    20    20    21    1
    21    20    22    1
    22    20    23    1
    23    19    24   ar
    24    24    25   ar
    25    15    26   am
    26    26    27    2
    27    10    28    1
    28    28    29    1
    29    28    30    1
    30    28    31    1
    31     5    32    1
    32    32    33    2
    33    32    34    1
    34    34    35    2
    35    34    36   am
    36    36    37    1
    37    37    38   ar
    38    38    39   ar
    39    39    40   ar
    40    40    41   ar
    41    26    12   am
    42    41    37   ar
    43    25    16   ar
    44     1    42    1
    45     1    43    1
    46     1    44    1
    47     2    45    1
    48     2    46    1
    49     3    47    1
    50     3    48    1
    51     4    49    1
    52     4    50    1
    53     5    51    1
    54     6    52    1
    55    10    53    1
    56    11    54    1
    57    11    55    1
    58    13    56    1
    59    13    57    1
    60    14    58    1
    61    14    59    1
    62    17    60    1
    63    18    61    1
    64    24    62    1
    65    25    63    1
    66    29    64    1
    67    29    65    1
    68    29    66    1
    69    30    67    1
    70    30    68    1
    71    30    69    1
    72    31    70    1
    73    31    71    1
    74    31    72    1
    75    36    73    1
    76    38    74    1
    77    39    75    1
    78    41    76    1
