@<TRIPOS>MOLECULE
*****
 29 30 0 0 0
SMALL
GASTEIGER

@<TRIPOS>ATOM
      1 O           5.6971    2.1987    0.4499 O.3     1  UNL1       -0.5068
      2 C           4.4352    1.6005    0.2874 C.ar    1  UNL1        0.1169
      3 C           3.3100    2.2125    0.7299 C.ar    1  UNL1       -0.0196
      4 C           2.0388    1.6351    0.5791 C.ar    1  UNL1       -0.0511
      5 C           1.9296    0.4121   -0.0357 C.ar    1  UNL1       -0.0248
      6 C           0.6249   -0.2074   -0.2042 C.2     1  UNL1       -0.0540
      7 C          -0.5155    0.3062    0.1898 C.2     1  UNL1       -0.0538
      8 C          -1.7716   -0.3829   -0.0199 C.ar    1  UNL1       -0.0181
      9 C          -1.9308   -1.6042   -0.6284 C.ar    1  UNL1       -0.0128
     10 C          -3.1849   -2.1945   -0.7878 C.ar    1  UNL1        0.1209
     11 O          -3.2705   -3.4271   -1.4104 O.3     1  UNL1       -0.5066
     12 C          -4.3305   -1.5832   -0.3431 C.ar    1  UNL1        0.0213
     13 C          -4.1964   -0.3564    0.2710 C.ar    1  UNL1        0.1209
     14 O          -5.3482    0.2924    0.7356 O.3     1  UNL1       -0.5066
     15 C          -2.9549    0.2200    0.4247 C.ar    1  UNL1       -0.0128
     16 C           3.0892   -0.2121   -0.4884 C.ar    1  UNL1       -0.0511
     17 C           4.3208    0.3738   -0.3287 C.ar    1  UNL1       -0.0196
     18 H           6.1172    2.1453    1.3721 H       1  UNL1        0.2921
     19 H           3.3776    3.1815    1.2191 H       1  UNL1        0.0654
     20 H           1.1871    2.1743    0.9529 H       1  UNL1        0.0625
     21 H           0.6465   -1.1844   -0.7082 H       1  UNL1        0.0624
     22 H          -0.5329    1.2632    0.6830 H       1  UNL1        0.0624
     23 H          -1.0520   -2.1176   -0.9923 H       1  UNL1        0.0660
     24 H          -2.4663   -3.9084   -1.7920 H       1  UNL1        0.2921
     25 H          -5.3153   -2.0027   -0.4457 H       1  UNL1        0.0691
     26 H          -5.2800    1.2417    1.0228 H       1  UNL1        0.2921
     27 H          -2.8701    1.1960    0.9158 H       1  UNL1        0.0660
     28 H           3.0090   -1.1768   -0.9740 H       1  UNL1        0.0625
     29 H           5.2367   -0.0955   -0.6741 H       1  UNL1        0.0654
@<TRIPOS>BOND
     1     1     2    1
     2     2     3   ar
     3     3     4   ar
     4     4     5   ar
     5     5     6    1
     6     6     7    2
     7     7     8    1
     8     8     9   ar
     9     9    10   ar
    10    10    11    1
    11    10    12   ar
    12    12    13   ar
    13    13    14    1
    14    13    15   ar
    15     5    16   ar
    16    16    17   ar
    17    17     2   ar
    18    15     8   ar
    19     1    18    1
    20     3    19    1
    21     4    20    1
    22     6    21    1
    23     7    22    1
    24     9    23    1
    25    11    24    1
    26    12    25    1
    27    14    26    1
    28    15    27    1
    29    16    28    1
    30    17    29    1
