@<TRIPOS>MOLECULE
*****
 46 48 0 0 0
SMALL
GASTEIGER

@<TRIPOS>ATOM
      1 C          -7.6636    0.0399   -0.5309 C.3     1  UNL1        0.0368
      2 O          -6.5746   -0.5272    0.0959 O.3     1  UNL1       -0.3798
      3 C          -5.4009    0.1289   -0.2521 C.3     1  UNL1        0.0584
      4 C          -4.7743    0.6740    0.9917 C.3     1  UNL1       -0.0259
      5 C          -3.2971    0.3805    1.0505 C.3     1  UNL1       -0.0396
      6 C          -2.6563    0.8145   -0.2577 C.3     1  UNL1        0.0361
      7 C          -1.1852    0.6187   -0.1917 C.2     1  UNL1        0.2217
      8 O          -0.3853    1.5799   -0.3279 O.2     1  UNL1       -0.2751
      9 N          -0.6089   -0.6689    0.0293 N.am    1  UNL1       -0.2644
     10 C           0.7955   -0.8642    0.0937 C.ar    1  UNL1        0.1651
     11 N           1.5794   -1.8346    0.2685 N.ar    1  UNL1       -0.2292
     12 C           2.8755   -1.7569    0.2863 C.ar    1  UNL1        0.0552
     13 C           3.7524   -2.9907    0.5055 C.3     1  UNL1       -0.0212
     14 C           3.4570   -0.5395    0.1036 C.ar    1  UNL1        0.0450
     15 C           4.7563    0.0218    0.0434 C.ar    1  UNL1        0.0087
     16 C           4.8978    1.3889   -0.1749 C.ar    1  UNL1       -0.0488
     17 C           6.1202    2.0167   -0.2475 C.ar    1  UNL1       -0.0215
     18 C           7.2558    1.2240   -0.0918 C.ar    1  UNL1        0.1161
     19 N           8.5316    1.8507   -0.1629 N.pl3   1  UNL1       -0.3431
     20 N           7.1394   -0.0781    0.1166 N.ar    1  UNL1       -0.2401
     21 C           5.9099   -0.6771    0.1844 C.ar    1  UNL1        0.0379
     22 S           1.9452    0.4850   -0.0969 S.2     1  UNL1       -0.0517
     23 C          -3.2788    0.1296   -1.4418 C.3     1  UNL1       -0.0396
     24 C          -4.4246   -0.7734   -0.9679 C.3     1  UNL1       -0.0259
     25 H          -7.5154   -0.0345   -1.6319 H       1  UNL1        0.0524
     26 H          -8.5777   -0.5284   -0.2637 H       1  UNL1        0.0524
     27 H          -7.7420    1.0926   -0.1925 H       1  UNL1        0.0524
     28 H          -5.6500    0.9510   -0.9547 H       1  UNL1        0.0596
     29 H          -4.9468    1.7614    1.0306 H       1  UNL1        0.0290
     30 H          -5.2332    0.2245    1.9083 H       1  UNL1        0.0290
     31 H          -2.8620    1.0132    1.8389 H       1  UNL1        0.0273
     32 H          -3.0767   -0.6672    1.2810 H       1  UNL1        0.0273
     33 H          -2.8413    1.9040   -0.3433 H       1  UNL1        0.0394
     34 H          -1.2150   -1.4821    0.1463 H       1  UNL1        0.1567
     35 H           3.1064   -3.8960    0.6267 H       1  UNL1        0.0293
     36 H           4.3814   -3.2055   -0.3569 H       1  UNL1        0.0293
     37 H           4.3363   -2.9138    1.4277 H       1  UNL1        0.0293
     38 H           4.0362    2.0492   -0.3026 H       1  UNL1        0.0625
     39 H           6.2377    3.0714   -0.4158 H       1  UNL1        0.0652
     40 H           9.2873    1.4112   -0.7225 H       1  UNL1        0.1437
     41 H           8.7364    2.7408    0.3295 H       1  UNL1        0.1437
     42 H           5.9630   -1.7341    0.3572 H       1  UNL1        0.0836
     43 H          -2.5442   -0.4533   -2.0445 H       1  UNL1        0.0273
     44 H          -3.7482    0.8490   -2.1575 H       1  UNL1        0.0273
     45 H          -4.8895   -1.2327   -1.8627 H       1  UNL1        0.0290
     46 H          -4.0089   -1.5634   -0.3095 H       1  UNL1        0.0290
@<TRIPOS>BOND
     1     1     2    1
     2     2     3    1
     3     3     4    1
     4     4     5    1
     5     5     6    1
     6     6     7    1
     7     7     8    2
     8     7     9   am
     9     9    10    1
    10    10    11   ar
    11    11    12   ar
    12    12    13    1
    13    12    14   ar
    14    14    15    1
    15    15    16   ar
    16    16    17   ar
    17    17    18   ar
    18    18    19    1
    19    18    20   ar
    20    20    21   ar
    21    14    22   ar
    22     6    23    1
    23    23    24    1
    24    24     3    1
    25    22    10   ar
    26    21    15   ar
    27     1    25    1
    28     1    26    1
    29     1    27    1
    30     3    28    1
    31     4    29    1
    32     4    30    1
    33     5    31    1
    34     5    32    1
    35     6    33    1
    36     9    34    1
    37    13    35    1
    38    13    36    1
    39    13    37    1
    40    16    38    1
    41    17    39    1
    42    19    40    1
    43    19    41    1
    44    21    42    1
    45    23    43    1
    46    23    44    1
    47    24    45    1
    48    24    46    1
