@<TRIPOS>MOLECULE
*****
 61 65 0 0 0
SMALL
GASTEIGER

@<TRIPOS>ATOM
      1 O          -0.2520   -1.4425   -3.5765 O.2     1  UNL1       -0.2697
      2 C          -1.3509   -1.7821   -3.0799 C.2     1  UNL1        0.2523
      3 N          -2.0253   -2.9726   -3.3755 N.am    1  UNL1       -0.2483
      4 C          -3.2692   -3.2974   -2.7769 C.2     1  UNL1        0.2511
      5 O          -3.8628   -4.3839   -3.0607 O.2     1  UNL1       -0.2698
      6 C          -3.8919   -2.3894   -1.8228 C.ar    1  UNL1        0.0450
      7 C          -5.1006   -2.7053   -1.2412 C.ar    1  UNL1       -0.0485
      8 C          -5.6851   -1.8511   -0.3443 C.ar    1  UNL1       -0.0533
      9 C          -5.0919   -0.6689   -0.0018 C.ar    1  UNL1       -0.0173
     10 C          -5.6690    0.2697    0.9423 C.ar    1  UNL1       -0.0176
     11 C          -4.8725    1.0707    1.7351 C.ar    1  UNL1       -0.0506
     12 C          -5.4650    1.9482    2.6183 C.ar    1  UNL1       -0.0196
     13 C          -6.8419    2.0520    2.7359 C.ar    1  UNL1        0.1169
     14 O          -7.4349    2.9354    3.6251 O.3     1  UNL1       -0.5068
     15 C          -7.6356    1.2567    1.9488 C.ar    1  UNL1       -0.0196
     16 C          -7.0346    0.3813    1.0675 C.ar    1  UNL1       -0.0506
     17 C          -3.8712   -0.3616   -0.5963 C.ar    1  UNL1       -0.0454
     18 C          -3.2409   -1.1965   -1.5108 C.ar    1  UNL1        0.0010
     19 C          -1.9626   -0.8422   -2.1133 C.2     1  UNL1        0.0587
     20 C          -1.3601    0.2827   -1.8111 C.2     1  UNL1        0.0065
     21 N          -0.1016    0.5644   -2.4445 N.pl3   1  UNL1       -0.3198
     22 C           1.1097    0.1964   -1.8198 C.ar    1  UNL1        0.0309
     23 C           2.3387    0.4585   -2.4046 C.ar    1  UNL1       -0.0403
     24 C           3.5375    0.1140   -1.8252 C.ar    1  UNL1       -0.0556
     25 C           3.4907   -0.5197   -0.6074 C.ar    1  UNL1       -0.0332
     26 C           4.7042   -0.9481    0.1352 C.3     1  UNL1        0.0240
     27 N           5.2084    0.0404    1.0353 N.3     1  UNL1       -0.2982
     28 C           6.3652   -0.4494    1.7014 C.3     1  UNL1       -0.0008
     29 C           6.6430    0.5008    2.8743 C.3     1  UNL1       -0.0402
     30 C           7.0598    1.7934    2.2433 C.3     1  UNL1       -0.0507
     31 C           6.0660    2.3453    1.2686 C.3     1  UNL1       -0.0402
     32 C           5.3036    1.3467    0.4901 C.3     1  UNL1       -0.0008
     33 C           2.2757   -0.7875   -0.0123 C.ar    1  UNL1       -0.0556
     34 C           1.0711   -0.4451   -0.5877 C.ar    1  UNL1       -0.0403
     35 H          -1.5914   -3.6391   -4.0609 H       1  UNL1        0.1581
     36 H          -5.5474   -3.6515   -1.5333 H       1  UNL1        0.0625
     37 H          -6.6359   -2.1226    0.0991 H       1  UNL1        0.0624
     38 H          -3.8089    1.0033    1.6570 H       1  UNL1        0.0625
     39 H          -4.8489    2.5771    3.2408 H       1  UNL1        0.0654
     40 H          -8.3005    3.4127    3.4032 H       1  UNL1        0.2921
     41 H          -8.7187    1.3126    2.0155 H       1  UNL1        0.0654
     42 H          -7.6454   -0.2676    0.4250 H       1  UNL1        0.0625
     43 H          -3.4101    0.5620   -0.3272 H       1  UNL1        0.0630
     44 H          -1.7185    1.0199   -1.1309 H       1  UNL1        0.0789
     45 H          -0.0991    1.0429   -3.3693 H       1  UNL1        0.1516
     46 H           2.3738    0.9607   -3.3693 H       1  UNL1        0.0636
     47 H           4.4868    0.3179   -2.2809 H       1  UNL1        0.0621
     48 H           4.4817   -1.9113    0.5963 H       1  UNL1        0.0476
     49 H           5.4981   -1.1300   -0.6468 H       1  UNL1        0.0476
     50 H           7.2778   -0.4791    1.1004 H       1  UNL1        0.0427
     51 H           6.1331   -1.4594    2.1001 H       1  UNL1        0.0427
     52 H           5.7581    0.6306    3.5104 H       1  UNL1        0.0278
     53 H           7.4740    0.1309    3.4891 H       1  UNL1        0.0278
     54 H           7.2580    2.5204    3.0685 H       1  UNL1        0.0266
     55 H           8.0476    1.6180    1.7564 H       1  UNL1        0.0266
     56 H           6.5992    3.0831    0.6223 H       1  UNL1        0.0278
     57 H           5.3362    2.9614    1.8605 H       1  UNL1        0.0278
     58 H           5.8120    1.2512   -0.5160 H       1  UNL1        0.0427
     59 H           4.2780    1.6997    0.2494 H       1  UNL1        0.0427
     60 H           2.2314   -1.2858    0.9459 H       1  UNL1        0.0621
     61 H           0.1249   -0.6711   -0.0908 H       1  UNL1        0.0636
@<TRIPOS>BOND
     1     1     2    2
     2     2     3   am
     3     3     4   am
     4     4     5    2
     5     4     6    1
     6     6     7   ar
     7     7     8   ar
     8     8     9   ar
     9     9    10    1
    10    10    11   ar
    11    11    12   ar
    12    12    13   ar
    13    13    14    1
    14    13    15   ar
    15    15    16   ar
    16     9    17   ar
    17    17    18   ar
    18    18    19    1
    19    19    20    2
    20    20    21    1
    21    21    22    1
    22    22    23   ar
    23    23    24   ar
    24    24    25   ar
    25    25    26    1
    26    26    27    1
    27    27    28    1
    28    28    29    1
    29    29    30    1
    30    30    31    1
    31    31    32    1
    32    25    33   ar
    33    33    34   ar
    34    19     2    1
    35    34    22   ar
    36    18     6   ar
    37    32    27    1
    38    16    10   ar
    39     3    35    1
    40     7    36    1
    41     8    37    1
    42    11    38    1
    43    12    39    1
    44    14    40    1
    45    15    41    1
    46    16    42    1
    47    17    43    1
    48    20    44    1
    49    21    45    1
    50    23    46    1
    51    24    47    1
    52    26    48    1
    53    26    49    1
    54    28    50    1
    55    28    51    1
    56    29    52    1
    57    29    53    1
    58    30    54    1
    59    30    55    1
    60    31    56    1
    61    31    57    1
    62    32    58    1
    63    32    59    1
    64    33    60    1
    65    34    61    1
