@<TRIPOS>MOLECULE
*****
 69 74 0 0 0
SMALL
GASTEIGER

@<TRIPOS>ATOM
      1 C          -6.9116   -1.6621    1.5099 C.3     1  UNL1        0.0032
      2 N          -7.4759   -1.4183    0.2013 N.am    1  UNL1       -0.3024
      3 C          -8.8836   -1.6537   -0.0401 C.3     1  UNL1        0.0032
      4 C          -6.6303   -0.9492   -0.8290 C.2     1  UNL1        0.2627
      5 O          -7.1360   -0.7392   -1.9622 O.2     1  UNL1       -0.2684
      6 C          -5.2228   -0.6934   -0.6740 C.ar    1  UNL1        0.1070
      7 C          -4.2855   -1.7229   -0.6303 C.ar    1  UNL1       -0.0209
      8 C          -3.0678   -1.1292   -0.4720 C.ar    1  UNL1        0.0378
      9 C          -1.8176   -1.7010   -0.3699 C.ar    1  UNL1        0.0419
     10 N          -0.7525   -0.9038   -0.2153 N.ar    1  UNL1       -0.2219
     11 C          -0.9377    0.4442   -0.1640 C.ar    1  UNL1        0.2224
     12 N           0.1960    1.2852    0.0047 N.pl3   1  UNL1       -0.2684
     13 C           1.4928    0.7391    0.1216 C.ar    1  UNL1        0.1251
     14 C           2.6260    1.5132    0.2986 C.ar    1  UNL1       -0.0197
     15 C           3.8776    0.9519    0.4105 C.ar    1  UNL1       -0.0354
     16 C           4.0365   -0.4018    0.3493 C.ar    1  UNL1        0.0578
     17 N           5.2880   -1.0584    0.4598 N.am    1  UNL1       -0.2320
     18 C           6.1922   -1.3699   -0.6312 C.3     1  UNL1        0.0642
     19 C           7.5322   -1.2689    0.1095 C.3     1  UNL1        0.1435
     20 C           7.7271    0.1808    0.4588 C.3     1  UNL1       -0.0089
     21 C           9.1047    0.6177    0.0248 C.3     1  UNL1       -0.0367
     22 C          10.0918   -0.3957    0.5999 C.3     1  UNL1       -0.0038
     23 N           9.8597   -1.7287    0.1329 N.3     1  UNL1       -0.3122
     24 C           8.6598   -1.8584   -0.6629 C.3     1  UNL1        0.0376
     25 O           7.2209   -1.9972    1.2894 O.3     1  UNL1       -0.4406
     26 C           5.9294   -1.5456    1.6317 C.2     1  UNL1        0.4080
     27 O           5.4065   -1.5634    2.7925 O.2     1  UNL1       -0.2259
     28 C           2.8777   -1.1657    0.1702 C.ar    1  UNL1        0.0512
     29 N           1.6519   -0.5885    0.0619 N.ar    1  UNL1       -0.2383
     30 N          -2.1723    0.9919   -0.2658 N.ar    1  UNL1       -0.1962
     31 C          -3.2696    0.2290   -0.4221 C.ar    1  UNL1        0.1466
     32 N          -4.5969    0.4761   -0.5475 N.ar    1  UNL1       -0.3180
     33 C          -5.1601    1.7810   -0.5358 C.3     1  UNL1        0.0366
     34 C          -6.3878    1.9376    0.3395 C.3     1  UNL1       -0.0320
     35 C          -6.7199    3.4079    0.0283 C.3     1  UNL1       -0.0511
     36 C          -6.6746    3.3595   -1.4938 C.3     1  UNL1       -0.0511
     37 C          -5.5896    2.3357   -1.8459 C.3     1  UNL1       -0.0320
     38 H          -6.9414   -2.7549    1.7441 H       1  UNL1        0.0428
     39 H          -5.8953   -1.2615    1.5458 H       1  UNL1        0.0428
     40 H          -7.5383   -1.1552    2.3014 H       1  UNL1        0.0428
     41 H          -9.2229   -1.2331   -0.9966 H       1  UNL1        0.0428
     42 H          -9.5301   -1.3104    0.7968 H       1  UNL1        0.0428
     43 H          -8.9892   -2.7698   -0.1213 H       1  UNL1        0.0428
     44 H          -4.4898   -2.7884   -0.7078 H       1  UNL1        0.0647
     45 H          -1.6602   -2.7632   -0.4080 H       1  UNL1        0.0838
     46 H           0.0647    2.3319    0.0441 H       1  UNL1        0.1564
     47 H           2.4856    2.5932    0.3466 H       1  UNL1        0.0652
     48 H           4.7208    1.5995    0.5460 H       1  UNL1        0.0638
     49 H           6.1345   -0.6221   -1.4428 H       1  UNL1        0.0509
     50 H           6.0514   -2.3945   -1.0161 H       1  UNL1        0.0509
     51 H           7.5944    0.3297    1.5577 H       1  UNL1        0.0305
     52 H           6.9930    0.8561   -0.0219 H       1  UNL1        0.0305
     53 H           9.3143    1.5732    0.5501 H       1  UNL1        0.0279
     54 H           9.1599    0.6921   -1.0632 H       1  UNL1        0.0279
     55 H           9.9705   -0.3084    1.7198 H       1  UNL1        0.0424
     56 H          11.0997    0.0016    0.3634 H       1  UNL1        0.0424
     57 H          10.6826   -2.2053   -0.2562 H       1  UNL1        0.1221
     58 H           8.7588   -1.2949   -1.6078 H       1  UNL1        0.0464
     59 H           8.4416   -2.9228   -0.8404 H       1  UNL1        0.0464
     60 H           2.9803   -2.2383    0.1212 H       1  UNL1        0.0849
     61 H          -4.4250    2.5314   -0.1101 H       1  UNL1        0.0528
     62 H          -6.1654    1.8151    1.4040 H       1  UNL1        0.0285
     63 H          -7.2460    1.3503    0.0188 H       1  UNL1        0.0285
     64 H          -7.7045    3.6888    0.4199 H       1  UNL1        0.0266
     65 H          -5.9027    4.0389    0.4447 H       1  UNL1        0.0266
     66 H          -6.4722    4.3492   -1.9025 H       1  UNL1        0.0266
     67 H          -7.6785    2.9706   -1.8042 H       1  UNL1        0.0266
     68 H          -5.9117    1.6286   -2.6042 H       1  UNL1        0.0285
     69 H          -4.7578    2.9371   -2.3046 H       1  UNL1        0.0285
@<TRIPOS>BOND
     1     1     2    1
     2     2     3    1
     3     2     4   am
     4     4     5    2
     5     4     6    1
     6     6     7   ar
     7     7     8   ar
     8     8     9   ar
     9     9    10   ar
    10    10    11   ar
    11    11    12    1
    12    12    13    1
    13    13    14   ar
    14    14    15   ar
    15    15    16   ar
    16    16    17    1
    17    17    18    1
    18    18    19    1
    19    19    20    1
    20    20    21    1
    21    21    22    1
    22    22    23    1
    23    23    24    1
    24    19    25    1
    25    25    26    1
    26    26    27    2
    27    16    28   ar
    28    28    29   ar
    29    11    30   ar
    30    30    31   ar
    31    31    32   ar
    32    32    33    1
    33    33    34    1
    34    34    35    1
    35    35    36    1
    36    36    37    1
    37    32     6   ar
    38    37    33    1
    39    31     8   ar
    40    29    13   ar
    41    26    17   am
    42    24    19    1
    43     1    38    1
    44     1    39    1
    45     1    40    1
    46     3    41    1
    47     3    42    1
    48     3    43    1
    49     7    44    1
    50     9    45    1
    51    12    46    1
    52    14    47    1
    53    15    48    1
    54    18    49    1
    55    18    50    1
    56    20    51    1
    57    20    52    1
    58    21    53    1
    59    21    54    1
    60    22    55    1
    61    22    56    1
    62    23    57    1
    63    24    58    1
    64    24    59    1
    65    28    60    1
    66    33    61    1
    67    34    62    1
    68    34    63    1
    69    35    64    1
    70    35    65    1
    71    36    66    1
    72    36    67    1
    73    37    68    1
    74    37    69    1
