
     RDKit          3D

 69 74  0  0  0  0  0  0  0  0999 V2000
   -6.9116   -1.6621    1.5099 C   0  0  0  0  0  0  0  0  0  0  0  0
   -7.4759   -1.4183    0.2013 N   0  0  0  0  0  0  0  0  0  0  0  0
   -8.8836   -1.6537   -0.0401 C   0  0  0  0  0  0  0  0  0  0  0  0
   -6.6303   -0.9492   -0.8290 C   0  0  0  0  0  0  0  0  0  0  0  0
   -7.1360   -0.7392   -1.9622 O   0  0  0  0  0  0  0  0  0  0  0  0
   -5.2228   -0.6934   -0.6740 C   0  0  0  0  0  0  0  0  0  0  0  0
   -4.2855   -1.7229   -0.6303 C   0  0  0  0  0  0  0  0  0  0  0  0
   -3.0678   -1.1292   -0.4720 C   0  0  0  0  0  0  0  0  0  0  0  0
   -1.8176   -1.7010   -0.3699 C   0  0  0  0  0  0  0  0  0  0  0  0
   -0.7525   -0.9038   -0.2153 N   0  0  0  0  0  0  0  0  0  0  0  0
   -0.9377    0.4442   -0.1640 C   0  0  0  0  0  0  0  0  0  0  0  0
    0.1960    1.2852    0.0047 N   0  0  0  0  0  0  0  0  0  0  0  0
    1.4928    0.7391    0.1216 C   0  0  0  0  0  0  0  0  0  0  0  0
    2.6260    1.5132    0.2986 C   0  0  0  0  0  0  0  0  0  0  0  0
    3.8776    0.9519    0.4105 C   0  0  0  0  0  0  0  0  0  0  0  0
    4.0365   -0.4018    0.3493 C   0  0  0  0  0  0  0  0  0  0  0  0
    5.2880   -1.0584    0.4598 N   0  0  0  0  0  0  0  0  0  0  0  0
    6.1922   -1.3699   -0.6312 C   0  0  0  0  0  0  0  0  0  0  0  0
    7.5322   -1.2689    0.1095 C   0  0  0  0  0  0  0  0  0  0  0  0
    7.7271    0.1808    0.4588 C   0  0  0  0  0  0  0  0  0  0  0  0
    9.1047    0.6177    0.0248 C   0  0  0  0  0  0  0  0  0  0  0  0
   10.0918   -0.3957    0.5999 C   0  0  0  0  0  0  0  0  0  0  0  0
    9.8597   -1.7287    0.1329 N   0  0  0  0  0  0  0  0  0  0  0  0
    8.6598   -1.8584   -0.6629 C   0  0  0  0  0  0  0  0  0  0  0  0
    7.2209   -1.9972    1.2894 O   0  0  0  0  0  0  0  0  0  0  0  0
    5.9294   -1.5456    1.6317 C   0  0  0  0  0  0  0  0  0  0  0  0
    5.4065   -1.5634    2.7925 O   0  0  0  0  0  0  0  0  0  0  0  0
    2.8777   -1.1657    0.1702 C   0  0  0  0  0  0  0  0  0  0  0  0
    1.6519   -0.5885    0.0619 N   0  0  0  0  0  0  0  0  0  0  0  0
   -2.1723    0.9919   -0.2658 N   0  0  0  0  0  0  0  0  0  0  0  0
   -3.2696    0.2290   -0.4221 C   0  0  0  0  0  0  0  0  0  0  0  0
   -4.5969    0.4761   -0.5475 N   0  0  0  0  0  0  0  0  0  0  0  0
   -5.1601    1.7810   -0.5358 C   0  0  0  0  0  0  0  0  0  0  0  0
   -6.3878    1.9376    0.3395 C   0  0  0  0  0  0  0  0  0  0  0  0
   -6.7199    3.4079    0.0283 C   0  0  0  0  0  0  0  0  0  0  0  0
   -6.6746    3.3595   -1.4938 C   0  0  0  0  0  0  0  0  0  0  0  0
   -5.5896    2.3357   -1.8459 C   0  0  0  0  0  0  0  0  0  0  0  0
   -6.9414   -2.7549    1.7441 H   0  0  0  0  0  0  0  0  0  0  0  0
   -5.8953   -1.2615    1.5458 H   0  0  0  0  0  0  0  0  0  0  0  0
   -7.5383   -1.1552    2.3014 H   0  0  0  0  0  0  0  0  0  0  0  0
   -9.2229   -1.2331   -0.9966 H   0  0  0  0  0  0  0  0  0  0  0  0
   -9.5301   -1.3104    0.7968 H   0  0  0  0  0  0  0  0  0  0  0  0
   -8.9892   -2.7698   -0.1213 H   0  0  0  0  0  0  0  0  0  0  0  0
   -4.4898   -2.7884   -0.7078 H   0  0  0  0  0  0  0  0  0  0  0  0
   -1.6602   -2.7632   -0.4080 H   0  0  0  0  0  0  0  0  0  0  0  0
    0.0647    2.3319    0.0441 H   0  0  0  0  0  0  0  0  0  0  0  0
    2.4856    2.5932    0.3466 H   0  0  0  0  0  0  0  0  0  0  0  0
    4.7208    1.5995    0.5460 H   0  0  0  0  0  0  0  0  0  0  0  0
    6.1345   -0.6221   -1.4428 H   0  0  0  0  0  0  0  0  0  0  0  0
    6.0514   -2.3945   -1.0161 H   0  0  0  0  0  0  0  0  0  0  0  0
    7.5944    0.3297    1.5577 H   0  0  0  0  0  0  0  0  0  0  0  0
    6.9930    0.8561   -0.0219 H   0  0  0  0  0  0  0  0  0  0  0  0
    9.3143    1.5732    0.5501 H   0  0  0  0  0  0  0  0  0  0  0  0
    9.1599    0.6921   -1.0632 H   0  0  0  0  0  0  0  0  0  0  0  0
    9.9705   -0.3084    1.7198 H   0  0  0  0  0  0  0  0  0  0  0  0
   11.0997    0.0016    0.3634 H   0  0  0  0  0  0  0  0  0  0  0  0
   10.6826   -2.2053   -0.2562 H   0  0  0  0  0  0  0  0  0  0  0  0
    8.7588   -1.2949   -1.6078 H   0  0  0  0  0  0  0  0  0  0  0  0
    8.4416   -2.9228   -0.8404 H   0  0  0  0  0  0  0  0  0  0  0  0
    2.9803   -2.2383    0.1212 H   0  0  0  0  0  0  0  0  0  0  0  0
   -4.4250    2.5314   -0.1101 H   0  0  0  0  0  0  0  0  0  0  0  0
   -6.1654    1.8151    1.4040 H   0  0  0  0  0  0  0  0  0  0  0  0
   -7.2460    1.3503    0.0188 H   0  0  0  0  0  0  0  0  0  0  0  0
   -7.7045    3.6888    0.4199 H   0  0  0  0  0  0  0  0  0  0  0  0
   -5.9027    4.0389    0.4447 H   0  0  0  0  0  0  0  0  0  0  0  0
   -6.4722    4.3492   -1.9025 H   0  0  0  0  0  0  0  0  0  0  0  0
   -7.6785    2.9706   -1.8042 H   0  0  0  0  0  0  0  0  0  0  0  0
   -5.9117    1.6286   -2.6042 H   0  0  0  0  0  0  0  0  0  0  0  0
   -4.7578    2.9371   -2.3046 H   0  0  0  0  0  0  0  0  0  0  0  0
  1  2  1  0
  2  3  1  0
  2  4  1  0
  4  5  2  0
  4  6  1  0
  6  7  2  0
  7  8  1  0
  8  9  2  0
  9 10  1  0
 10 11  2  0
 11 12  1  0
 12 13  1  0
 13 14  2  0
 14 15  1  0
 15 16  2  0
 16 17  1  0
 17 18  1  0
 18 19  1  0
 19 20  1  0
 20 21  1  0
 21 22  1  0
 22 23  1  0
 23 24  1  0
 19 25  1  0
 25 26  1  0
 26 27  2  0
 16 28  1  0
 28 29  2  0
 11 30  1  0
 30 31  2  0
 31 32  1  0
 32 33  1  0
 33 34  1  0
 34 35  1  0
 35 36  1  0
 36 37  1  0
 32  6  1  0
 37 33  1  0
 31  8  1  0
 29 13  1  0
 26 17  1  0
 24 19  1  0
  1 38  1  0
  1 39  1  0
  1 40  1  0
  3 41  1  0
  3 42  1  0
  3 43  1  0
  7 44  1  0
  9 45  1  0
 12 46  1  0
 14 47  1  0
 15 48  1  0
 18 49  1  0
 18 50  1  0
 20 51  1  0
 20 52  1  0
 21 53  1  0
 21 54  1  0
 22 55  1  0
 22 56  1  0
 23 57  1  0
 24 58  1  0
 24 59  1  0
 28 60  1  0
 33 61  1  0
 34 62  1  0
 34 63  1  0
 35 64  1  0
 35 65  1  0
 36 66  1  0
 36 67  1  0
 37 68  1  0
 37 69  1  0
M  END
$$$$
