@<TRIPOS>MOLECULE
*****
 40 42 0 0 0
SMALL
GASTEIGER

@<TRIPOS>ATOM
      1 C           3.3500    1.6174   -0.1621 C.3     1  UNL1       -0.0130
      2 N           3.2312    0.2611    0.3520 N.3     1  UNL1       -0.3083
      3 C           4.5859   -0.2307    0.6196 C.3     1  UNL1       -0.0130
      4 C           2.6301   -0.6314   -0.6083 C.3     1  UNL1       -0.0003
      5 C           1.1746   -0.3466   -0.8479 C.3     1  UNL1       -0.0240
      6 C           0.3917   -0.5215    0.4149 C.3     1  UNL1        0.0185
      7 N          -1.0242   -0.2614    0.2684 N.pl3   1  UNL1       -0.2982
      8 C          -1.4309    1.1039    0.2513 C.ar    1  UNL1        0.0479
      9 C          -0.4813    2.1168    0.3736 C.ar    1  UNL1       -0.0393
     10 C          -0.8044    3.4575    0.3588 C.ar    1  UNL1       -0.0599
     11 C          -2.1042    3.8698    0.2201 C.ar    1  UNL1       -0.0606
     12 C          -3.0498    2.8891    0.0991 C.ar    1  UNL1       -0.0462
     13 C          -2.7231    1.5523    0.1144 C.ar    1  UNL1        0.0341
     14 S          -4.0479    0.3490   -0.0340 S.3     1  UNL1       -0.0857
     15 C          -3.2690   -1.2446   -0.0064 C.ar    1  UNL1        0.0342
     16 C          -4.0986   -2.3268   -0.1480 C.ar    1  UNL1       -0.0448
     17 C          -3.6039   -3.6081   -0.1472 C.ar    1  UNL1       -0.0422
     18 C          -2.2684   -3.7591   -0.0019 C.ar    1  UNL1        0.0428
     19 CL         -1.5960   -5.3621    0.0025 Cl      1  UNL1       -0.0835
     20 C          -1.4275   -2.6604    0.1415 C.ar    1  UNL1       -0.0209
     21 C          -1.9108   -1.3680    0.1431 C.ar    1  UNL1        0.0493
     22 H           4.4281    1.9169   -0.2590 H       1  UNL1        0.0391
     23 H           2.8719    1.6017   -1.1848 H       1  UNL1        0.0391
     24 H           2.8921    2.3618    0.5093 H       1  UNL1        0.0391
     25 H           4.8221    0.0051    1.6581 H       1  UNL1        0.0391
     26 H           5.3212    0.3515    0.0011 H       1  UNL1        0.0391
     27 H           4.6592   -1.3252    0.4381 H       1  UNL1        0.0391
     28 H           2.7540   -1.6704   -0.1830 H       1  UNL1        0.0427
     29 H           3.2103   -0.6651   -1.5687 H       1  UNL1        0.0427
     30 H           0.8017   -1.1699   -1.5401 H       1  UNL1        0.0293
     31 H           0.9945    0.5705   -1.4165 H       1  UNL1        0.0293
     32 H           0.8191    0.1250    1.2600 H       1  UNL1        0.0468
     33 H           0.6192   -1.5317    0.8046 H       1  UNL1        0.0468
     34 H           0.5732    1.8210    0.4899 H       1  UNL1        0.0636
     35 H          -0.0385    4.2092    0.4555 H       1  UNL1        0.0618
     36 H          -2.3685    4.9315    0.2080 H       1  UNL1        0.0618
     37 H          -4.0899    3.1618   -0.0128 H       1  UNL1        0.0629
     38 H          -5.1873   -2.2395   -0.2679 H       1  UNL1        0.0630
     39 H          -4.2419   -4.4647   -0.2570 H       1  UNL1        0.0632
     40 H          -0.3640   -2.8858    0.2386 H       1  UNL1        0.0651
@<TRIPOS>BOND
     1     1     2    1
     2     2     3    1
     3     2     4    1
     4     4     5    1
     5     5     6    1
     6     6     7    1
     7     7     8    1
     8     8     9   ar
     9     9    10   ar
    10    10    11   ar
    11    11    12   ar
    12    12    13   ar
    13    13    14    1
    14    14    15    1
    15    15    16   ar
    16    16    17   ar
    17    17    18   ar
    18    18    19    1
    19    18    20   ar
    20    20    21   ar
    21    21     7    1
    22    13     8   ar
    23    21    15   ar
    24     1    22    1
    25     1    23    1
    26     1    24    1
    27     3    25    1
    28     3    26    1
    29     3    27    1
    30     4    28    1
    31     4    29    1
    32     5    30    1
    33     5    31    1
    34     6    32    1
    35     6    33    1
    36     9    34    1
    37    10    35    1
    38    11    36    1
    39    12    37    1
    40    16    38    1
    41    17    39    1
    42    20    40    1
