
     RDKit          3D

 40 42  0  0  0  0  0  0  0  0999 V2000
    3.3500    1.6174   -0.1621 C   0  0  0  0  0  0  0  0  0  0  0  0
    3.2312    0.2611    0.3520 N   0  0  0  0  0  0  0  0  0  0  0  0
    4.5859   -0.2307    0.6196 C   0  0  0  0  0  0  0  0  0  0  0  0
    2.6301   -0.6314   -0.6083 C   0  0  0  0  0  0  0  0  0  0  0  0
    1.1746   -0.3466   -0.8479 C   0  0  0  0  0  0  0  0  0  0  0  0
    0.3917   -0.5215    0.4149 C   0  0  0  0  0  0  0  0  0  0  0  0
   -1.0242   -0.2614    0.2684 N   0  0  0  0  0  0  0  0  0  0  0  0
   -1.4309    1.1039    0.2513 C   0  0  0  0  0  0  0  0  0  0  0  0
   -0.4813    2.1168    0.3736 C   0  0  0  0  0  0  0  0  0  0  0  0
   -0.8044    3.4575    0.3588 C   0  0  0  0  0  0  0  0  0  0  0  0
   -2.1042    3.8698    0.2201 C   0  0  0  0  0  0  0  0  0  0  0  0
   -3.0498    2.8891    0.0991 C   0  0  0  0  0  0  0  0  0  0  0  0
   -2.7231    1.5523    0.1144 C   0  0  0  0  0  0  0  0  0  0  0  0
   -4.0479    0.3490   -0.0340 S   0  0  0  0  0  0  0  0  0  0  0  0
   -3.2690   -1.2446   -0.0064 C   0  0  0  0  0  0  0  0  0  0  0  0
   -4.0986   -2.3268   -0.1480 C   0  0  0  0  0  0  0  0  0  0  0  0
   -3.6039   -3.6081   -0.1472 C   0  0  0  0  0  0  0  0  0  0  0  0
   -2.2684   -3.7591   -0.0019 C   0  0  0  0  0  0  0  0  0  0  0  0
   -1.5960   -5.3621    0.0025 Cl  0  0  0  0  0  0  0  0  0  0  0  0
   -1.4275   -2.6604    0.1415 C   0  0  0  0  0  0  0  0  0  0  0  0
   -1.9108   -1.3680    0.1431 C   0  0  0  0  0  0  0  0  0  0  0  0
    4.4281    1.9169   -0.2590 H   0  0  0  0  0  0  0  0  0  0  0  0
    2.8719    1.6017   -1.1848 H   0  0  0  0  0  0  0  0  0  0  0  0
    2.8921    2.3618    0.5093 H   0  0  0  0  0  0  0  0  0  0  0  0
    4.8221    0.0051    1.6581 H   0  0  0  0  0  0  0  0  0  0  0  0
    5.3212    0.3515    0.0011 H   0  0  0  0  0  0  0  0  0  0  0  0
    4.6592   -1.3252    0.4381 H   0  0  0  0  0  0  0  0  0  0  0  0
    2.7540   -1.6704   -0.1830 H   0  0  0  0  0  0  0  0  0  0  0  0
    3.2103   -0.6651   -1.5687 H   0  0  0  0  0  0  0  0  0  0  0  0
    0.8017   -1.1699   -1.5401 H   0  0  0  0  0  0  0  0  0  0  0  0
    0.9945    0.5705   -1.4165 H   0  0  0  0  0  0  0  0  0  0  0  0
    0.8191    0.1250    1.2600 H   0  0  0  0  0  0  0  0  0  0  0  0
    0.6192   -1.5317    0.8046 H   0  0  0  0  0  0  0  0  0  0  0  0
    0.5732    1.8210    0.4899 H   0  0  0  0  0  0  0  0  0  0  0  0
   -0.0385    4.2092    0.4555 H   0  0  0  0  0  0  0  0  0  0  0  0
   -2.3685    4.9315    0.2080 H   0  0  0  0  0  0  0  0  0  0  0  0
   -4.0899    3.1618   -0.0128 H   0  0  0  0  0  0  0  0  0  0  0  0
   -5.1873   -2.2395   -0.2679 H   0  0  0  0  0  0  0  0  0  0  0  0
   -4.2419   -4.4647   -0.2570 H   0  0  0  0  0  0  0  0  0  0  0  0
   -0.3640   -2.8858    0.2386 H   0  0  0  0  0  0  0  0  0  0  0  0
  1  2  1  0
  2  3  1  0
  2  4  1  0
  4  5  1  0
  5  6  1  0
  6  7  1  0
  7  8  1  0
  8  9  2  0
  9 10  1  0
 10 11  2  0
 11 12  1  0
 12 13  2  0
 13 14  1  0
 14 15  1  0
 15 16  2  0
 16 17  1  0
 17 18  2  0
 18 19  1  0
 18 20  1  0
 20 21  2  0
 21  7  1  0
 13  8  1  0
 21 15  1  0
  1 22  1  0
  1 23  1  0
  1 24  1  0
  3 25  1  0
  3 26  1  0
  3 27  1  0
  4 28  1  0
  4 29  1  0
  5 30  1  0
  5 31  1  0
  6 32  1  0
  6 33  1  0
  9 34  1  0
 10 35  1  0
 11 36  1  0
 12 37  1  0
 16 38  1  0
 17 39  1  0
 20 40  1  0
M  END
$$$$
