
     RDKit          3D

 46 47  0  0  0  0  0  0  0  0999 V2000
    5.7599    1.4529   -0.2903 C   0  0  0  0  0  0  0  0  0  0  0  0
    5.5198    0.0900   -0.1229 O   0  0  0  0  0  0  0  0  0  0  0  0
    4.1917   -0.3798   -0.1861 C   0  0  0  0  0  0  0  0  0  0  0  0
    3.9661   -1.7235   -0.0190 C   0  0  0  0  0  0  0  0  0  0  0  0
    2.6699   -2.1626   -0.0837 C   0  0  0  0  0  0  0  0  0  0  0  0
    2.4960   -3.5476    0.0886 O   0  0  0  0  0  0  0  0  0  0  0  0
    1.5767   -1.3118   -0.3085 C   0  0  0  0  0  0  0  0  0  0  0  0
    1.8258    0.0466   -0.4744 C   0  0  0  0  0  0  0  0  0  0  0  0
    3.1667    0.4943   -0.4090 C   0  0  0  0  0  0  0  0  0  0  0  0
    0.8374    1.0659   -0.7600 C   0  0  0  0  0  0  0  0  0  0  0  0
   -0.1234    1.6313   -0.0795 C   0  0  0  0  0  0  0  0  0  0  0  0
   -0.6215    1.4935    1.2713 C   0  0  0  0  0  0  0  0  0  0  0  0
   -1.6926    2.5348    1.5492 C   0  0  0  0  0  0  0  0  0  0  0  0
   -2.9964    2.3146    0.8809 C   0  0  0  0  0  0  0  0  0  0  0  0
   -3.0391    2.1554   -0.5565 C   0  0  0  0  0  0  0  0  0  0  0  0
   -3.0100    3.2892   -1.2244 O   0  0  0  0  0  0  0  0  0  0  0  0
   -3.1042    1.0052   -1.4120 C   0  0  0  0  0  0  0  0  0  0  0  0
   -3.1912   -0.2730   -1.1870 C   0  0  0  0  0  0  0  0  0  0  0  0
   -3.2619   -1.0496    0.0466 C   0  0  0  0  0  0  0  0  0  0  0  0
   -2.1537   -2.0599    0.2260 C   0  0  2  0  0  0  0  0  0  0  0  0
   -2.4347   -2.8114    1.5667 C   0  0  0  0  0  0  0  0  0  0  0  0
   -0.8818   -1.5614    0.2339 O   0  0  0  0  0  0  0  0  0  0  0  0
    0.2656   -1.9366   -0.3878 C   0  0  0  0  0  0  0  0  0  0  0  0
    0.1871   -2.9733   -1.1402 O   0  0  0  0  0  0  0  0  0  0  0  0
    6.8468    1.6317   -0.1660 H   0  0  0  0  0  0  0  0  0  0  0  0
    5.3919    1.7754   -1.2978 H   0  0  0  0  0  0  0  0  0  0  0  0
    5.1908    2.0460    0.4726 H   0  0  0  0  0  0  0  0  0  0  0  0
    4.8010   -2.4253    0.1620 H   0  0  0  0  0  0  0  0  0  0  0  0
    3.0822   -4.2084   -0.4330 H   0  0  0  0  0  0  0  0  0  0  0  0
    3.4229    1.5520   -0.5662 H   0  0  0  0  0  0  0  0  0  0  0  0
    0.9794    1.5125   -1.8207 H   0  0  0  0  0  0  0  0  0  0  0  0
   -0.6678    2.4137   -0.6929 H   0  0  0  0  0  0  0  0  0  0  0  0
    0.1842    1.6115    2.0528 H   0  0  0  0  0  0  0  0  0  0  0  0
   -1.0957    0.5344    1.5278 H   0  0  0  0  0  0  0  0  0  0  0  0
   -1.8899    2.6344    2.6406 H   0  0  0  0  0  0  0  0  0  0  0  0
   -1.3160    3.5563    1.2406 H   0  0  0  0  0  0  0  0  0  0  0  0
   -3.6736    1.6310    1.4761 H   0  0  0  0  0  0  0  0  0  0  0  0
   -3.5411    3.3522    1.0617 H   0  0  0  0  0  0  0  0  0  0  0  0
   -3.0741    1.2373   -2.5522 H   0  0  0  0  0  0  0  0  0  0  0  0
   -3.2181   -0.9203   -2.1382 H   0  0  0  0  0  0  0  0  0  0  0  0
   -3.2520   -0.3668    0.9155 H   0  0  0  0  0  0  0  0  0  0  0  0
   -4.2645   -1.5672    0.0714 H   0  0  0  0  0  0  0  0  0  0  0  0
   -2.2652   -2.8631   -0.5100 H   0  0  0  0  0  0  0  0  0  0  0  0
   -3.5296   -2.7462    1.7155 H   0  0  0  0  0  0  0  0  0  0  0  0
   -2.1203   -3.8556    1.4925 H   0  0  0  0  0  0  0  0  0  0  0  0
   -1.9432   -2.3183    2.4007 H   0  0  0  0  0  0  0  0  0  0  0  0
  1  2  1  0
  2  3  1  0
  3  4  2  0
  4  5  1  0
  5  6  1  0
  5  7  2  0
  7  8  1  0
  8  9  2  0
  8 10  1  0
 10 11  2  0
 11 12  1  0
 12 13  1  0
 13 14  1  0
 14 15  1  0
 15 16  2  0
 15 17  1  0
 17 18  2  0
 18 19  1  0
 19 20  1  0
 20 21  1  0
 20 22  1  0
 22 23  1  0
 23 24  2  0
  9  3  1  0
 23  7  1  0
  1 25  1  0
  1 26  1  0
  1 27  1  0
  4 28  1  0
  6 29  1  0
  9 30  1  0
 10 31  1  0
 11 32  1  0
 12 33  1  0
 12 34  1  0
 13 35  1  0
 13 36  1  0
 14 37  1  0
 14 38  1  0
 17 39  1  0
 18 40  1  0
 19 41  1  0
 19 42  1  0
 20 43  1  6
 21 44  1  0
 21 45  1  0
 21 46  1  0
M  END
$$$$
