@<TRIPOS>MOLECULE
*****
 46 47 0 0 0
SMALL
GASTEIGER

@<TRIPOS>ATOM
      1 C           5.7599    1.4529   -0.2903 C.3     1  UNL1        0.0788
      2 O           5.5198    0.0900   -0.1229 O.3     1  UNL1       -0.4950
      3 C           4.1917   -0.3798   -0.1861 C.ar    1  UNL1        0.1242
      4 C           3.9661   -1.7235   -0.0190 C.ar    1  UNL1        0.0224
      5 C           2.6699   -2.1626   -0.0837 C.ar    1  UNL1        0.1349
      6 O           2.4960   -3.5476    0.0886 O.3     1  UNL1       -0.5058
      7 C           1.5767   -1.3118   -0.3085 C.ar    1  UNL1        0.1076
      8 C           1.8258    0.0466   -0.4744 C.ar    1  UNL1       -0.0043
      9 C           3.1667    0.4943   -0.4090 C.ar    1  UNL1       -0.0118
     10 C           0.8374    1.0659   -0.7600 C.2     1  UNL1       -0.0575
     11 C          -0.1234    1.6313   -0.0795 C.2     1  UNL1       -0.0834
     12 C          -0.6215    1.4935    1.2713 C.3     1  UNL1       -0.0341
     13 C          -1.6926    2.5348    1.5492 C.3     1  UNL1       -0.0426
     14 C          -2.9964    2.3146    0.8809 C.3     1  UNL1        0.0101
     15 C          -3.0391    2.1554   -0.5565 C.2     1  UNL1        0.1558
     16 O          -3.0100    3.2892   -1.2244 O.2     1  UNL1       -0.2927
     17 C          -3.1042    1.0052   -1.4120 C.2     1  UNL1       -0.0230
     18 C          -3.1912   -0.2730   -1.1870 C.2     1  UNL1       -0.0773
     19 C          -3.2619   -1.0496    0.0466 C.3     1  UNL1        0.0027
     20 C          -2.1537   -2.0599    0.2260 C.3     1  UNL1        0.1040
     21 C          -2.4347   -2.8114    1.5667 C.3     1  UNL1       -0.0274
     22 O          -0.8818   -1.5614    0.2339 O.3     1  UNL1       -0.4577
     23 C           0.2656   -1.9366   -0.3878 C.2     1  UNL1        0.3436
     24 O           0.1871   -2.9733   -1.1402 O.2     1  UNL1       -0.2448
     25 H           6.8468    1.6317   -0.1660 H       1  UNL1        0.0660
     26 H           5.3919    1.7754   -1.2978 H       1  UNL1        0.0660
     27 H           5.1908    2.0460    0.4726 H       1  UNL1        0.0660
     28 H           4.8010   -2.4253    0.1620 H       1  UNL1        0.0691
     29 H           3.0822   -4.2084   -0.4330 H       1  UNL1        0.2922
     30 H           3.4229    1.5520   -0.5662 H       1  UNL1        0.0660
     31 H           0.9794    1.5125   -1.8207 H       1  UNL1        0.0621
     32 H          -0.6678    2.4137   -0.6929 H       1  UNL1        0.0572
     33 H           0.1842    1.6115    2.0528 H       1  UNL1        0.0308
     34 H          -1.0957    0.5344    1.5278 H       1  UNL1        0.0308
     35 H          -1.8899    2.6344    2.6406 H       1  UNL1        0.0272
     36 H          -1.3160    3.5563    1.2406 H       1  UNL1        0.0272
     37 H          -3.6736    1.6310    1.4761 H       1  UNL1        0.0345
     38 H          -3.5411    3.3522    1.0617 H       1  UNL1        0.0345
     39 H          -3.0741    1.2373   -2.5522 H       1  UNL1        0.0649
     40 H          -3.2181   -0.9203   -2.1382 H       1  UNL1        0.0574
     41 H          -3.2520   -0.3668    0.9155 H       1  UNL1        0.0343
     42 H          -4.2645   -1.5672    0.0714 H       1  UNL1        0.0343
     43 H          -2.2652   -2.8631   -0.5100 H       1  UNL1        0.0734
     44 H          -3.5296   -2.7462    1.7155 H       1  UNL1        0.0265
     45 H          -2.1203   -3.8556    1.4925 H       1  UNL1        0.0265
     46 H          -1.9432   -2.3183    2.4007 H       1  UNL1        0.0265
@<TRIPOS>BOND
     1     1     2    1
     2     2     3    1
     3     3     4   ar
     4     4     5   ar
     5     5     6    1
     6     5     7   ar
     7     7     8   ar
     8     8     9   ar
     9     8    10    1
    10    10    11    2
    11    11    12    1
    12    12    13    1
    13    13    14    1
    14    14    15    1
    15    15    16    2
    16    15    17    1
    17    17    18    2
    18    18    19    1
    19    19    20    1
    20    20    21    1
    21    20    22    1
    22    22    23    1
    23    23    24    2
    24     9     3   ar
    25    23     7    1
    26     1    25    1
    27     1    26    1
    28     1    27    1
    29     4    28    1
    30     6    29    1
    31     9    30    1
    32    10    31    1
    33    11    32    1
    34    12    33    1
    35    12    34    1
    36    13    35    1
    37    13    36    1
    38    14    37    1
    39    14    38    1
    40    17    39    1
    41    18    40    1
    42    19    41    1
    43    19    42    1
    44    20    43    1
    45    21    44    1
    46    21    45    1
    47    21    46    1
