@<TRIPOS>MOLECULE
*****
 43 46 0 0 0
SMALL
GASTEIGER

@<TRIPOS>ATOM
      1 C          -6.5317    2.2250    0.6593 C.ar    1  UNL1       -0.0597
      2 C          -7.6068    1.5499    0.1819 C.ar    1  UNL1       -0.0606
      3 C          -7.3517    0.2549   -0.3071 C.ar    1  UNL1       -0.0458
      4 C          -6.0777   -0.2385   -0.2767 C.ar    1  UNL1        0.0425
      5 S          -5.3038   -1.7946   -0.7783 S.2     1  UNL1       -0.0290
      6 C          -3.5534   -1.2454   -0.2286 C.ar    1  UNL1        0.2627
      7 O          -2.5579   -2.1733   -0.4294 O.3     1  UNL1       -0.4326
      8 C          -1.2655   -1.8798   -0.0699 C.ar    1  UNL1        0.1309
      9 C          -0.8576   -0.6913    0.4975 C.ar    1  UNL1       -0.0190
     10 C           0.4802   -0.4616    0.8389 C.ar    1  UNL1       -0.0539
     11 C           1.4170   -1.4399    0.6061 C.ar    1  UNL1       -0.0331
     12 C           2.8286   -1.1586    0.9820 C.3     1  UNL1        0.0240
     13 N           3.5596   -0.5539   -0.1153 N.3     1  UNL1       -0.2982
     14 C           2.9487    0.6805   -0.4881 C.3     1  UNL1       -0.0008
     15 C           3.7301    1.3703   -1.5878 C.3     1  UNL1       -0.0402
     16 C           5.1292    1.6548   -1.1525 C.3     1  UNL1       -0.0507
     17 C           5.5754    0.8511    0.0288 C.3     1  UNL1       -0.0402
     18 C           4.9591   -0.4995    0.1297 C.3     1  UNL1       -0.0008
     19 C           1.0130   -2.6175    0.0439 C.ar    1  UNL1       -0.0539
     20 C          -0.2886   -2.8609   -0.2965 C.ar    1  UNL1       -0.0190
     21 N          -3.8418   -0.1757    0.1610 N.ar    1  UNL1       -0.2057
     22 C          -4.9664    0.4505    0.2131 C.ar    1  UNL1        0.0820
     23 C          -5.2698    1.7279    0.6859 C.ar    1  UNL1       -0.0351
     24 H          -6.7290    3.2418    1.0438 H       1  UNL1        0.0618
     25 H          -8.6158    1.8735    0.1300 H       1  UNL1        0.0618
     26 H          -8.1438   -0.3538   -0.7049 H       1  UNL1        0.0629
     27 H          -1.5870    0.0930    0.6881 H       1  UNL1        0.0654
     28 H           0.7518    0.4867    1.2821 H       1  UNL1        0.0622
     29 H           3.3391   -2.0891    1.3277 H       1  UNL1        0.0476
     30 H           2.8037   -0.4945    1.8727 H       1  UNL1        0.0476
     31 H           1.9444    0.4682   -0.9086 H       1  UNL1        0.0427
     32 H           2.8124    1.3317    0.3948 H       1  UNL1        0.0427
     33 H           3.1572    2.2795   -1.8776 H       1  UNL1        0.0278
     34 H           3.6852    0.6873   -2.4809 H       1  UNL1        0.0278
     35 H           5.7949    1.5489   -2.0314 H       1  UNL1        0.0266
     36 H           5.1794    2.7352   -0.8472 H       1  UNL1        0.0266
     37 H           5.4719    1.4096    0.9827 H       1  UNL1        0.0278
     38 H           6.6886    0.6981   -0.0911 H       1  UNL1        0.0278
     39 H           5.1334   -0.8692    1.1822 H       1  UNL1        0.0427
     40 H           5.4709   -1.2417   -0.5241 H       1  UNL1        0.0427
     41 H           1.7810   -3.3708   -0.1267 H       1  UNL1        0.0622
     42 H          -0.6097   -3.7948   -0.7424 H       1  UNL1        0.0654
     43 H          -4.4966    2.3860    1.1007 H       1  UNL1        0.0639
@<TRIPOS>BOND
     1     1     2   ar
     2     2     3   ar
     3     3     4   ar
     4     4     5   ar
     5     5     6   ar
     6     6     7    1
     7     7     8    1
     8     8     9   ar
     9     9    10   ar
    10    10    11   ar
    11    11    12    1
    12    12    13    1
    13    13    14    1
    14    14    15    1
    15    15    16    1
    16    16    17    1
    17    17    18    1
    18    11    19   ar
    19    19    20   ar
    20     6    21   ar
    21    21    22   ar
    22    22    23   ar
    23    23     1   ar
    24    22     4   ar
    25    20     8   ar
    26    18    13    1
    27     1    24    1
    28     2    25    1
    29     3    26    1
    30     9    27    1
    31    10    28    1
    32    12    29    1
    33    12    30    1
    34    14    31    1
    35    14    32    1
    36    15    33    1
    37    15    34    1
    38    16    35    1
    39    16    36    1
    40    17    37    1
    41    17    38    1
    42    18    39    1
    43    18    40    1
    44    19    41    1
    45    20    42    1
    46    23    43    1
