
     RDKit          3D

 43 46  0  0  0  0  0  0  0  0999 V2000
   -6.5317    2.2250    0.6593 C   0  0  0  0  0  0  0  0  0  0  0  0
   -7.6068    1.5499    0.1819 C   0  0  0  0  0  0  0  0  0  0  0  0
   -7.3517    0.2549   -0.3071 C   0  0  0  0  0  0  0  0  0  0  0  0
   -6.0777   -0.2385   -0.2767 C   0  0  0  0  0  0  0  0  0  0  0  0
   -5.3038   -1.7946   -0.7783 S   0  0  0  0  0  0  0  0  0  0  0  0
   -3.5534   -1.2454   -0.2286 C   0  0  0  0  0  0  0  0  0  0  0  0
   -2.5579   -2.1733   -0.4294 O   0  0  0  0  0  0  0  0  0  0  0  0
   -1.2655   -1.8798   -0.0699 C   0  0  0  0  0  0  0  0  0  0  0  0
   -0.8576   -0.6913    0.4975 C   0  0  0  0  0  0  0  0  0  0  0  0
    0.4802   -0.4616    0.8389 C   0  0  0  0  0  0  0  0  0  0  0  0
    1.4170   -1.4399    0.6061 C   0  0  0  0  0  0  0  0  0  0  0  0
    2.8286   -1.1586    0.9820 C   0  0  0  0  0  0  0  0  0  0  0  0
    3.5596   -0.5539   -0.1153 N   0  0  0  0  0  0  0  0  0  0  0  0
    2.9487    0.6805   -0.4881 C   0  0  0  0  0  0  0  0  0  0  0  0
    3.7301    1.3703   -1.5878 C   0  0  0  0  0  0  0  0  0  0  0  0
    5.1292    1.6548   -1.1525 C   0  0  0  0  0  0  0  0  0  0  0  0
    5.5754    0.8511    0.0288 C   0  0  0  0  0  0  0  0  0  0  0  0
    4.9591   -0.4995    0.1297 C   0  0  0  0  0  0  0  0  0  0  0  0
    1.0130   -2.6175    0.0439 C   0  0  0  0  0  0  0  0  0  0  0  0
   -0.2886   -2.8609   -0.2965 C   0  0  0  0  0  0  0  0  0  0  0  0
   -3.8418   -0.1757    0.1610 N   0  0  0  0  0  0  0  0  0  0  0  0
   -4.9664    0.4505    0.2131 C   0  0  0  0  0  0  0  0  0  0  0  0
   -5.2698    1.7279    0.6859 C   0  0  0  0  0  0  0  0  0  0  0  0
   -6.7290    3.2418    1.0438 H   0  0  0  0  0  0  0  0  0  0  0  0
   -8.6158    1.8735    0.1300 H   0  0  0  0  0  0  0  0  0  0  0  0
   -8.1438   -0.3538   -0.7049 H   0  0  0  0  0  0  0  0  0  0  0  0
   -1.5870    0.0930    0.6881 H   0  0  0  0  0  0  0  0  0  0  0  0
    0.7518    0.4867    1.2821 H   0  0  0  0  0  0  0  0  0  0  0  0
    3.3391   -2.0891    1.3277 H   0  0  0  0  0  0  0  0  0  0  0  0
    2.8037   -0.4945    1.8727 H   0  0  0  0  0  0  0  0  0  0  0  0
    1.9444    0.4682   -0.9086 H   0  0  0  0  0  0  0  0  0  0  0  0
    2.8124    1.3317    0.3948 H   0  0  0  0  0  0  0  0  0  0  0  0
    3.1572    2.2795   -1.8776 H   0  0  0  0  0  0  0  0  0  0  0  0
    3.6852    0.6873   -2.4809 H   0  0  0  0  0  0  0  0  0  0  0  0
    5.7949    1.5489   -2.0314 H   0  0  0  0  0  0  0  0  0  0  0  0
    5.1794    2.7352   -0.8472 H   0  0  0  0  0  0  0  0  0  0  0  0
    5.4719    1.4096    0.9827 H   0  0  0  0  0  0  0  0  0  0  0  0
    6.6886    0.6981   -0.0911 H   0  0  0  0  0  0  0  0  0  0  0  0
    5.1334   -0.8692    1.1822 H   0  0  0  0  0  0  0  0  0  0  0  0
    5.4709   -1.2417   -0.5241 H   0  0  0  0  0  0  0  0  0  0  0  0
    1.7810   -3.3708   -0.1267 H   0  0  0  0  0  0  0  0  0  0  0  0
   -0.6097   -3.7948   -0.7424 H   0  0  0  0  0  0  0  0  0  0  0  0
   -4.4966    2.3860    1.1007 H   0  0  0  0  0  0  0  0  0  0  0  0
  1  2  2  0
  2  3  1  0
  3  4  2  0
  4  5  1  0
  5  6  1  0
  6  7  1  0
  7  8  1  0
  8  9  2  0
  9 10  1  0
 10 11  2  0
 11 12  1  0
 12 13  1  0
 13 14  1  0
 14 15  1  0
 15 16  1  0
 16 17  1  0
 17 18  1  0
 11 19  1  0
 19 20  2  0
  6 21  2  0
 21 22  1  0
 22 23  2  0
 23  1  1  0
 22  4  1  0
 20  8  1  0
 18 13  1  0
  1 24  1  0
  2 25  1  0
  3 26  1  0
  9 27  1  0
 10 28  1  0
 12 29  1  0
 12 30  1  0
 14 31  1  0
 14 32  1  0
 15 33  1  0
 15 34  1  0
 16 35  1  0
 16 36  1  0
 17 37  1  0
 17 38  1  0
 18 39  1  0
 18 40  1  0
 19 41  1  0
 20 42  1  0
 23 43  1  0
M  END
$$$$
