@<TRIPOS>MOLECULE
*****
 65 68 0 0 0
SMALL
GASTEIGER

@<TRIPOS>ATOM
      1 C          -8.5040    4.1124    1.0413 C.3     1  UNL1        0.0804
      2 O          -8.6363    3.0698    0.0870 O.3     1  UNL1       -0.4796
      3 C          -7.7499    2.0098    0.0778 C.ar    1  UNL1        0.2144
      4 C          -7.9385    1.0351   -0.8756 C.ar    1  UNL1        0.0003
      5 C          -7.0655   -0.0506   -0.9178 C.ar    1  UNL1       -0.0494
      6 C          -6.0194   -0.1688   -0.0271 C.ar    1  UNL1        0.0022
      7 C          -5.1436   -1.3385   -0.1334 C.3     1  UNL1        0.0924
      8 O          -5.9430   -2.4753    0.1266 O.3     1  UNL1       -0.3839
      9 C          -4.0412   -1.3556    0.8898 C.3     1  UNL1       -0.0184
     10 C          -2.9787   -2.3218    0.3494 C.3     1  UNL1       -0.0344
     11 C          -2.2067   -1.5741   -0.6928 C.3     1  UNL1        0.0107
     12 N          -1.4064   -0.5027   -0.1448 N.3     1  UNL1       -0.2958
     13 C          -0.4116   -0.8643    0.8094 C.3     1  UNL1        0.0189
     14 C           0.6653   -0.1192    0.0325 C.3     1  UNL1        0.0486
     15 N           1.7760   -0.9300   -0.3825 N.am    1  UNL1       -0.3087
     16 C           3.0999   -0.4622   -0.2342 C.2     1  UNL1        0.2305
     17 O           3.3589    0.6479    0.2514 O.2     1  UNL1       -0.2741
     18 C           4.2090   -1.3401   -0.6793 C.3     1  UNL1        0.0884
     19 N           5.5055   -0.7229   -0.4625 N.am    1  UNL1       -0.3028
     20 C           5.9180   -0.3589    0.8319 C.2     1  UNL1        0.2445
     21 O           5.1060   -0.5977    1.7785 O.2     1  UNL1       -0.2702
     22 C           7.1958    0.2612    1.1309 C.ar    1  UNL1        0.0372
     23 C           7.5252    0.5883    2.4289 C.ar    1  UNL1       -0.0496
     24 C           8.7436    1.1841    2.7476 C.ar    1  UNL1       -0.0605
     25 C           9.6171    1.4409    1.7310 C.ar    1  UNL1       -0.0501
     26 C           9.3412    1.1369    0.4238 C.ar    1  UNL1        0.0555
     27 C          10.3273    1.4378   -0.6429 C.3     1  UNL1        0.4174
     28 F          11.5709    1.0699   -0.1737 F       1  UNL1       -0.1659
     29 F          10.0325    0.8186   -1.8224 F       1  UNL1       -0.1659
     30 F          10.3371    2.8268   -0.8006 F       1  UNL1       -0.1659
     31 C           8.1081    0.5397    0.1445 C.ar    1  UNL1       -0.0380
     32 C          -0.3818   -0.0427   -1.0643 C.3     1  UNL1        0.0189
     33 C          -3.1899   -0.9520   -1.6576 C.3     1  UNL1       -0.0344
     34 C          -4.5770   -1.5264   -1.5159 C.3     1  UNL1       -0.0184
     35 C          -5.8766    0.8379    0.9086 C.ar    1  UNL1        0.0373
     36 N          -6.7269    1.8764    0.9346 N.ar    1  UNL1       -0.2210
     37 H          -9.4080    4.7412    1.0416 H       1  UNL1        0.0660
     38 H          -7.6054    4.7067    0.7333 H       1  UNL1        0.0660
     39 H          -8.2582    3.6760    2.0221 H       1  UNL1        0.0660
     40 H          -8.7699    1.1258   -1.5860 H       1  UNL1        0.0671
     41 H          -7.2618   -0.7848   -1.6869 H       1  UNL1        0.0623
     42 H          -5.6512   -3.2422   -0.4273 H       1  UNL1        0.2106
     43 H          -4.3716   -1.6394    1.8912 H       1  UNL1        0.0297
     44 H          -3.5187   -0.3738    0.9717 H       1  UNL1        0.0297
     45 H          -2.3621   -2.7298    1.1670 H       1  UNL1        0.0281
     46 H          -3.4909   -3.1656   -0.1479 H       1  UNL1        0.0281
     47 H          -1.5835   -2.2928   -1.2595 H       1  UNL1        0.0462
     48 H          -0.6194   -0.4213    1.8039 H       1  UNL1        0.0445
     49 H          -0.1554   -1.9157    0.9158 H       1  UNL1        0.0445
     50 H           0.9155    0.8543    0.4583 H       1  UNL1        0.0523
     51 H           1.6174   -1.8657   -0.7947 H       1  UNL1        0.1491
     52 H           4.0582   -1.5474   -1.7589 H       1  UNL1        0.0558
     53 H           4.1674   -2.3461   -0.1772 H       1  UNL1        0.0558
     54 H           6.1305   -0.5514   -1.2804 H       1  UNL1        0.1495
     55 H           6.8480    0.3909    3.2294 H       1  UNL1        0.0625
     56 H           9.0065    1.4428    3.7662 H       1  UNL1        0.0618
     57 H          10.5734    1.9101    1.9917 H       1  UNL1        0.0623
     58 H           7.9295    0.3175   -0.8866 H       1  UNL1        0.0631
     59 H          -0.5558    1.0068   -1.3676 H       1  UNL1        0.0445
     60 H          -0.2044   -0.7157   -1.9278 H       1  UNL1        0.0445
     61 H          -2.8722   -1.1394   -2.7073 H       1  UNL1        0.0281
     62 H          -3.2673    0.1464   -1.5379 H       1  UNL1        0.0281
     63 H          -4.6205   -2.5946   -1.8556 H       1  UNL1        0.0297
     64 H          -5.2304   -0.9645   -2.2138 H       1  UNL1        0.0297
     65 H          -5.0800    0.7820    1.6140 H       1  UNL1        0.0834
@<TRIPOS>BOND
     1     1     2    1
     2     2     3    1
     3     3     4   ar
     4     4     5   ar
     5     5     6   ar
     6     6     7    1
     7     7     8    1
     8     7     9    1
     9     9    10    1
    10    10    11    1
    11    11    12    1
    12    12    13    1
    13    13    14    1
    14    14    15    1
    15    15    16   am
    16    16    17    2
    17    16    18    1
    18    18    19    1
    19    19    20   am
    20    20    21    2
    21    20    22    1
    22    22    23   ar
    23    23    24   ar
    24    24    25   ar
    25    25    26   ar
    26    26    27    1
    27    27    28    1
    28    27    29    1
    29    27    30    1
    30    26    31   ar
    31    14    32    1
    32    11    33    1
    33    33    34    1
    34     6    35   ar
    35    35    36   ar
    36    36     3   ar
    37    34     7    1
    38    32    12    1
    39    31    22   ar
    40     1    37    1
    41     1    38    1
    42     1    39    1
    43     4    40    1
    44     5    41    1
    45     8    42    1
    46     9    43    1
    47     9    44    1
    48    10    45    1
    49    10    46    1
    50    11    47    1
    51    13    48    1
    52    13    49    1
    53    14    50    1
    54    15    51    1
    55    18    52    1
    56    18    53    1
    57    19    54    1
    58    23    55    1
    59    24    56    1
    60    25    57    1
    61    31    58    1
    62    32    59    1
    63    32    60    1
    64    33    61    1
    65    33    62    1
    66    34    63    1
    67    34    64    1
    68    35    65    1
