
     RDKit          3D

 65 68  0  0  0  0  0  0  0  0999 V2000
   -8.5040    4.1124    1.0413 C   0  0  0  0  0  0  0  0  0  0  0  0
   -8.6363    3.0698    0.0870 O   0  0  0  0  0  0  0  0  0  0  0  0
   -7.7499    2.0098    0.0778 C   0  0  0  0  0  0  0  0  0  0  0  0
   -7.9385    1.0351   -0.8756 C   0  0  0  0  0  0  0  0  0  0  0  0
   -7.0655   -0.0506   -0.9178 C   0  0  0  0  0  0  0  0  0  0  0  0
   -6.0194   -0.1688   -0.0271 C   0  0  0  0  0  0  0  0  0  0  0  0
   -5.1436   -1.3385   -0.1334 C   0  0  2  0  0  0  0  0  0  0  0  0
   -5.9430   -2.4753    0.1266 O   0  0  0  0  0  0  0  0  0  0  0  0
   -4.0412   -1.3556    0.8898 C   0  0  0  0  0  0  0  0  0  0  0  0
   -2.9787   -2.3218    0.3494 C   0  0  0  0  0  0  0  0  0  0  0  0
   -2.2067   -1.5741   -0.6928 C   0  0  2  0  0  0  0  0  0  0  0  0
   -1.4064   -0.5027   -0.1448 N   0  0  0  0  0  0  0  0  0  0  0  0
   -0.4116   -0.8643    0.8094 C   0  0  0  0  0  0  0  0  0  0  0  0
    0.6653   -0.1192    0.0325 C   0  0  0  0  0  0  0  0  0  0  0  0
    1.7760   -0.9300   -0.3825 N   0  0  0  0  0  0  0  0  0  0  0  0
    3.0999   -0.4622   -0.2342 C   0  0  0  0  0  0  0  0  0  0  0  0
    3.3589    0.6479    0.2514 O   0  0  0  0  0  0  0  0  0  0  0  0
    4.2090   -1.3401   -0.6793 C   0  0  0  0  0  0  0  0  0  0  0  0
    5.5055   -0.7229   -0.4625 N   0  0  0  0  0  0  0  0  0  0  0  0
    5.9180   -0.3589    0.8319 C   0  0  0  0  0  0  0  0  0  0  0  0
    5.1060   -0.5977    1.7785 O   0  0  0  0  0  0  0  0  0  0  0  0
    7.1958    0.2612    1.1309 C   0  0  0  0  0  0  0  0  0  0  0  0
    7.5252    0.5883    2.4289 C   0  0  0  0  0  0  0  0  0  0  0  0
    8.7436    1.1841    2.7476 C   0  0  0  0  0  0  0  0  0  0  0  0
    9.6171    1.4409    1.7310 C   0  0  0  0  0  0  0  0  0  0  0  0
    9.3412    1.1369    0.4238 C   0  0  0  0  0  0  0  0  0  0  0  0
   10.3273    1.4378   -0.6429 C   0  0  0  0  0  0  0  0  0  0  0  0
   11.5709    1.0699   -0.1737 F   0  0  0  0  0  0  0  0  0  0  0  0
   10.0325    0.8186   -1.8224 F   0  0  0  0  0  0  0  0  0  0  0  0
   10.3371    2.8268   -0.8006 F   0  0  0  0  0  0  0  0  0  0  0  0
    8.1081    0.5397    0.1445 C   0  0  0  0  0  0  0  0  0  0  0  0
   -0.3818   -0.0427   -1.0643 C   0  0  0  0  0  0  0  0  0  0  0  0
   -3.1899   -0.9520   -1.6576 C   0  0  0  0  0  0  0  0  0  0  0  0
   -4.5770   -1.5264   -1.5159 C   0  0  0  0  0  0  0  0  0  0  0  0
   -5.8766    0.8379    0.9086 C   0  0  0  0  0  0  0  0  0  0  0  0
   -6.7269    1.8764    0.9346 N   0  0  0  0  0  0  0  0  0  0  0  0
   -9.4080    4.7412    1.0416 H   0  0  0  0  0  0  0  0  0  0  0  0
   -7.6054    4.7067    0.7333 H   0  0  0  0  0  0  0  0  0  0  0  0
   -8.2582    3.6760    2.0221 H   0  0  0  0  0  0  0  0  0  0  0  0
   -8.7699    1.1258   -1.5860 H   0  0  0  0  0  0  0  0  0  0  0  0
   -7.2618   -0.7848   -1.6869 H   0  0  0  0  0  0  0  0  0  0  0  0
   -5.6512   -3.2422   -0.4273 H   0  0  0  0  0  0  0  0  0  0  0  0
   -4.3716   -1.6394    1.8912 H   0  0  0  0  0  0  0  0  0  0  0  0
   -3.5187   -0.3738    0.9717 H   0  0  0  0  0  0  0  0  0  0  0  0
   -2.3621   -2.7298    1.1670 H   0  0  0  0  0  0  0  0  0  0  0  0
   -3.4909   -3.1656   -0.1479 H   0  0  0  0  0  0  0  0  0  0  0  0
   -1.5835   -2.2928   -1.2595 H   0  0  0  0  0  0  0  0  0  0  0  0
   -0.6194   -0.4213    1.8039 H   0  0  0  0  0  0  0  0  0  0  0  0
   -0.1554   -1.9157    0.9158 H   0  0  0  0  0  0  0  0  0  0  0  0
    0.9155    0.8543    0.4583 H   0  0  0  0  0  0  0  0  0  0  0  0
    1.6174   -1.8657   -0.7947 H   0  0  0  0  0  0  0  0  0  0  0  0
    4.0582   -1.5474   -1.7589 H   0  0  0  0  0  0  0  0  0  0  0  0
    4.1674   -2.3461   -0.1772 H   0  0  0  0  0  0  0  0  0  0  0  0
    6.1305   -0.5514   -1.2804 H   0  0  0  0  0  0  0  0  0  0  0  0
    6.8480    0.3909    3.2294 H   0  0  0  0  0  0  0  0  0  0  0  0
    9.0065    1.4428    3.7662 H   0  0  0  0  0  0  0  0  0  0  0  0
   10.5734    1.9101    1.9917 H   0  0  0  0  0  0  0  0  0  0  0  0
    7.9295    0.3175   -0.8866 H   0  0  0  0  0  0  0  0  0  0  0  0
   -0.5558    1.0068   -1.3676 H   0  0  0  0  0  0  0  0  0  0  0  0
   -0.2044   -0.7157   -1.9278 H   0  0  0  0  0  0  0  0  0  0  0  0
   -2.8722   -1.1394   -2.7073 H   0  0  0  0  0  0  0  0  0  0  0  0
   -3.2673    0.1464   -1.5379 H   0  0  0  0  0  0  0  0  0  0  0  0
   -4.6205   -2.5946   -1.8556 H   0  0  0  0  0  0  0  0  0  0  0  0
   -5.2304   -0.9645   -2.2138 H   0  0  0  0  0  0  0  0  0  0  0  0
   -5.0800    0.7820    1.6140 H   0  0  0  0  0  0  0  0  0  0  0  0
  1  2  1  0
  2  3  1  0
  3  4  2  0
  4  5  1  0
  5  6  2  0
  6  7  1  0
  7  8  1  1
  7  9  1  0
  9 10  1  0
 10 11  1  0
 11 12  1  0
 12 13  1  0
 13 14  1  0
 14 15  1  0
 15 16  1  0
 16 17  2  0
 16 18  1  0
 18 19  1  0
 19 20  1  0
 20 21  2  0
 20 22  1  0
 22 23  2  0
 23 24  1  0
 24 25  2  0
 25 26  1  0
 26 27  1  0
 27 28  1  0
 27 29  1  0
 27 30  1  0
 26 31  2  0
 14 32  1  0
 11 33  1  0
 33 34  1  0
  6 35  1  0
 35 36  2  0
 36  3  1  0
 34  7  1  0
 32 12  1  0
 31 22  1  0
  1 37  1  0
  1 38  1  0
  1 39  1  0
  4 40  1  0
  5 41  1  0
  8 42  1  0
  9 43  1  0
  9 44  1  0
 10 45  1  0
 10 46  1  0
 11 47  1  6
 13 48  1  0
 13 49  1  0
 14 50  1  0
 15 51  1  0
 18 52  1  0
 18 53  1  0
 19 54  1  0
 23 55  1  0
 24 56  1  0
 25 57  1  0
 31 58  1  0
 32 59  1  0
 32 60  1  0
 33 61  1  0
 33 62  1  0
 34 63  1  0
 34 64  1  0
 35 65  1  0
M  END
$$$$
