
     RDKit          3D

 65 68  0  0  0  0  0  0  0  0999 V2000
    4.2433   -2.5001   -0.4880 C   0  0  0  0  0  0  0  0  0  0  0  0
    4.5009   -1.4856    0.5909 C   0  0  0  0  0  0  0  0  0  0  0  0
    3.6902   -0.3144    0.5531 N   0  0  0  0  0  4  0  0  0  0  0  0
    3.1823   -0.1016    1.9184 C   0  0  0  0  0  0  0  0  0  0  0  0
    4.5943    0.8333    0.3558 C   0  0  0  0  0  0  0  0  0  0  0  0
    5.4367    0.6760   -0.8740 C   0  0  0  0  0  0  0  0  0  0  0  0
    2.6576   -0.2759   -0.4209 C   0  0  0  0  0  0  0  0  0  0  0  0
    1.3262    0.2176    0.1286 C   0  0  0  0  0  0  0  0  0  0  0  0
    0.2792    0.2300   -0.9659 C   0  0  0  0  0  0  0  0  0  0  0  0
   -1.0072    0.6757   -0.5588 N   0  0  0  0  0  4  0  0  0  0  0  0
   -1.8565   -0.3121   -0.1458 C   0  0  0  0  0  0  0  0  0  0  0  0
   -1.5716   -1.7615   -0.0905 C   0  0  0  0  0  0  0  0  0  0  0  0
   -1.9190   -2.3298   -1.3221 C   0  0  0  0  0  0  0  0  0  0  0  0
   -1.7479   -3.7012   -1.5320 C   0  0  0  0  0  0  0  0  0  0  0  0
   -1.2375   -4.4814   -0.5210 C   0  0  0  0  0  0  0  0  0  0  0  0
   -0.9099   -3.8942    0.6661 C   0  0  0  0  0  0  0  0  0  0  0  0
   -1.0627   -2.5475    0.9136 C   0  0  0  0  0  0  0  0  0  0  0  0
   -3.1390    0.0108    0.2753 C   0  0  0  0  0  0  0  0  0  0  0  0
   -3.6045    1.3051    0.2969 C   0  0  0  0  0  0  0  0  0  0  0  0
   -4.8753    1.6233    0.7142 C   0  0  0  0  0  0  0  0  0  0  0  0
   -5.7467    0.6383    1.1345 C   0  0  0  0  0  0  0  0  0  0  0  0
   -5.3283   -0.6772    1.1321 C   0  0  0  0  0  0  0  0  0  0  0  0
   -6.2071   -1.7141    1.5608 N   0  0  0  0  0  0  0  0  0  0  0  0
   -4.0504   -0.9593    0.7082 C   0  0  0  0  0  0  0  0  0  0  0  0
   -2.7565    2.2804   -0.1139 C   0  0  0  0  0  0  0  0  0  0  0  0
   -1.5012    1.9218   -0.5212 C   0  0  0  0  0  0  0  0  0  0  0  0
   -0.6416    2.9169   -0.9325 C   0  0  0  0  0  0  0  0  0  0  0  0
   -0.9953    4.2469   -0.9497 C   0  0  0  0  0  0  0  0  0  0  0  0
   -0.1028    5.2947   -1.3786 N   0  0  0  0  0  0  0  0  0  0  0  0
   -2.2672    4.6147   -0.5381 C   0  0  0  0  0  0  0  0  0  0  0  0
   -3.1383    3.6013   -0.1203 C   0  0  0  0  0  0  0  0  0  0  0  0
    3.3195   -3.0748   -0.3477 H   0  0  0  0  0  0  0  0  0  0  0  0
    5.0667   -3.2637   -0.3592 H   0  0  0  0  0  0  0  0  0  0  0  0
    4.4072   -2.1209   -1.5182 H   0  0  0  0  0  0  0  0  0  0  0  0
    5.6080   -1.2729    0.5657 H   0  0  0  0  0  0  0  0  0  0  0  0
    4.3890   -2.0594    1.5566 H   0  0  0  0  0  0  0  0  0  0  0  0
    2.8454    0.9286    2.0878 H   0  0  0  0  0  0  0  0  0  0  0  0
    2.4864   -0.8909    2.2381 H   0  0  0  0  0  0  0  0  0  0  0  0
    4.0798   -0.2333    2.5812 H   0  0  0  0  0  0  0  0  0  0  0  0
    5.2422    1.0144    1.2194 H   0  0  0  0  0  0  0  0  0  0  0  0
    3.8903    1.7009    0.2137 H   0  0  0  0  0  0  0  0  0  0  0  0
    5.7235    1.7200   -1.1911 H   0  0  0  0  0  0  0  0  0  0  0  0
    6.3966    0.1608   -0.6528 H   0  0  0  0  0  0  0  0  0  0  0  0
    4.9427    0.2088   -1.7312 H   0  0  0  0  0  0  0  0  0  0  0  0
    2.5316   -1.2219   -0.9855 H   0  0  0  0  0  0  0  0  0  0  0  0
    2.9300    0.4608   -1.2293 H   0  0  0  0  0  0  0  0  0  0  0  0
    1.4016    1.1820    0.6198 H   0  0  0  0  0  0  0  0  0  0  0  0
    1.0006   -0.5264    0.8819 H   0  0  0  0  0  0  0  0  0  0  0  0
    0.2531   -0.8021   -1.4085 H   0  0  0  0  0  0  0  0  0  0  0  0
    0.6687    0.8912   -1.7572 H   0  0  0  0  0  0  0  0  0  0  0  0
   -2.3269   -1.8476   -2.2001 H   0  0  0  0  0  0  0  0  0  0  0  0
   -1.9894   -4.2147   -2.4468 H   0  0  0  0  0  0  0  0  0  0  0  0
   -1.0925   -5.5479   -0.6513 H   0  0  0  0  0  0  0  0  0  0  0  0
   -0.5012   -4.4498    1.5099 H   0  0  0  0  0  0  0  0  0  0  0  0
   -0.8500   -1.9671    1.7827 H   0  0  0  0  0  0  0  0  0  0  0  0
   -5.3096    2.6058    0.7593 H   0  0  0  0  0  0  0  0  0  0  0  0
   -6.7642    0.8201    1.4768 H   0  0  0  0  0  0  0  0  0  0  0  0
   -6.0216   -1.6568    2.5872 H   0  0  0  0  0  0  0  0  0  0  0  0
   -6.8630   -2.3700    1.0667 H   0  0  0  0  0  0  0  0  0  0  0  0
   -3.7517   -1.9983    0.7176 H   0  0  0  0  0  0  0  0  0  0  0  0
    0.3710    2.7548   -1.2685 H   0  0  0  0  0  0  0  0  0  0  0  0
   -0.5101    5.7729   -2.2144 H   0  0  0  0  0  0  0  0  0  0  0  0
    0.8195    5.6172   -1.0018 H   0  0  0  0  0  0  0  0  0  0  0  0
   -2.5464    5.6697   -0.5524 H   0  0  0  0  0  0  0  0  0  0  0  0
   -4.0908    3.9801    0.1770 H   0  0  0  0  0  0  0  0  0  0  0  0
  1  2  1  0
  2  3  1  0
  3  4  1  0
  3  5  1  0
  5  6  1  0
  3  7  1  0
  7  8  1  0
  8  9  1  0
  9 10  1  0
 10 11  2  0
 11 12  1  0
 12 13  2  0
 13 14  1  0
 14 15  2  0
 15 16  1  0
 16 17  2  0
 11 18  1  0
 18 19  2  0
 19 20  1  0
 20 21  2  0
 21 22  1  0
 22 23  1  0
 22 24  2  0
 19 25  1  0
 25 26  2  0
 26 27  1  0
 27 28  2  0
 28 29  1  0
 28 30  1  0
 30 31  2  0
 26 10  1  0
 17 12  1  0
 24 18  1  0
 31 25  1  0
  1 32  1  0
  1 33  1  0
  1 34  1  0
  2 35  1  0
  2 36  1  0
  4 37  1  0
  4 38  1  0
  4 39  1  0
  5 40  1  0
  5 41  1  0
  6 42  1  0
  6 43  1  0
  6 44  1  0
  7 45  1  0
  7 46  1  0
  8 47  1  0
  8 48  1  0
  9 49  1  0
  9 50  1  0
 13 51  1  0
 14 52  1  0
 15 53  1  0
 16 54  1  0
 17 55  1  0
 20 56  1  0
 21 57  1  0
 23 58  1  0
 23 59  1  0
 24 60  1  0
 27 61  1  0
 29 62  1  0
 29 63  1  0
 30 64  1  0
 31 65  1  0
M  CHG  2   3   1  10   1
M  END
$$$$
