@<TRIPOS>MOLECULE
*****
 65 68 0 0 0
SMALL
GASTEIGER

@<TRIPOS>ATOM
      1 C           4.2433   -2.5001   -0.4880 C.3     1  UNL1       -0.0244
      2 C           4.5009   -1.4856    0.5909 C.3     1  UNL1       -0.0332
      3 N           3.6902   -0.3144    0.5531 N.4     1  UNL1        0.2409
      4 C           3.1823   -0.1016    1.9184 C.3     1  UNL1       -0.0413
      5 C           4.5943    0.8333    0.3558 C.3     1  UNL1       -0.0332
      6 C           5.4367    0.6760   -0.8740 C.3     1  UNL1       -0.0244
      7 C           2.6576   -0.2759   -0.4209 C.3     1  UNL1       -0.0245
      8 C           1.3262    0.2176    0.1286 C.3     1  UNL1        0.0472
      9 C           0.2792    0.2300   -0.9659 C.3     1  UNL1        0.1565
     10 N          -1.0072    0.6757   -0.5588 N.ar    1  UNL1       -0.1896
     11 C          -1.8565   -0.3121   -0.1458 C.ar    1  UNL1        0.2232
     12 C          -1.5716   -1.7615   -0.0905 C.ar    1  UNL1        0.0469
     13 C          -1.9190   -2.3298   -1.3221 C.ar    1  UNL1       -0.0483
     14 C          -1.7479   -3.7012   -1.5320 C.ar    1  UNL1       -0.0610
     15 C          -1.2375   -4.4814   -0.5210 C.ar    1  UNL1       -0.0617
     16 C          -0.9099   -3.8942    0.6661 C.ar    1  UNL1       -0.0610
     17 C          -1.0627   -2.5475    0.9136 C.ar    1  UNL1       -0.0483
     18 C          -3.1390    0.0108    0.2753 C.ar    1  UNL1        0.0565
     19 C          -3.6045    1.3051    0.2969 C.ar    1  UNL1        0.0020
     20 C          -4.8753    1.6233    0.7142 C.ar    1  UNL1       -0.0513
     21 C          -5.7467    0.6383    1.1345 C.ar    1  UNL1       -0.0404
     22 C          -5.3283   -0.6772    1.1321 C.ar    1  UNL1        0.0253
     23 N          -6.2071   -1.7141    1.5608 N.pl3   1  UNL1       -0.3579
     24 C          -4.0504   -0.9593    0.7082 C.ar    1  UNL1       -0.0270
     25 C          -2.7565    2.2804   -0.1139 C.ar    1  UNL1        0.0542
     26 C          -1.5012    1.9218   -0.5212 C.ar    1  UNL1        0.2177
     27 C          -0.6416    2.9169   -0.9325 C.ar    1  UNL1        0.0310
     28 C          -0.9953    4.2469   -0.9497 C.ar    1  UNL1        0.0308
     29 N          -0.1028    5.2947   -1.3786 N.pl3   1  UNL1       -0.3578
     30 C          -2.2672    4.6147   -0.5381 C.ar    1  UNL1       -0.0401
     31 C          -3.1383    3.6013   -0.1203 C.ar    1  UNL1       -0.0460
     32 H           3.3195   -3.0748   -0.3477 H       1  UNL1        0.0281
     33 H           5.0667   -3.2637   -0.3592 H       1  UNL1        0.0281
     34 H           4.4072   -2.1209   -1.5182 H       1  UNL1        0.0281
     35 H           5.6080   -1.2729    0.5657 H       1  UNL1        0.0812
     36 H           4.3890   -2.0594    1.5566 H       1  UNL1        0.0812
     37 H           2.8454    0.9286    2.0878 H       1  UNL1        0.0778
     38 H           2.4864   -0.8909    2.2381 H       1  UNL1        0.0778
     39 H           4.0798   -0.2333    2.5812 H       1  UNL1        0.0778
     40 H           5.2422    1.0144    1.2194 H       1  UNL1        0.0812
     41 H           3.8903    1.7009    0.2137 H       1  UNL1        0.0812
     42 H           5.7235    1.7200   -1.1911 H       1  UNL1        0.0281
     43 H           6.3966    0.1608   -0.6528 H       1  UNL1        0.0281
     44 H           4.9427    0.2088   -1.7312 H       1  UNL1        0.0281
     45 H           2.5316   -1.2219   -0.9855 H       1  UNL1        0.0817
     46 H           2.9300    0.4608   -1.2293 H       1  UNL1        0.0817
     47 H           1.4016    1.1820    0.6198 H       1  UNL1        0.0379
     48 H           1.0006   -0.5264    0.8819 H       1  UNL1        0.0379
     49 H           0.2531   -0.8021   -1.4085 H       1  UNL1        0.1033
     50 H           0.6687    0.8912   -1.7572 H       1  UNL1        0.1033
     51 H          -2.3269   -1.8476   -2.2001 H       1  UNL1        0.0626
     52 H          -1.9894   -4.2147   -2.4468 H       1  UNL1        0.0618
     53 H          -1.0925   -5.5479   -0.6513 H       1  UNL1        0.0618
     54 H          -0.5012   -4.4498    1.5099 H       1  UNL1        0.0618
     55 H          -0.8500   -1.9671    1.7827 H       1  UNL1        0.0626
     56 H          -5.3096    2.6058    0.7593 H       1  UNL1        0.0624
     57 H          -6.7642    0.8201    1.4768 H       1  UNL1        0.0636
     58 H          -6.0216   -1.6568    2.5872 H       1  UNL1        0.1423
     59 H          -6.8630   -2.3700    1.0667 H       1  UNL1        0.1423
     60 H          -3.7517   -1.9983    0.7176 H       1  UNL1        0.0644
     61 H           0.3710    2.7548   -1.2685 H       1  UNL1        0.0702
     62 H          -0.5101    5.7729   -2.2144 H       1  UNL1        0.1423
     63 H           0.8195    5.6172   -1.0018 H       1  UNL1        0.1423
     64 H          -2.5464    5.6697   -0.5524 H       1  UNL1        0.0636
     65 H          -4.0908    3.9801    0.1770 H       1  UNL1        0.0626
@<TRIPOS>UNITY_ATOM_ATTR
3 1
charge 1
10 1
charge 1
@<TRIPOS>BOND
     1     1     2    1
     2     2     3    1
     3     3     4    1
     4     3     5    1
     5     5     6    1
     6     3     7    1
     7     7     8    1
     8     8     9    1
     9     9    10    1
    10    10    11   ar
    11    11    12    1
    12    12    13   ar
    13    13    14   ar
    14    14    15   ar
    15    15    16   ar
    16    16    17   ar
    17    11    18   ar
    18    18    19   ar
    19    19    20   ar
    20    20    21   ar
    21    21    22   ar
    22    22    23    1
    23    22    24   ar
    24    19    25   ar
    25    25    26   ar
    26    26    27   ar
    27    27    28   ar
    28    28    29    1
    29    28    30   ar
    30    30    31   ar
    31    26    10   ar
    32    17    12   ar
    33    24    18   ar
    34    31    25   ar
    35     1    32    1
    36     1    33    1
    37     1    34    1
    38     2    35    1
    39     2    36    1
    40     4    37    1
    41     4    38    1
    42     4    39    1
    43     5    40    1
    44     5    41    1
    45     6    42    1
    46     6    43    1
    47     6    44    1
    48     7    45    1
    49     7    46    1
    50     8    47    1
    51     8    48    1
    52     9    49    1
    53     9    50    1
    54    13    51    1
    55    14    52    1
    56    15    53    1
    57    16    54    1
    58    17    55    1
    59    20    56    1
    60    21    57    1
    61    23    58    1
    62    23    59    1
    63    24    60    1
    64    27    61    1
    65    29    62    1
    66    29    63    1
    67    30    64    1
    68    31    65    1
