@<TRIPOS>MOLECULE
*****
 73 78 0 0 0
SMALL
GASTEIGER

@<TRIPOS>ATOM
      1 C          -2.8996    7.1689    2.1385 C.3     1  UNL1        0.0804
      2 O          -2.4735    5.8281    2.0601 O.3     1  UNL1       -0.4795
      3 C          -1.8175    5.3961    0.9048 C.ar    1  UNL1        0.2191
      4 C          -1.4127    4.0864    0.8538 C.ar    1  UNL1        0.0404
      5 C          -0.7629    3.6211   -0.2653 C.ar    1  UNL1        0.1364
      6 N          -0.3164    2.2674   -0.3726 N.am    1  UNL1       -0.2240
      7 C           0.9630    1.7487    0.0385 C.2     1  UNL1        0.3219
      8 O           1.6553    2.3482    0.9132 O.2     1  UNL1       -0.2512
      9 N           1.2337    0.5521   -0.6795 N.am    1  UNL1       -0.1920
     10 C           2.3901   -0.2654   -0.5758 C.ar    1  UNL1        0.0455
     11 C           2.5057   -1.4188   -1.3105 C.ar    1  UNL1       -0.0392
     12 C           3.6497   -2.2216   -1.2178 C.ar    1  UNL1       -0.0523
     13 C           4.6957   -1.8858   -0.3906 C.ar    1  UNL1       -0.0177
     14 C           5.8965   -2.7038   -0.2805 C.ar    1  UNL1       -0.0171
     15 C           6.3749   -3.4363   -1.3608 C.ar    1  UNL1       -0.0540
     16 C           7.5161   -4.1921   -1.2036 C.ar    1  UNL1       -0.0604
     17 C           8.1932   -4.2402   -0.0052 C.ar    1  UNL1       -0.0477
     18 C           7.7320   -3.5172    1.0834 C.ar    1  UNL1        0.0594
     19 C           8.4141   -3.5379    2.3656 C.2     1  UNL1        0.3368
     20 O           9.4497   -4.2363    2.4763 O.2     1  UNL1       -0.2451
     21 O           7.9074   -2.7930    3.4193 O.3     1  UNL1       -0.4771
     22 C           6.5984   -2.7729    0.9084 C.ar    1  UNL1       -0.0400
     23 C           4.5792   -0.7323    0.3439 C.ar    1  UNL1       -0.0523
     24 C           3.4459    0.0579    0.2485 C.ar    1  UNL1       -0.0392
     25 C           0.1151    0.3639   -1.5145 C.2     1  UNL1        0.2516
     26 O           0.0457   -0.2923   -2.5697 O.2     1  UNL1       -0.2724
     27 C          -1.0159    1.1064   -0.9077 C.3     1  UNL1        0.1240
     28 C          -1.5459    0.2964    0.2140 C.3     1  UNL1       -0.0095
     29 C          -3.0080    0.3440    0.4596 C.3     1  UNL1        0.0017
     30 N          -3.6990    0.2139   -0.8087 N.3     1  UNL1       -0.2965
     31 C          -5.1163    0.0490   -0.5820 C.3     1  UNL1        0.0415
     32 C          -5.3200   -1.1871    0.2113 C.ar    1  UNL1        0.0581
     33 N          -5.6002   -1.1863    1.5154 N.ar    1  UNL1       -0.2583
     34 C          -5.7880   -2.3023    2.2487 C.ar    1  UNL1        0.0279
     35 C          -5.6962   -3.5343    1.6663 C.ar    1  UNL1       -0.0433
     36 C          -5.4084   -3.6048    0.3184 C.ar    1  UNL1       -0.0557
     37 C          -5.2222   -2.4389   -0.4014 C.ar    1  UNL1       -0.0279
     38 C          -4.9155   -2.5048   -1.8469 C.3     1  UNL1       -0.0380
     39 C          -3.4415    1.4519   -1.5296 C.3     1  UNL1        0.0017
     40 C          -2.0193    1.5387   -1.9332 C.3     1  UNL1       -0.0095
     41 N          -0.5635    4.5132   -1.2649 N.ar    1  UNL1       -0.2200
     42 C          -0.9681    5.7924   -1.1954 C.ar    1  UNL1        0.1219
     43 N          -1.6047    6.2628   -0.1080 N.ar    1  UNL1       -0.2013
     44 H          -3.8318    7.2091    2.7473 H       1  UNL1        0.0660
     45 H          -2.0734    7.7561    2.6050 H       1  UNL1        0.0660
     46 H          -3.0359    7.5499    1.1181 H       1  UNL1        0.0660
     47 H          -1.5745    3.3778    1.6553 H       1  UNL1        0.0705
     48 H           1.7239   -1.7472   -1.9804 H       1  UNL1        0.0636
     49 H           3.7331   -3.1212   -1.7944 H       1  UNL1        0.0624
     50 H           5.8361   -3.3948   -2.3082 H       1  UNL1        0.0624
     51 H           7.8939   -4.7650   -2.0415 H       1  UNL1        0.0618
     52 H           9.0924   -4.8259    0.1465 H       1  UNL1        0.0626
     53 H           8.4615   -2.6273    4.2732 H       1  UNL1        0.2954
     54 H           6.2132   -2.1951    1.7454 H       1  UNL1        0.0632
     55 H           5.3898   -0.4640    0.9908 H       1  UNL1        0.0624
     56 H           3.4489    0.9437    0.8642 H       1  UNL1        0.0636
     57 H          -1.0033    0.5669    1.1694 H       1  UNL1        0.0303
     58 H          -1.2712   -0.7820    0.0648 H       1  UNL1        0.0303
     59 H          -3.2705   -0.5101    1.1271 H       1  UNL1        0.0427
     60 H          -3.2648    1.3085    0.9620 H       1  UNL1        0.0427
     61 H          -5.6275   -0.0056   -1.5835 H       1  UNL1        0.0491
     62 H          -5.5603    0.8814   -0.0158 H       1  UNL1        0.0491
     63 H          -6.0158   -2.2623    3.3132 H       1  UNL1        0.0829
     64 H          -5.8327   -4.4761    2.1818 H       1  UNL1        0.0633
     65 H          -5.3281   -4.5702   -0.1784 H       1  UNL1        0.0621
     66 H          -3.9210   -2.1422   -2.1172 H       1  UNL1        0.0278
     67 H          -5.6611   -1.8728   -2.4096 H       1  UNL1        0.0278
     68 H          -5.0740   -3.5517   -2.2084 H       1  UNL1        0.0278
     69 H          -4.0979    1.4396   -2.4132 H       1  UNL1        0.0427
     70 H          -3.6832    2.2735   -0.8472 H       1  UNL1        0.0427
     71 H          -1.7927    2.5870   -2.2175 H       1  UNL1        0.0303
     72 H          -1.8407    0.9428   -2.8727 H       1  UNL1        0.0303
     73 H          -0.7787    6.4741   -2.0402 H       1  UNL1        0.1049
@<TRIPOS>BOND
     1     1     2    1
     2     2     3    1
     3     3     4   ar
     4     4     5   ar
     5     5     6    1
     6     6     7   am
     7     7     8    2
     8     7     9   am
     9     9    10    1
    10    10    11   ar
    11    11    12   ar
    12    12    13   ar
    13    13    14    1
    14    14    15   ar
    15    15    16   ar
    16    16    17   ar
    17    17    18   ar
    18    18    19    1
    19    19    20    2
    20    19    21    1
    21    18    22   ar
    22    13    23   ar
    23    23    24   ar
    24     9    25   am
    25    25    26    2
    26    25    27    1
    27    27    28    1
    28    28    29    1
    29    29    30    1
    30    30    31    1
    31    31    32    1
    32    32    33   ar
    33    33    34   ar
    34    34    35   ar
    35    35    36   ar
    36    36    37   ar
    37    37    38    1
    38    30    39    1
    39    39    40    1
    40     5    41   ar
    41    41    42   ar
    42    42    43   ar
    43    43     3   ar
    44    27     6    1
    45    37    32   ar
    46    24    10   ar
    47    40    27    1
    48    22    14   ar
    49     1    44    1
    50     1    45    1
    51     1    46    1
    52     4    47    1
    53    11    48    1
    54    12    49    1
    55    15    50    1
    56    16    51    1
    57    17    52    1
    58    21    53    1
    59    22    54    1
    60    23    55    1
    61    24    56    1
    62    28    57    1
    63    28    58    1
    64    29    59    1
    65    29    60    1
    66    31    61    1
    67    31    62    1
    68    34    63    1
    69    35    64    1
    70    36    65    1
    71    38    66    1
    72    38    67    1
    73    38    68    1
    74    39    69    1
    75    39    70    1
    76    40    71    1
    77    40    72    1
    78    42    73    1
