
     RDKit          3D

 73 78  0  0  0  0  0  0  0  0999 V2000
   -2.8996    7.1689    2.1385 C   0  0  0  0  0  0  0  0  0  0  0  0
   -2.4735    5.8281    2.0601 O   0  0  0  0  0  0  0  0  0  0  0  0
   -1.8175    5.3961    0.9048 C   0  0  0  0  0  0  0  0  0  0  0  0
   -1.4127    4.0864    0.8538 C   0  0  0  0  0  0  0  0  0  0  0  0
   -0.7629    3.6211   -0.2653 C   0  0  0  0  0  0  0  0  0  0  0  0
   -0.3164    2.2674   -0.3726 N   0  0  0  0  0  0  0  0  0  0  0  0
    0.9630    1.7487    0.0385 C   0  0  0  0  0  0  0  0  0  0  0  0
    1.6553    2.3482    0.9132 O   0  0  0  0  0  0  0  0  0  0  0  0
    1.2337    0.5521   -0.6795 N   0  0  0  0  0  0  0  0  0  0  0  0
    2.3901   -0.2654   -0.5758 C   0  0  0  0  0  0  0  0  0  0  0  0
    2.5057   -1.4188   -1.3105 C   0  0  0  0  0  0  0  0  0  0  0  0
    3.6497   -2.2216   -1.2178 C   0  0  0  0  0  0  0  0  0  0  0  0
    4.6957   -1.8858   -0.3906 C   0  0  0  0  0  0  0  0  0  0  0  0
    5.8965   -2.7038   -0.2805 C   0  0  0  0  0  0  0  0  0  0  0  0
    6.3749   -3.4363   -1.3608 C   0  0  0  0  0  0  0  0  0  0  0  0
    7.5161   -4.1921   -1.2036 C   0  0  0  0  0  0  0  0  0  0  0  0
    8.1932   -4.2402   -0.0052 C   0  0  0  0  0  0  0  0  0  0  0  0
    7.7320   -3.5172    1.0834 C   0  0  0  0  0  0  0  0  0  0  0  0
    8.4141   -3.5379    2.3656 C   0  0  0  0  0  0  0  0  0  0  0  0
    9.4497   -4.2363    2.4763 O   0  0  0  0  0  0  0  0  0  0  0  0
    7.9074   -2.7930    3.4193 O   0  0  0  0  0  0  0  0  0  0  0  0
    6.5984   -2.7729    0.9084 C   0  0  0  0  0  0  0  0  0  0  0  0
    4.5792   -0.7323    0.3439 C   0  0  0  0  0  0  0  0  0  0  0  0
    3.4459    0.0579    0.2485 C   0  0  0  0  0  0  0  0  0  0  0  0
    0.1151    0.3639   -1.5145 C   0  0  0  0  0  0  0  0  0  0  0  0
    0.0457   -0.2923   -2.5697 O   0  0  0  0  0  0  0  0  0  0  0  0
   -1.0159    1.1064   -0.9077 C   0  0  0  0  0  0  0  0  0  0  0  0
   -1.5459    0.2964    0.2140 C   0  0  0  0  0  0  0  0  0  0  0  0
   -3.0080    0.3440    0.4596 C   0  0  0  0  0  0  0  0  0  0  0  0
   -3.6990    0.2139   -0.8087 N   0  0  0  0  0  0  0  0  0  0  0  0
   -5.1163    0.0490   -0.5820 C   0  0  0  0  0  0  0  0  0  0  0  0
   -5.3200   -1.1871    0.2113 C   0  0  0  0  0  0  0  0  0  0  0  0
   -5.6002   -1.1863    1.5154 N   0  0  0  0  0  0  0  0  0  0  0  0
   -5.7880   -2.3023    2.2487 C   0  0  0  0  0  0  0  0  0  0  0  0
   -5.6962   -3.5343    1.6663 C   0  0  0  0  0  0  0  0  0  0  0  0
   -5.4084   -3.6048    0.3184 C   0  0  0  0  0  0  0  0  0  0  0  0
   -5.2222   -2.4389   -0.4014 C   0  0  0  0  0  0  0  0  0  0  0  0
   -4.9155   -2.5048   -1.8469 C   0  0  0  0  0  0  0  0  0  0  0  0
   -3.4415    1.4519   -1.5296 C   0  0  0  0  0  0  0  0  0  0  0  0
   -2.0193    1.5387   -1.9332 C   0  0  0  0  0  0  0  0  0  0  0  0
   -0.5635    4.5132   -1.2649 N   0  0  0  0  0  0  0  0  0  0  0  0
   -0.9681    5.7924   -1.1954 C   0  0  0  0  0  0  0  0  0  0  0  0
   -1.6047    6.2628   -0.1080 N   0  0  0  0  0  0  0  0  0  0  0  0
   -3.8318    7.2091    2.7473 H   0  0  0  0  0  0  0  0  0  0  0  0
   -2.0734    7.7561    2.6050 H   0  0  0  0  0  0  0  0  0  0  0  0
   -3.0359    7.5499    1.1181 H   0  0  0  0  0  0  0  0  0  0  0  0
   -1.5745    3.3778    1.6553 H   0  0  0  0  0  0  0  0  0  0  0  0
    1.7239   -1.7472   -1.9804 H   0  0  0  0  0  0  0  0  0  0  0  0
    3.7331   -3.1212   -1.7944 H   0  0  0  0  0  0  0  0  0  0  0  0
    5.8361   -3.3948   -2.3082 H   0  0  0  0  0  0  0  0  0  0  0  0
    7.8939   -4.7650   -2.0415 H   0  0  0  0  0  0  0  0  0  0  0  0
    9.0924   -4.8259    0.1465 H   0  0  0  0  0  0  0  0  0  0  0  0
    8.4615   -2.6273    4.2732 H   0  0  0  0  0  0  0  0  0  0  0  0
    6.2132   -2.1951    1.7454 H   0  0  0  0  0  0  0  0  0  0  0  0
    5.3898   -0.4640    0.9908 H   0  0  0  0  0  0  0  0  0  0  0  0
    3.4489    0.9437    0.8642 H   0  0  0  0  0  0  0  0  0  0  0  0
   -1.0033    0.5669    1.1694 H   0  0  0  0  0  0  0  0  0  0  0  0
   -1.2712   -0.7820    0.0648 H   0  0  0  0  0  0  0  0  0  0  0  0
   -3.2705   -0.5101    1.1271 H   0  0  0  0  0  0  0  0  0  0  0  0
   -3.2648    1.3085    0.9620 H   0  0  0  0  0  0  0  0  0  0  0  0
   -5.6275   -0.0056   -1.5835 H   0  0  0  0  0  0  0  0  0  0  0  0
   -5.5603    0.8814   -0.0158 H   0  0  0  0  0  0  0  0  0  0  0  0
   -6.0158   -2.2623    3.3132 H   0  0  0  0  0  0  0  0  0  0  0  0
   -5.8327   -4.4761    2.1818 H   0  0  0  0  0  0  0  0  0  0  0  0
   -5.3281   -4.5702   -0.1784 H   0  0  0  0  0  0  0  0  0  0  0  0
   -3.9210   -2.1422   -2.1172 H   0  0  0  0  0  0  0  0  0  0  0  0
   -5.6611   -1.8728   -2.4096 H   0  0  0  0  0  0  0  0  0  0  0  0
   -5.0740   -3.5517   -2.2084 H   0  0  0  0  0  0  0  0  0  0  0  0
   -4.0979    1.4396   -2.4132 H   0  0  0  0  0  0  0  0  0  0  0  0
   -3.6832    2.2735   -0.8472 H   0  0  0  0  0  0  0  0  0  0  0  0
   -1.7927    2.5870   -2.2175 H   0  0  0  0  0  0  0  0  0  0  0  0
   -1.8407    0.9428   -2.8727 H   0  0  0  0  0  0  0  0  0  0  0  0
   -0.7787    6.4741   -2.0402 H   0  0  0  0  0  0  0  0  0  0  0  0
  1  2  1  0
  2  3  1  0
  3  4  2  0
  4  5  1  0
  5  6  1  0
  6  7  1  0
  7  8  2  0
  7  9  1  0
  9 10  1  0
 10 11  2  0
 11 12  1  0
 12 13  2  0
 13 14  1  0
 14 15  2  0
 15 16  1  0
 16 17  2  0
 17 18  1  0
 18 19  1  0
 19 20  2  0
 19 21  1  0
 18 22  2  0
 13 23  1  0
 23 24  2  0
  9 25  1  0
 25 26  2  0
 25 27  1  0
 27 28  1  0
 28 29  1  0
 29 30  1  0
 30 31  1  0
 31 32  1  0
 32 33  2  0
 33 34  1  0
 34 35  2  0
 35 36  1  0
 36 37  2  0
 37 38  1  0
 30 39  1  0
 39 40  1  0
  5 41  2  0
 41 42  1  0
 42 43  2  0
 43  3  1  0
 27  6  1  0
 37 32  1  0
 24 10  1  0
 40 27  1  0
 22 14  1  0
  1 44  1  0
  1 45  1  0
  1 46  1  0
  4 47  1  0
 11 48  1  0
 12 49  1  0
 15 50  1  0
 16 51  1  0
 17 52  1  0
 21 53  1  0
 22 54  1  0
 23 55  1  0
 24 56  1  0
 28 57  1  0
 28 58  1  0
 29 59  1  0
 29 60  1  0
 31 61  1  0
 31 62  1  0
 34 63  1  0
 35 64  1  0
 36 65  1  0
 38 66  1  0
 38 67  1  0
 38 68  1  0
 39 69  1  0
 39 70  1  0
 40 71  1  0
 40 72  1  0
 42 73  1  0
M  END
$$$$
