@<TRIPOS>MOLECULE
*****
 50 54 0 0 0
SMALL
GASTEIGER

@<TRIPOS>ATOM
      1 O           0.7966   -2.9348    0.0775 O.2     1  UNL1       -0.2737
      2 C           0.1536   -2.0133   -0.5300 C.2     1  UNL1        0.2356
      3 C          -1.1628   -2.3810   -1.0657 C.3     1  UNL1        0.0890
      4 N          -1.8888   -1.4207   -1.8064 N.pl3   1  UNL1       -0.3167
      5 C          -1.5634   -0.9805   -3.1361 C.3     1  UNL1        0.0132
      6 C          -2.7030   -0.2499   -3.8103 C.3     1  UNL1       -0.0330
      7 C          -4.0403   -0.7728   -3.3365 C.3     1  UNL1       -0.0194
      8 C          -4.1284   -0.4994   -1.8778 C.2     1  UNL1        0.0410
      9 C          -3.0458   -0.8352   -1.1648 C.2     1  UNL1        0.1015
     10 C          -3.3112   -0.4994    0.2296 C.2     1  UNL1        0.2678
     11 O          -2.5288   -0.6683    1.2055 O.2     1  UNL1       -0.2682
     12 N          -4.6122    0.0558    0.3083 N.am    1  UNL1       -0.2302
     13 C          -5.3236    0.5430    1.4770 C.3     1  UNL1        0.0344
     14 C          -4.9081    0.0791    2.8376 C.3     1  UNL1       -0.0321
     15 C          -4.4232    1.4083    2.4057 C.3     1  UNL1       -0.0321
     16 C          -5.1370    0.0611   -1.0116 C.2     1  UNL1        0.2513
     17 O          -6.2879    0.4831   -1.3720 O.2     1  UNL1       -0.2698
     18 N           0.7436   -0.7480   -0.6312 N.am    1  UNL1       -0.2677
     19 C           2.0072   -0.4035   -0.1240 C.ar    1  UNL1        0.1475
     20 C           2.9010   -1.1902    0.5260 C.ar    1  UNL1       -0.0177
     21 C           4.1402   -0.7311    0.9942 C.ar    1  UNL1       -0.0306
     22 C           4.4847    0.5747    0.7949 C.ar    1  UNL1        0.0950
     23 C           5.7328    1.1745    1.2318 C.ar    1  UNL1        0.0229
     24 C           6.6953    0.4479    1.8950 C.ar    1  UNL1        0.0370
     25 N           7.8452    1.0614    2.2847 N.ar    1  UNL1       -0.2598
     26 C           8.0830    2.3630    2.0462 C.ar    1  UNL1        0.0628
     27 C           7.1542    3.1130    1.3930 C.ar    1  UNL1        0.1420
     28 F           7.3513    4.4200    1.1338 F       1  UNL1       -0.2039
     29 C           5.9867    2.5221    0.9882 C.ar    1  UNL1       -0.0143
     30 N           3.5744    1.3497    0.1400 N.ar    1  UNL1       -0.1474
     31 N           2.4162    0.9007   -0.2920 N.ar    1  UNL1       -0.1334
     32 H          -1.0058   -3.2921   -1.7225 H       1  UNL1        0.0559
     33 H          -1.7472   -2.8205   -0.1984 H       1  UNL1        0.0559
     34 H          -1.2879   -1.8438   -3.8039 H       1  UNL1        0.0464
     35 H          -0.7094   -0.2969   -3.1256 H       1  UNL1        0.0464
     36 H          -2.6760    0.8374   -3.5112 H       1  UNL1        0.0283
     37 H          -2.5824   -0.2604   -4.8983 H       1  UNL1        0.0283
     38 H          -4.1000   -1.8878   -3.4801 H       1  UNL1        0.0316
     39 H          -4.8645   -0.3312   -3.9064 H       1  UNL1        0.0316
     40 H          -6.3405    0.9382    1.3044 H       1  UNL1        0.0505
     41 H          -4.2049   -0.7863    2.8274 H       1  UNL1        0.0284
     42 H          -5.7456   -0.0215    3.5658 H       1  UNL1        0.0284
     43 H          -3.3645    1.5072    2.1392 H       1  UNL1        0.0284
     44 H          -4.8956    2.3273    2.8170 H       1  UNL1        0.0284
     45 H           0.2205    0.0551   -1.1064 H       1  UNL1        0.1563
     46 H           2.6888   -2.2222    0.7104 H       1  UNL1        0.0653
     47 H           4.8107   -1.3942    1.5021 H       1  UNL1        0.0641
     48 H           6.5683   -0.6070    2.1197 H       1  UNL1        0.0836
     49 H           9.0244    2.7998    2.3836 H       1  UNL1        0.0859
     50 H           5.2103    3.0696    0.4629 H       1  UNL1        0.0654
@<TRIPOS>BOND
     1     1     2    2
     2     2     3    1
     3     3     4    1
     4     4     5    1
     5     5     6    1
     6     6     7    1
     7     7     8    1
     8     8     9    2
     9     9    10    1
    10    10    11    2
    11    10    12   am
    12    12    13    1
    13    13    14    1
    14    14    15    1
    15    12    16   am
    16    16    17    2
    17     2    18   am
    18    18    19    1
    19    19    20   ar
    20    20    21   ar
    21    21    22   ar
    22    22    23    1
    23    23    24   ar
    24    24    25   ar
    25    25    26   ar
    26    26    27   ar
    27    27    28    1
    28    27    29   ar
    29    22    30   ar
    30    30    31   ar
    31     9     4    1
    32    15    13    1
    33    31    19   ar
    34    16     8    1
    35    29    23   ar
    36     3    32    1
    37     3    33    1
    38     5    34    1
    39     5    35    1
    40     6    36    1
    41     6    37    1
    42     7    38    1
    43     7    39    1
    44    13    40    1
    45    14    41    1
    46    14    42    1
    47    15    43    1
    48    15    44    1
    49    18    45    1
    50    20    46    1
    51    21    47    1
    52    24    48    1
    53    26    49    1
    54    29    50    1
