
     RDKit          3D

 83 89  0  0  0  0  0  0  0  0999 V2000
   -4.2000   -0.5838   -2.0018 C   0  0  2  0  0  0  0  0  0  0  0  0
   -4.3071   -0.4065   -3.4930 C   0  0  0  0  0  0  0  0  0  0  0  0
   -5.4825    0.4794   -3.7479 C   0  0  0  0  0  0  0  0  0  0  0  0
   -6.1419    0.7090   -2.4250 C   0  0  0  0  0  0  0  0  0  0  0  0
   -5.1113    0.4185   -1.4231 N   0  0  0  0  0  0  0  0  0  0  0  0
   -4.8246    0.8773   -0.0846 C   0  0  0  0  0  0  0  0  0  0  0  0
   -5.3817    2.0027    0.1553 O   0  0  0  0  0  0  0  0  0  0  0  0
   -3.9609   -0.0618    0.6781 C   0  0  2  0  0  0  0  0  0  0  0  0
   -3.5478    0.5492    1.9761 C   0  0  0  0  0  0  0  0  0  0  0  0
   -4.7050    0.9039    2.8754 C   0  0  0  0  0  0  0  0  0  0  0  0
   -5.5629   -0.2568    3.2630 C   0  0  0  0  0  0  0  0  0  0  0  0
   -4.1203    1.4641    4.1751 C   0  0  0  0  0  0  0  0  0  0  0  0
   -2.7875   -0.3791   -0.0870 N   0  0  0  0  0  0  0  0  0  0  0  0
   -1.4676   -0.8851    0.1970 C   0  0  0  0  0  0  0  0  0  0  0  0
   -0.9426   -0.8897    1.3170 O   0  0  0  0  0  0  0  0  0  0  0  0
   -0.9521   -1.3610   -1.1168 C   0  0  2  0  0  0  0  0  0  0  0  0
    0.4532   -1.0610   -1.3085 N   0  0  0  0  0  0  0  0  0  0  0  0
    1.0006    0.2507   -1.3027 C   0  0  0  0  0  0  0  0  0  0  0  0
    0.2413    1.2368   -1.1215 O   0  0  0  0  0  0  0  0  0  0  0  0
    2.4416    0.5563   -1.4997 C   0  0  1  0  0  0  0  0  0  0  0  0
    2.6236    2.0578   -1.4268 C   0  0  0  0  0  0  0  0  0  0  0  0
    3.9926    2.4417   -1.2853 N   0  0  0  0  0  0  0  0  0  0  0  0
    4.8339    2.0236   -2.3622 C   0  0  0  0  0  0  0  0  0  0  0  0
    4.4725    2.0048    0.0168 C   0  0  2  0  0  0  0  0  0  0  0  0
    5.8915    2.4255    0.2587 C   0  0  0  0  0  0  0  0  0  0  0  0
    6.6453    1.6134    1.2028 C   0  0  0  0  0  0  0  0  0  0  0  0
    7.8089    1.8015    1.8771 C   0  0  0  0  0  0  0  0  0  0  0  0
    8.9285    3.3442    1.7833 Br  0  0  0  0  0  0  0  0  0  0  0  0
    8.0405    0.6897    2.6381 N   0  0  0  0  0  0  0  0  0  0  0  0
    7.0578   -0.2115    2.4734 C   0  0  0  0  0  0  0  0  0  0  0  0
    6.6841   -1.4590    2.9053 C   0  0  0  0  0  0  0  0  0  0  0  0
    5.5077   -2.0683    2.4527 C   0  0  0  0  0  0  0  0  0  0  0  0
    4.6650   -1.4247    1.5385 C   0  0  0  0  0  0  0  0  0  0  0  0
    5.0271   -0.1727    1.0961 C   0  0  0  0  0  0  0  0  0  0  0  0
    6.1935    0.3681    1.5802 C   0  0  0  0  0  0  0  0  0  0  0  0
    4.2113    0.5702    0.1457 C   0  0  0  0  0  0  0  0  0  0  0  0
    3.3123   -0.1387   -0.5117 C   0  0  0  0  0  0  0  0  0  0  0  0
   -1.7849   -0.8492   -2.0753 O   0  0  0  0  0  0  0  0  0  0  0  0
   -2.8295   -0.1778   -1.5195 C   0  0  1  0  0  0  0  0  0  0  0  0
   -2.7904    1.2214   -1.7276 O   0  0  0  0  0  0  0  0  0  0  0  0
   -1.0473   -2.8903   -1.2016 C   0  0  0  0  0  0  0  0  0  0  0  0
   -2.4337   -3.4082   -1.0659 C   0  0  0  0  0  0  0  0  0  0  0  0
   -0.1145   -3.5866   -0.2658 C   0  0  0  0  0  0  0  0  0  0  0  0
   -4.5664   -1.5378   -1.6345 H   0  0  0  0  0  0  0  0  0  0  0  0
   -3.3842    0.0794   -3.8740 H   0  0  0  0  0  0  0  0  0  0  0  0
   -4.4300   -1.4050   -3.9641 H   0  0  0  0  0  0  0  0  0  0  0  0
   -5.1561    1.4565   -4.1732 H   0  0  0  0  0  0  0  0  0  0  0  0
   -6.1707   -0.0502   -4.4417 H   0  0  0  0  0  0  0  0  0  0  0  0
   -6.4460    1.7883   -2.3539 H   0  0  0  0  0  0  0  0  0  0  0  0
   -7.0339    0.1112   -2.2332 H   0  0  0  0  0  0  0  0  0  0  0  0
   -4.5152   -1.0049    0.9291 H   0  0  0  0  0  0  0  0  0  0  0  0
   -3.0432    1.5174    1.7346 H   0  0  0  0  0  0  0  0  0  0  0  0
   -2.7876   -0.0518    2.4998 H   0  0  0  0  0  0  0  0  0  0  0  0
   -5.3263    1.7186    2.4726 H   0  0  0  0  0  0  0  0  0  0  0  0
   -6.1114    0.0489    4.1869 H   0  0  0  0  0  0  0  0  0  0  0  0
   -6.3537   -0.4796    2.5188 H   0  0  0  0  0  0  0  0  0  0  0  0
   -4.9995   -1.1697    3.4821 H   0  0  0  0  0  0  0  0  0  0  0  0
   -3.3276    0.7697    4.4991 H   0  0  0  0  0  0  0  0  0  0  0  0
   -3.7702    2.5002    4.0105 H   0  0  0  0  0  0  0  0  0  0  0  0
   -4.9235    1.5089    4.9485 H   0  0  0  0  0  0  0  0  0  0  0  0
    1.2113   -1.7898   -1.4720 H   0  0  0  0  0  0  0  0  0  0  0  0
    2.7677    0.2184   -2.5050 H   0  0  0  0  0  0  0  0  0  0  0  0
    2.0320    2.5237   -0.6169 H   0  0  0  0  0  0  0  0  0  0  0  0
    2.2527    2.5194   -2.3666 H   0  0  0  0  0  0  0  0  0  0  0  0
    5.4991    1.1834   -2.1278 H   0  0  0  0  0  0  0  0  0  0  0  0
    4.1698    1.6801   -3.2049 H   0  0  0  0  0  0  0  0  0  0  0  0
    5.3890    2.9096   -2.7451 H   0  0  0  0  0  0  0  0  0  0  0  0
    3.8354    2.5187    0.7676 H   0  0  0  0  0  0  0  0  0  0  0  0
    5.9344    3.4792    0.6257 H   0  0  0  0  0  0  0  0  0  0  0  0
    6.4562    2.4394   -0.7072 H   0  0  0  0  0  0  0  0  0  0  0  0
    8.8473    0.5088    3.2755 H   0  0  0  0  0  0  0  0  0  0  0  0
    7.3544   -1.9433    3.6172 H   0  0  0  0  0  0  0  0  0  0  0  0
    5.2656   -3.0538    2.8294 H   0  0  0  0  0  0  0  0  0  0  0  0
    3.7746   -1.9494    1.2348 H   0  0  0  0  0  0  0  0  0  0  0  0
    3.0921   -1.1707   -0.4576 H   0  0  0  0  0  0  0  0  0  0  0  0
   -2.4763    1.6932   -0.9288 H   0  0  0  0  0  0  0  0  0  0  0  0
   -0.6726   -3.1226   -2.2403 H   0  0  0  0  0  0  0  0  0  0  0  0
   -2.9011   -3.4258   -2.0809 H   0  0  0  0  0  0  0  0  0  0  0  0
   -3.0385   -2.8538   -0.3224 H   0  0  0  0  0  0  0  0  0  0  0  0
   -2.3709   -4.4557   -0.7159 H   0  0  0  0  0  0  0  0  0  0  0  0
    0.1559   -3.0348    0.6400 H   0  0  0  0  0  0  0  0  0  0  0  0
    0.8530   -3.8862   -0.7595 H   0  0  0  0  0  0  0  0  0  0  0  0
   -0.6223   -4.5263    0.1009 H   0  0  0  0  0  0  0  0  0  0  0  0
  1  2  1  0
  2  3  1  0
  3  4  1  0
  4  5  1  0
  5  6  1  0
  6  7  2  0
  6  8  1  0
  8  9  1  0
  9 10  1  0
 10 11  1  0
 10 12  1  0
  8 13  1  0
 13 14  1  0
 14 15  2  0
 14 16  1  0
 16 17  1  6
 17 18  1  0
 18 19  2  0
 18 20  1  0
 20 21  1  0
 21 22  1  0
 22 23  1  0
 22 24  1  0
 24 25  1  0
 25 26  1  0
 26 27  2  0
 27 28  1  0
 27 29  1  0
 29 30  1  0
 30 31  2  0
 31 32  1  0
 32 33  2  0
 33 34  1  0
 34 35  2  0
 34 36  1  0
 36 37  2  0
 16 38  1  0
 38 39  1  0
 39 40  1  1
 16 41  1  0
 41 42  1  0
 41 43  1  0
  5  1  1  0
 39 13  1  0
 39  1  1  0
 37 20  1  0
 36 24  1  0
 35 26  1  0
 35 30  1  0
  1 44  1  6
  2 45  1  0
  2 46  1  0
  3 47  1  0
  3 48  1  0
  4 49  1  0
  4 50  1  0
  8 51  1  1
  9 52  1  0
  9 53  1  0
 10 54  1  0
 11 55  1  0
 11 56  1  0
 11 57  1  0
 12 58  1  0
 12 59  1  0
 12 60  1  0
 17 61  1  0
 20 62  1  6
 21 63  1  0
 21 64  1  0
 23 65  1  0
 23 66  1  0
 23 67  1  0
 24 68  1  1
 25 69  1  0
 25 70  1  0
 29 71  1  0
 31 72  1  0
 32 73  1  0
 33 74  1  0
 37 75  1  0
 40 76  1  0
 41 77  1  0
 42 78  1  0
 42 79  1  0
 42 80  1  0
 43 81  1  0
 43 82  1  0
 43 83  1  0
M  END
$$$$
