@<TRIPOS>MOLECULE
*****
 83 89 0 0 0
SMALL
GASTEIGER

@<TRIPOS>ATOM
      1 C          -4.2000   -0.5838   -2.0018 C.3     1  UNL1        0.0987
      2 C          -4.3071   -0.4065   -3.4930 C.3     1  UNL1       -0.0261
      3 C          -5.4825    0.4794   -3.7479 C.3     1  UNL1       -0.0352
      4 C          -6.1419    0.7090   -2.4250 C.3     1  UNL1        0.0154
      5 N          -5.1113    0.4185   -1.4231 N.am    1  UNL1       -0.2900
      6 C          -4.8246    0.8773   -0.0846 C.2     1  UNL1        0.2367
      7 O          -5.3817    2.0027    0.1553 O.2     1  UNL1       -0.2735
      8 C          -3.9609   -0.0618    0.6781 C.3     1  UNL1        0.1076
      9 C          -3.5478    0.5492    1.9761 C.3     1  UNL1       -0.0232
     10 C          -4.7050    0.9039    2.8754 C.3     1  UNL1       -0.0446
     11 C          -5.5629   -0.2568    3.2630 C.3     1  UNL1       -0.0626
     12 C          -4.1203    1.4641    4.1751 C.3     1  UNL1       -0.0626
     13 N          -2.7875   -0.3791   -0.0870 N.am    1  UNL1       -0.2334
     14 C          -1.4676   -0.8851    0.1970 C.2     1  UNL1        0.2712
     15 O          -0.9426   -0.8897    1.3170 O.2     1  UNL1       -0.2704
     16 C          -0.9521   -1.3610   -1.1168 C.3     1  UNL1        0.2201
     17 N           0.4532   -1.0610   -1.3085 N.am    1  UNL1       -0.2793
     18 C           1.0006    0.2507   -1.3027 C.2     1  UNL1        0.2235
     19 O           0.2413    1.2368   -1.1215 O.2     1  UNL1       -0.2750
     20 C           2.4416    0.5563   -1.4997 C.3     1  UNL1        0.0670
     21 C           2.6236    2.0578   -1.4268 C.3     1  UNL1        0.0138
     22 N           3.9926    2.4417   -1.2853 N.3     1  UNL1       -0.2971
     23 C           4.8339    2.0236   -2.3622 C.3     1  UNL1       -0.0121
     24 C           4.4725    2.0048    0.0168 C.3     1  UNL1        0.0397
     25 C           5.8915    2.4255    0.2587 C.3     1  UNL1       -0.0048
     26 C           6.6453    1.6134    1.2028 C.ar    1  UNL1       -0.0056
     27 C           7.8089    1.8015    1.8771 C.ar    1  UNL1        0.0872
     28 BR          8.9285    3.3442    1.7833 Br      1  UNL1       -0.0305
     29 N           8.0405    0.6897    2.6381 N.ar    1  UNL1       -0.3488
     30 C           7.0578   -0.2115    2.4734 C.ar    1  UNL1        0.0481
     31 C           6.6841   -1.4590    2.9053 C.ar    1  UNL1       -0.0377
     32 C           5.5077   -2.0683    2.4527 C.ar    1  UNL1       -0.0592
     33 C           4.6650   -1.4247    1.5385 C.ar    1  UNL1       -0.0536
     34 C           5.0271   -0.1727    1.0961 C.ar    1  UNL1       -0.0112
     35 C           6.1935    0.3681    1.5802 C.ar    1  UNL1        0.0114
     36 C           4.2113    0.5702    0.1457 C.2     1  UNL1       -0.0253
     37 C           3.3123   -0.1387   -0.5117 C.2     1  UNL1       -0.0658
     38 O          -1.7849   -0.8492   -2.0753 O.3     1  UNL1       -0.2983
     39 C          -2.8295   -0.1778   -1.5195 C.3     1  UNL1        0.2691
     40 O          -2.7904    1.2214   -1.7276 O.3     1  UNL1       -0.3481
     41 C          -1.0473   -2.8903   -1.2016 C.3     1  UNL1        0.0085
     42 C          -2.4337   -3.4082   -1.0659 C.3     1  UNL1       -0.0580
     43 C          -0.1145   -3.5866   -0.2658 C.3     1  UNL1       -0.0580
     44 H          -4.5664   -1.5378   -1.6345 H       1  UNL1        0.0572
     45 H          -3.3842    0.0794   -3.8740 H       1  UNL1        0.0286
     46 H          -4.4300   -1.4050   -3.9641 H       1  UNL1        0.0286
     47 H          -5.1561    1.4565   -4.1732 H       1  UNL1        0.0281
     48 H          -6.1707   -0.0502   -4.4417 H       1  UNL1        0.0281
     49 H          -6.4460    1.7883   -2.3539 H       1  UNL1        0.0465
     50 H          -7.0339    0.1112   -2.2332 H       1  UNL1        0.0465
     51 H          -4.5152   -1.0049    0.9291 H       1  UNL1        0.0598
     52 H          -3.0432    1.5174    1.7346 H       1  UNL1        0.0290
     53 H          -2.7876   -0.0518    2.4998 H       1  UNL1        0.0290
     54 H          -5.3263    1.7186    2.4726 H       1  UNL1        0.0296
     55 H          -6.1114    0.0489    4.1869 H       1  UNL1        0.0232
     56 H          -6.3537   -0.4796    2.5188 H       1  UNL1        0.0232
     57 H          -4.9995   -1.1697    3.4821 H       1  UNL1        0.0232
     58 H          -3.3276    0.7697    4.4991 H       1  UNL1        0.0232
     59 H          -3.7702    2.5002    4.0105 H       1  UNL1        0.0232
     60 H          -4.9235    1.5089    4.9485 H       1  UNL1        0.0232
     61 H           1.2113   -1.7898   -1.4720 H       1  UNL1        0.1519
     62 H           2.7677    0.2184   -2.5050 H       1  UNL1        0.0450
     63 H           2.0320    2.5237   -0.6169 H       1  UNL1        0.0437
     64 H           2.2527    2.5194   -2.3666 H       1  UNL1        0.0437
     65 H           5.4991    1.1834   -2.1278 H       1  UNL1        0.0391
     66 H           4.1698    1.6801   -3.2049 H       1  UNL1        0.0391
     67 H           5.3890    2.9096   -2.7451 H       1  UNL1        0.0391
     68 H           3.8354    2.5187    0.7676 H       1  UNL1        0.0515
     69 H           5.9344    3.4792    0.6257 H       1  UNL1        0.0333
     70 H           6.4562    2.4394   -0.7072 H       1  UNL1        0.0333
     71 H           8.8473    0.5088    3.2755 H       1  UNL1        0.1664
     72 H           7.3544   -1.9433    3.6172 H       1  UNL1        0.0638
     73 H           5.2656   -3.0538    2.8294 H       1  UNL1        0.0618
     74 H           3.7746   -1.9494    1.2348 H       1  UNL1        0.0624
     75 H           3.0921   -1.1707   -0.4576 H       1  UNL1        0.0583
     76 H          -2.4763    1.6932   -0.9288 H       1  UNL1        0.2145
     77 H          -0.6726   -3.1226   -2.2403 H       1  UNL1        0.0345
     78 H          -2.9011   -3.4258   -2.0809 H       1  UNL1        0.0234
     79 H          -3.0385   -2.8538   -0.3224 H       1  UNL1        0.0234
     80 H          -2.3709   -4.4557   -0.7159 H       1  UNL1        0.0234
     81 H           0.1559   -3.0348    0.6400 H       1  UNL1        0.0234
     82 H           0.8530   -3.8862   -0.7595 H       1  UNL1        0.0234
     83 H          -0.6223   -4.5263    0.1009 H       1  UNL1        0.0234
@<TRIPOS>BOND
     1     1     2    1
     2     2     3    1
     3     3     4    1
     4     4     5    1
     5     5     6   am
     6     6     7    2
     7     6     8    1
     8     8     9    1
     9     9    10    1
    10    10    11    1
    11    10    12    1
    12     8    13    1
    13    13    14   am
    14    14    15    2
    15    14    16    1
    16    16    17    1
    17    17    18   am
    18    18    19    2
    19    18    20    1
    20    20    21    1
    21    21    22    1
    22    22    23    1
    23    22    24    1
    24    24    25    1
    25    25    26    1
    26    26    27   ar
    27    27    28    1
    28    27    29   ar
    29    29    30   ar
    30    30    31   ar
    31    31    32   ar
    32    32    33   ar
    33    33    34   ar
    34    34    35   ar
    35    34    36    1
    36    36    37    2
    37    16    38    1
    38    38    39    1
    39    39    40    1
    40    16    41    1
    41    41    42    1
    42    41    43    1
    43     5     1    1
    44    39    13    1
    45    39     1    1
    46    37    20    1
    47    36    24    1
    48    35    26   ar
    49    35    30   ar
    50     1    44    1
    51     2    45    1
    52     2    46    1
    53     3    47    1
    54     3    48    1
    55     4    49    1
    56     4    50    1
    57     8    51    1
    58     9    52    1
    59     9    53    1
    60    10    54    1
    61    11    55    1
    62    11    56    1
    63    11    57    1
    64    12    58    1
    65    12    59    1
    66    12    60    1
    67    17    61    1
    68    20    62    1
    69    21    63    1
    70    21    64    1
    71    23    65    1
    72    23    66    1
    73    23    67    1
    74    24    68    1
    75    25    69    1
    76    25    70    1
    77    29    71    1
    78    31    72    1
    79    32    73    1
    80    33    74    1
    81    37    75    1
    82    40    76    1
    83    41    77    1
    84    42    78    1
    85    42    79    1
    86    42    80    1
    87    43    81    1
    88    43    82    1
    89    43    83    1
