@<TRIPOS>MOLECULE
*****
 93 99 0 0 0
SMALL
GASTEIGER

@<TRIPOS>ATOM
      1 C          11.2733    2.7647   -0.0256 C.3     1  UNL1       -0.0633
      2 C          12.3566    1.6958   -0.0624 C.3     1  UNL1       -0.0308
      3 C          11.7179    0.4594   -0.6586 C.3     1  UNL1        0.0832
      4 C          12.6901   -0.6971   -0.7571 C.3     1  UNL1        0.0749
      5 C          13.2459   -1.1162    0.5689 C.3     1  UNL1       -0.0369
      6 O          13.7551   -0.3992   -1.6037 O.3     1  UNL1       -0.3900
      7 N          10.5026    0.0758    0.0324 N.ar    1  UNL1       -0.2073
      8 N          10.3823   -0.3225    1.2852 N.ar    1  UNL1       -0.1565
      9 C           9.0803   -0.5905    1.5559 C.ar    1  UNL1        0.1251
     10 N           8.3679   -0.3533    0.4421 N.ar    1  UNL1       -0.2501
     11 C           6.9617   -0.5061    0.2875 C.ar    1  UNL1        0.0525
     12 C           6.2246   -1.5203    0.8269 C.ar    1  UNL1       -0.0359
     13 C           4.8637   -1.5833    0.6199 C.ar    1  UNL1       -0.0387
     14 C           4.1626   -0.6507   -0.1283 C.ar    1  UNL1        0.0299
     15 N           2.7663   -0.7524   -0.3402 N.pl3   1  UNL1       -0.3269
     16 C           2.0556   -2.0072   -0.2230 C.3     1  UNL1        0.0280
     17 C           0.8467   -1.8670    0.6831 C.3     1  UNL1        0.0280
     18 N           0.1755   -0.6214    0.4968 N.pl3   1  UNL1       -0.3269
     19 C          -1.2249   -0.4955    0.3042 C.ar    1  UNL1        0.0300
     20 C          -1.8808   -1.5433   -0.2763 C.ar    1  UNL1       -0.0372
     21 C          -3.2452   -1.4666   -0.4674 C.ar    1  UNL1       -0.0182
     22 C          -3.9948   -0.3721   -0.0986 C.ar    1  UNL1        0.1206
     23 O          -5.3684   -0.3003   -0.2941 O.3     1  UNL1       -0.4916
     24 C          -6.0028   -1.4070   -0.8978 C.3     1  UNL1        0.0946
     25 C          -7.4757   -1.2213   -1.0622 C.3     1  UNL1        0.0196
     26 C          -7.8091   -0.0236   -1.9264 C.3     1  UNL1        0.0549
     27 O          -9.0951    0.3348   -1.5472 O.3     1  UNL1       -0.3664
     28 C          -9.1721    0.1958   -0.1524 C.3     1  UNL1        0.1168
     29 C          -8.5339    1.4664    0.3760 C.3     1  UNL1        0.0765
     30 N          -9.1269    2.6415   -0.1581 N.ar    1  UNL1       -0.2489
     31 C         -10.0863    3.4480    0.2174 C.ar    1  UNL1        0.1144
     32 N         -10.2957    4.4605   -0.6833 N.ar    1  UNL1       -0.2228
     33 C          -9.3942    4.2230   -1.6459 C.ar    1  UNL1        0.1379
     34 N          -8.6937    3.1458   -1.3463 N.ar    1  UNL1       -0.1583
     35 C         -10.4595   -0.1477    0.4000 C.ar    1  UNL1        0.0213
     36 C         -11.0827    0.5050    1.4150 C.ar    1  UNL1       -0.0503
     37 C         -12.3035    0.0853    1.9823 C.ar    1  UNL1       -0.0259
     38 C         -12.9081   -1.0426    1.4973 C.ar    1  UNL1        0.1261
     39 F         -14.0811   -1.4619    2.0291 F       1  UNL1       -0.2054
     40 C         -12.2895   -1.7155    0.4725 C.ar    1  UNL1        0.0092
     41 C         -11.1015   -1.2964   -0.0725 C.ar    1  UNL1        0.1321
     42 F         -10.5029   -1.9686   -1.0840 F       1  UNL1       -0.2050
     43 C          -8.2108   -0.9458    0.2023 C.3     1  UNL1       -0.0097
     44 C          -3.2852    0.6636    0.4853 C.ar    1  UNL1       -0.0182
     45 C          -1.9269    0.6234    0.6921 C.ar    1  UNL1       -0.0372
     46 C           0.9728    0.5971    0.4797 C.3     1  UNL1        0.0280
     47 C           1.9878    0.4073   -0.6693 C.3     1  UNL1        0.0280
     48 C           4.9132    0.3681   -0.6685 C.ar    1  UNL1       -0.0387
     49 C           6.2802    0.4299   -0.4593 C.ar    1  UNL1       -0.0359
     50 C           9.2689    0.0552   -0.4785 C.ar    1  UNL1        0.3514
     51 O           8.9546    0.3666   -1.6499 O.2     1  UNL1       -0.2444
     52 H          11.6641    3.6612    0.5004 H       1  UNL1        0.0230
     53 H          10.9525    3.0362   -1.0561 H       1  UNL1        0.0230
     54 H          10.3479    2.3692    0.4734 H       1  UNL1        0.0230
     55 H          13.1309    2.0315   -0.7859 H       1  UNL1        0.0284
     56 H          12.7319    1.5577    0.9501 H       1  UNL1        0.0284
     57 H          11.4901    0.7393   -1.7298 H       1  UNL1        0.0572
     58 H          12.1243   -1.5242   -1.2612 H       1  UNL1        0.0612
     59 H          13.8120   -0.2509    0.9761 H       1  UNL1        0.0255
     60 H          13.9656   -1.9504    0.3587 H       1  UNL1        0.0255
     61 H          12.4533   -1.4878    1.2175 H       1  UNL1        0.0255
     62 H          13.4197   -0.0292   -2.4784 H       1  UNL1        0.2099
     63 H           8.7087   -0.9338    2.5104 H       1  UNL1        0.1052
     64 H           6.7481   -2.2651    1.4174 H       1  UNL1        0.0639
     65 H           4.3101   -2.3904    1.0606 H       1  UNL1        0.0637
     66 H           1.7063   -2.2332   -1.2769 H       1  UNL1        0.0479
     67 H           2.6459   -2.8633    0.0752 H       1  UNL1        0.0479
     68 H           0.1974   -2.7317    0.5277 H       1  UNL1        0.0479
     69 H           1.2076   -1.9417    1.7351 H       1  UNL1        0.0479
     70 H          -1.3758   -2.4633   -0.6149 H       1  UNL1        0.0637
     71 H          -3.7889   -2.2930   -0.9298 H       1  UNL1        0.0655
     72 H          -5.5283   -1.7011   -1.8486 H       1  UNL1        0.0700
     73 H          -5.8525   -2.2814   -0.2012 H       1  UNL1        0.0700
     74 H          -7.8703   -2.1067   -1.6071 H       1  UNL1        0.0357
     75 H          -7.0919    0.8079   -1.7892 H       1  UNL1        0.0564
     76 H          -7.8490   -0.3363   -3.0028 H       1  UNL1        0.0564
     77 H          -7.4512    1.4194    0.1161 H       1  UNL1        0.0541
     78 H          -8.6420    1.4330    1.4863 H       1  UNL1        0.0541
     79 H         -10.7005    3.4291    1.1086 H       1  UNL1        0.1044
     80 H          -9.2297    4.8101   -2.5616 H       1  UNL1        0.1065
     81 H         -10.6661    1.3538    1.8894 H       1  UNL1        0.0623
     82 H         -12.7734    0.6132    2.7752 H       1  UNL1        0.0646
     83 H         -12.7716   -2.6076    0.0930 H       1  UNL1        0.0675
     84 H          -8.7866   -1.8761    0.4629 H       1  UNL1        0.0301
     85 H          -7.5653   -0.6686    1.0579 H       1  UNL1        0.0301
     86 H          -3.8611    1.5438    0.7860 H       1  UNL1        0.0655
     87 H          -1.4003    1.4429    1.1559 H       1  UNL1        0.0637
     88 H           1.5732    0.5838    1.4195 H       1  UNL1        0.0479
     89 H           0.3930    1.5041    0.3318 H       1  UNL1        0.0479
     90 H           2.6022    1.2971   -0.7711 H       1  UNL1        0.0479
     91 H           1.4388    0.2823   -1.6312 H       1  UNL1        0.0479
     92 H           4.4718    1.1553   -1.2823 H       1  UNL1        0.0637
     93 H           6.8541    1.2468   -0.8975 H       1  UNL1        0.0639
@<TRIPOS>BOND
     1     1     2    1
     2     2     3    1
     3     3     4    1
     4     4     5    1
     5     4     6    1
     6     3     7    1
     7     7     8   ar
     8     8     9   ar
     9     9    10   ar
    10    10    11    1
    11    11    12   ar
    12    12    13   ar
    13    13    14   ar
    14    14    15    1
    15    15    16    1
    16    16    17    1
    17    17    18    1
    18    18    19    1
    19    19    20   ar
    20    20    21   ar
    21    21    22   ar
    22    22    23    1
    23    23    24    1
    24    24    25    1
    25    25    26    1
    26    26    27    1
    27    27    28    1
    28    28    29    1
    29    29    30    1
    30    30    31   ar
    31    31    32   ar
    32    32    33   ar
    33    33    34   ar
    34    28    35    1
    35    35    36   ar
    36    36    37   ar
    37    37    38   ar
    38    38    39    1
    39    38    40   ar
    40    40    41   ar
    41    41    42    1
    42    28    43    1
    43    22    44   ar
    44    44    45   ar
    45    18    46    1
    46    46    47    1
    47    14    48   ar
    48    48    49   ar
    49    10    50   ar
    50    50    51    2
    51    50     7   ar
    52    49    11   ar
    53    47    15    1
    54    45    19   ar
    55    43    25    1
    56    34    30   ar
    57    41    35   ar
    58     1    52    1
    59     1    53    1
    60     1    54    1
    61     2    55    1
    62     2    56    1
    63     3    57    1
    64     4    58    1
    65     5    59    1
    66     5    60    1
    67     5    61    1
    68     6    62    1
    69     9    63    1
    70    12    64    1
    71    13    65    1
    72    16    66    1
    73    16    67    1
    74    17    68    1
    75    17    69    1
    76    20    70    1
    77    21    71    1
    78    24    72    1
    79    24    73    1
    80    25    74    1
    81    26    75    1
    82    26    76    1
    83    29    77    1
    84    29    78    1
    85    31    79    1
    86    33    80    1
    87    36    81    1
    88    37    82    1
    89    40    83    1
    90    43    84    1
    91    43    85    1
    92    44    86    1
    93    45    87    1
    94    46    88    1
    95    46    89    1
    96    47    90    1
    97    47    91    1
    98    48    92    1
    99    49    93    1
