
     RDKit          3D

 93 99  0  0  0  0  0  0  0  0999 V2000
   11.2733    2.7647   -0.0256 C   0  0  0  0  0  0  0  0  0  0  0  0
   12.3566    1.6958   -0.0624 C   0  0  0  0  0  0  0  0  0  0  0  0
   11.7179    0.4594   -0.6586 C   0  0  1  0  0  0  0  0  0  0  0  0
   12.6901   -0.6971   -0.7571 C   0  0  2  0  0  0  0  0  0  0  0  0
   13.2459   -1.1162    0.5689 C   0  0  0  0  0  0  0  0  0  0  0  0
   13.7551   -0.3992   -1.6037 O   0  0  0  0  0  0  0  0  0  0  0  0
   10.5026    0.0758    0.0324 N   0  0  0  0  0  0  0  0  0  0  0  0
   10.3823   -0.3225    1.2852 N   0  0  0  0  0  0  0  0  0  0  0  0
    9.0803   -0.5905    1.5559 C   0  0  0  0  0  0  0  0  0  0  0  0
    8.3679   -0.3533    0.4421 N   0  0  0  0  0  0  0  0  0  0  0  0
    6.9617   -0.5061    0.2875 C   0  0  0  0  0  0  0  0  0  0  0  0
    6.2246   -1.5203    0.8269 C   0  0  0  0  0  0  0  0  0  0  0  0
    4.8637   -1.5833    0.6199 C   0  0  0  0  0  0  0  0  0  0  0  0
    4.1626   -0.6507   -0.1283 C   0  0  0  0  0  0  0  0  0  0  0  0
    2.7663   -0.7524   -0.3402 N   0  0  0  0  0  0  0  0  0  0  0  0
    2.0556   -2.0072   -0.2230 C   0  0  0  0  0  0  0  0  0  0  0  0
    0.8467   -1.8670    0.6831 C   0  0  0  0  0  0  0  0  0  0  0  0
    0.1755   -0.6214    0.4968 N   0  0  0  0  0  0  0  0  0  0  0  0
   -1.2249   -0.4955    0.3042 C   0  0  0  0  0  0  0  0  0  0  0  0
   -1.8808   -1.5433   -0.2763 C   0  0  0  0  0  0  0  0  0  0  0  0
   -3.2452   -1.4666   -0.4674 C   0  0  0  0  0  0  0  0  0  0  0  0
   -3.9948   -0.3721   -0.0986 C   0  0  0  0  0  0  0  0  0  0  0  0
   -5.3684   -0.3003   -0.2941 O   0  0  0  0  0  0  0  0  0  0  0  0
   -6.0028   -1.4070   -0.8978 C   0  0  0  0  0  0  0  0  0  0  0  0
   -7.4757   -1.2213   -1.0622 C   0  0  2  0  0  0  0  0  0  0  0  0
   -7.8091   -0.0236   -1.9264 C   0  0  0  0  0  0  0  0  0  0  0  0
   -9.0951    0.3348   -1.5472 O   0  0  0  0  0  0  0  0  0  0  0  0
   -9.1721    0.1958   -0.1524 C   0  0  1  0  0  0  0  0  0  0  0  0
   -8.5339    1.4664    0.3760 C   0  0  0  0  0  0  0  0  0  0  0  0
   -9.1269    2.6415   -0.1581 N   0  0  0  0  0  0  0  0  0  0  0  0
  -10.0863    3.4480    0.2174 C   0  0  0  0  0  0  0  0  0  0  0  0
  -10.2957    4.4605   -0.6833 N   0  0  0  0  0  0  0  0  0  0  0  0
   -9.3942    4.2230   -1.6459 C   0  0  0  0  0  0  0  0  0  0  0  0
   -8.6937    3.1458   -1.3463 N   0  0  0  0  0  0  0  0  0  0  0  0
  -10.4595   -0.1477    0.4000 C   0  0  0  0  0  0  0  0  0  0  0  0
  -11.0827    0.5050    1.4150 C   0  0  0  0  0  0  0  0  0  0  0  0
  -12.3035    0.0853    1.9823 C   0  0  0  0  0  0  0  0  0  0  0  0
  -12.9081   -1.0426    1.4973 C   0  0  0  0  0  0  0  0  0  0  0  0
  -14.0811   -1.4619    2.0291 F   0  0  0  0  0  0  0  0  0  0  0  0
  -12.2895   -1.7155    0.4725 C   0  0  0  0  0  0  0  0  0  0  0  0
  -11.1015   -1.2964   -0.0725 C   0  0  0  0  0  0  0  0  0  0  0  0
  -10.5029   -1.9686   -1.0840 F   0  0  0  0  0  0  0  0  0  0  0  0
   -8.2108   -0.9458    0.2023 C   0  0  0  0  0  0  0  0  0  0  0  0
   -3.2852    0.6636    0.4853 C   0  0  0  0  0  0  0  0  0  0  0  0
   -1.9269    0.6234    0.6921 C   0  0  0  0  0  0  0  0  0  0  0  0
    0.9728    0.5971    0.4797 C   0  0  0  0  0  0  0  0  0  0  0  0
    1.9878    0.4073   -0.6693 C   0  0  0  0  0  0  0  0  0  0  0  0
    4.9132    0.3681   -0.6685 C   0  0  0  0  0  0  0  0  0  0  0  0
    6.2802    0.4299   -0.4593 C   0  0  0  0  0  0  0  0  0  0  0  0
    9.2689    0.0552   -0.4785 C   0  0  0  0  0  0  0  0  0  0  0  0
    8.9546    0.3666   -1.6499 O   0  0  0  0  0  0  0  0  0  0  0  0
   11.6641    3.6612    0.5004 H   0  0  0  0  0  0  0  0  0  0  0  0
   10.9525    3.0362   -1.0561 H   0  0  0  0  0  0  0  0  0  0  0  0
   10.3479    2.3692    0.4734 H   0  0  0  0  0  0  0  0  0  0  0  0
   13.1309    2.0315   -0.7859 H   0  0  0  0  0  0  0  0  0  0  0  0
   12.7319    1.5577    0.9501 H   0  0  0  0  0  0  0  0  0  0  0  0
   11.4901    0.7393   -1.7298 H   0  0  0  0  0  0  0  0  0  0  0  0
   12.1243   -1.5242   -1.2612 H   0  0  0  0  0  0  0  0  0  0  0  0
   13.8120   -0.2509    0.9761 H   0  0  0  0  0  0  0  0  0  0  0  0
   13.9656   -1.9504    0.3587 H   0  0  0  0  0  0  0  0  0  0  0  0
   12.4533   -1.4878    1.2175 H   0  0  0  0  0  0  0  0  0  0  0  0
   13.4197   -0.0292   -2.4784 H   0  0  0  0  0  0  0  0  0  0  0  0
    8.7087   -0.9338    2.5104 H   0  0  0  0  0  0  0  0  0  0  0  0
    6.7481   -2.2651    1.4174 H   0  0  0  0  0  0  0  0  0  0  0  0
    4.3101   -2.3904    1.0606 H   0  0  0  0  0  0  0  0  0  0  0  0
    1.7063   -2.2332   -1.2769 H   0  0  0  0  0  0  0  0  0  0  0  0
    2.6459   -2.8633    0.0752 H   0  0  0  0  0  0  0  0  0  0  0  0
    0.1974   -2.7317    0.5277 H   0  0  0  0  0  0  0  0  0  0  0  0
    1.2076   -1.9417    1.7351 H   0  0  0  0  0  0  0  0  0  0  0  0
   -1.3758   -2.4633   -0.6149 H   0  0  0  0  0  0  0  0  0  0  0  0
   -3.7889   -2.2930   -0.9298 H   0  0  0  0  0  0  0  0  0  0  0  0
   -5.5283   -1.7011   -1.8486 H   0  0  0  0  0  0  0  0  0  0  0  0
   -5.8525   -2.2814   -0.2012 H   0  0  0  0  0  0  0  0  0  0  0  0
   -7.8703   -2.1067   -1.6071 H   0  0  0  0  0  0  0  0  0  0  0  0
   -7.0919    0.8079   -1.7892 H   0  0  0  0  0  0  0  0  0  0  0  0
   -7.8490   -0.3363   -3.0028 H   0  0  0  0  0  0  0  0  0  0  0  0
   -7.4512    1.4194    0.1161 H   0  0  0  0  0  0  0  0  0  0  0  0
   -8.6420    1.4330    1.4863 H   0  0  0  0  0  0  0  0  0  0  0  0
  -10.7005    3.4291    1.1086 H   0  0  0  0  0  0  0  0  0  0  0  0
   -9.2297    4.8101   -2.5616 H   0  0  0  0  0  0  0  0  0  0  0  0
  -10.6661    1.3538    1.8894 H   0  0  0  0  0  0  0  0  0  0  0  0
  -12.7734    0.6132    2.7752 H   0  0  0  0  0  0  0  0  0  0  0  0
  -12.7716   -2.6076    0.0930 H   0  0  0  0  0  0  0  0  0  0  0  0
   -8.7866   -1.8761    0.4629 H   0  0  0  0  0  0  0  0  0  0  0  0
   -7.5653   -0.6686    1.0579 H   0  0  0  0  0  0  0  0  0  0  0  0
   -3.8611    1.5438    0.7860 H   0  0  0  0  0  0  0  0  0  0  0  0
   -1.4003    1.4429    1.1559 H   0  0  0  0  0  0  0  0  0  0  0  0
    1.5732    0.5838    1.4195 H   0  0  0  0  0  0  0  0  0  0  0  0
    0.3930    1.5041    0.3318 H   0  0  0  0  0  0  0  0  0  0  0  0
    2.6022    1.2971   -0.7711 H   0  0  0  0  0  0  0  0  0  0  0  0
    1.4388    0.2823   -1.6312 H   0  0  0  0  0  0  0  0  0  0  0  0
    4.4718    1.1553   -1.2823 H   0  0  0  0  0  0  0  0  0  0  0  0
    6.8541    1.2468   -0.8975 H   0  0  0  0  0  0  0  0  0  0  0  0
  1  2  1  0
  2  3  1  0
  3  4  1  0
  4  5  1  0
  4  6  1  0
  3  7  1  0
  7  8  1  0
  8  9  2  0
  9 10  1  0
 10 11  1  0
 11 12  2  0
 12 13  1  0
 13 14  2  0
 14 15  1  0
 15 16  1  0
 16 17  1  0
 17 18  1  0
 18 19  1  0
 19 20  2  0
 20 21  1  0
 21 22  2  0
 22 23  1  0
 23 24  1  0
 24 25  1  0
 25 26  1  0
 26 27  1  0
 27 28  1  0
 28 29  1  1
 29 30  1  0
 30 31  1  0
 31 32  2  0
 32 33  1  0
 33 34  2  0
 28 35  1  0
 35 36  2  0
 36 37  1  0
 37 38  2  0
 38 39  1  0
 38 40  1  0
 40 41  2  0
 41 42  1  0
 28 43  1  0
 22 44  1  0
 44 45  2  0
 18 46  1  0
 46 47  1  0
 14 48  1  0
 48 49  2  0
 10 50  1  0
 50 51  2  0
 50  7  1  0
 49 11  1  0
 47 15  1  0
 45 19  1  0
 43 25  1  0
 34 30  1  0
 41 35  1  0
  1 52  1  0
  1 53  1  0
  1 54  1  0
  2 55  1  0
  2 56  1  0
  3 57  1  6
  4 58  1  6
  5 59  1  0
  5 60  1  0
  5 61  1  0
  6 62  1  0
  9 63  1  0
 12 64  1  0
 13 65  1  0
 16 66  1  0
 16 67  1  0
 17 68  1  0
 17 69  1  0
 20 70  1  0
 21 71  1  0
 24 72  1  0
 24 73  1  0
 25 74  1  6
 26 75  1  0
 26 76  1  0
 29 77  1  0
 29 78  1  0
 31 79  1  0
 33 80  1  0
 36 81  1  0
 37 82  1  0
 40 83  1  0
 43 84  1  0
 43 85  1  0
 44 86  1  0
 45 87  1  0
 46 88  1  0
 46 89  1  0
 47 90  1  0
 47 91  1  0
 48 92  1  0
 49 93  1  0
M  END
$$$$
