@<TRIPOS>MOLECULE
*****
 38 39 0 0 0
SMALL
GASTEIGER

@<TRIPOS>ATOM
      1 C           3.4462   -1.2893   -0.4906 C.3     1  UNL1       -0.0130
      2 N           2.7989   -0.0460   -0.3693 N.3     1  UNL1       -0.3083
      3 C           2.9685    0.7067    0.8072 C.3     1  UNL1       -0.0130
      4 C           1.8620    0.3540   -1.3315 C.3     1  UNL1       -0.0008
      5 C           0.5833   -0.4519   -1.3486 C.3     1  UNL1       -0.0279
      6 C          -0.1360   -0.3672   -0.0204 C.3     1  UNL1        0.0275
      7 C          -1.3854   -1.1437   -0.0110 C.ar    1  UNL1       -0.0384
      8 C          -1.7519   -1.8786    1.1175 C.ar    1  UNL1       -0.0569
      9 C          -2.9176   -2.6315    1.1904 C.ar    1  UNL1       -0.0475
     10 C          -3.7573   -2.6617    0.1064 C.ar    1  UNL1        0.0179
     11 BR         -5.3664   -3.6619    0.1209 Br      1  UNL1       -0.0503
     12 C          -3.4393   -1.9541   -1.0285 C.ar    1  UNL1       -0.0475
     13 C          -2.2680   -1.2156   -1.0617 C.ar    1  UNL1       -0.0569
     14 C          -0.3359    1.0340    0.4398 C.ar    1  UNL1        0.0487
     15 C          -0.2611    1.5310    1.7278 C.ar    1  UNL1       -0.0398
     16 C          -0.4853    2.8876    1.9254 C.ar    1  UNL1       -0.0586
     17 C          -0.7745    3.6826    0.8192 C.ar    1  UNL1       -0.0436
     18 C          -0.8456    3.1815   -0.4448 C.ar    1  UNL1        0.0279
     19 N          -0.6210    1.8470   -0.6077 N.ar    1  UNL1       -0.2593
     20 H           3.1052   -2.0732    0.2019 H       1  UNL1        0.0391
     21 H           3.4503   -1.5900   -1.5620 H       1  UNL1        0.0391
     22 H           4.5402   -1.1449   -0.2545 H       1  UNL1        0.0391
     23 H           2.7220    0.1657    1.7504 H       1  UNL1        0.0391
     24 H           2.4708    1.6731    0.7668 H       1  UNL1        0.0391
     25 H           4.0715    0.9386    0.8912 H       1  UNL1        0.0391
     26 H           2.3133    0.2501   -2.3549 H       1  UNL1        0.0427
     27 H           1.6468    1.4199   -1.2194 H       1  UNL1        0.0427
     28 H           0.7509   -1.5129   -1.5562 H       1  UNL1        0.0287
     29 H          -0.1209   -0.0842   -2.1226 H       1  UNL1        0.0287
     30 H           0.5556   -0.8417    0.7206 H       1  UNL1        0.0413
     31 H          -1.0874   -1.8517    1.9696 H       1  UNL1        0.0621
     32 H          -3.1335   -3.1718    2.0946 H       1  UNL1        0.0629
     33 H          -4.0843   -1.9666   -1.8853 H       1  UNL1        0.0629
     34 H          -2.0593   -0.6817   -1.9596 H       1  UNL1        0.0621
     35 H          -0.0260    0.7747    2.4713 H       1  UNL1        0.0636
     36 H          -0.4151    3.2197    2.9412 H       1  UNL1        0.0619
     37 H          -0.9411    4.7330    1.0259 H       1  UNL1        0.0633
     38 H          -1.0725    3.8210   -1.2922 H       1  UNL1        0.0829
@<TRIPOS>BOND
     1     1     2    1
     2     2     3    1
     3     2     4    1
     4     4     5    1
     5     5     6    1
     6     6     7    1
     7     7     8   ar
     8     8     9   ar
     9     9    10   ar
    10    10    11    1
    11    10    12   ar
    12    12    13   ar
    13     6    14    1
    14    14    15   ar
    15    15    16   ar
    16    16    17   ar
    17    17    18   ar
    18    18    19   ar
    19    13     7   ar
    20    19    14   ar
    21     1    20    1
    22     1    21    1
    23     1    22    1
    24     3    23    1
    25     3    24    1
    26     3    25    1
    27     4    26    1
    28     4    27    1
    29     5    28    1
    30     5    29    1
    31     6    30    1
    32     8    31    1
    33     9    32    1
    34    12    33    1
    35    13    34    1
    36    15    35    1
    37    16    36    1
    38    17    37    1
    39    18    38    1
