@<TRIPOS>MOLECULE
*****
 55 59 0 0 0
SMALL
GASTEIGER

@<TRIPOS>ATOM
      1 C          -3.0821    1.2413   -3.1063 C.3     1  UNL1       -0.0203
      2 C          -2.7372    0.1837   -2.1180 C.ar    1  UNL1        0.0660
      3 N          -3.6216   -0.7417   -1.7120 N.ar    1  UNL1       -0.1754
      4 N          -3.0055   -1.5311   -0.8358 N.ar    1  UNL1       -0.2559
      5 C          -3.6131   -2.6617   -0.1566 C.3     1  UNL1        0.0768
      6 C          -4.2136   -2.1545    1.1188 C.3     1  UNL1        0.1692
      7 O          -3.2050   -1.5994    1.8908 O.3     1  UNL1       -0.3812
      8 C          -4.9018   -3.2453    1.9089 C.3     1  UNL1        0.4171
      9 F          -3.9746   -4.2175    2.2225 F       1  UNL1       -0.1679
     10 F          -5.3189   -2.6957    3.1132 F       1  UNL1       -0.1679
     11 F          -5.9951   -3.7415    1.2650 F       1  UNL1       -0.1679
     12 C          -1.7319   -1.1313   -0.6669 C.ar    1  UNL1        0.1294
     13 C          -1.5600   -0.0531   -1.4710 C.ar    1  UNL1        0.0304
     14 C          -0.1806    0.4936   -1.3587 C.3     1  UNL1        0.0854
     15 C          -0.2770    1.8965   -0.9096 C.ar    1  UNL1       -0.0221
     16 C          -0.5608    2.2107    0.3996 C.ar    1  UNL1       -0.0551
     17 C          -0.6615    3.5347    0.8037 C.ar    1  UNL1       -0.0431
     18 C          -0.4755    4.5482   -0.1152 C.ar    1  UNL1        0.0410
     19 CL         -0.5917    6.2410    0.3429 Cl      1  UNL1       -0.0835
     20 C          -0.1927    4.2333   -1.4198 C.ar    1  UNL1       -0.0431
     21 C          -0.0969    2.9263   -1.8017 C.ar    1  UNL1       -0.0551
     22 N           0.5058   -0.3772   -0.4399 N.am    1  UNL1       -0.2531
     23 C           1.8689   -0.2707   -0.0486 C.ar    1  UNL1        0.0545
     24 C           2.6938    0.7144   -0.5992 C.ar    1  UNL1       -0.0324
     25 C           4.0197    0.8722   -0.2565 C.ar    1  UNL1       -0.0041
     26 C           4.8617    1.9339   -0.8666 C.3     1  UNL1       -0.0361
     27 C           4.5232   -0.0012    0.6772 C.ar    1  UNL1        0.1641
     28 N           5.7510   -0.0938    1.2000 N.ar    1  UNL1       -0.1292
     29 N           5.7926   -1.0886    2.0714 N.ar    1  UNL1       -0.1340
     30 C           4.5542   -1.6357    2.0955 C.ar    1  UNL1        0.1347
     31 C           4.1854   -2.7879    2.9543 C.3     1  UNL1       -0.0041
     32 N           3.7722   -0.9602    1.2317 N.ar    1  UNL1       -0.2846
     33 C           2.4618   -1.0975    0.8771 C.ar    1  UNL1        0.0344
     34 C          -0.4350   -1.3464   -0.0081 C.2     1  UNL1        0.2700
     35 O          -0.2916   -2.2932    0.8110 O.2     1  UNL1       -0.2679
     36 H          -3.6499    0.7477   -3.9209 H       1  UNL1        0.0293
     37 H          -3.7633    1.9598   -2.5684 H       1  UNL1        0.0293
     38 H          -2.1766    1.7620   -3.4637 H       1  UNL1        0.0293
     39 H          -4.4154   -3.0561   -0.8166 H       1  UNL1        0.0538
     40 H          -2.8214   -3.4153    0.0397 H       1  UNL1        0.0538
     41 H          -4.9204   -1.3368    0.8691 H       1  UNL1        0.0702
     42 H          -2.7409   -2.2237    2.4714 H       1  UNL1        0.2102
     43 H           0.2819    0.4260   -2.3646 H       1  UNL1        0.0606
     44 H          -0.7154    1.4487    1.1598 H       1  UNL1        0.0621
     45 H          -0.8827    3.8059    1.8231 H       1  UNL1        0.0632
     46 H          -0.0369    5.0080   -2.1859 H       1  UNL1        0.0632
     47 H           0.1291    2.6653   -2.8442 H       1  UNL1        0.0621
     48 H           2.2439    1.3713   -1.3339 H       1  UNL1        0.0640
     49 H           4.4823    2.0503   -1.9205 H       1  UNL1        0.0279
     50 H           5.9280    1.7066   -0.8330 H       1  UNL1        0.0279
     51 H           4.6314    2.8803   -0.3028 H       1  UNL1        0.0279
     52 H           4.6586   -2.6986    3.9487 H       1  UNL1        0.0308
     53 H           3.0663   -2.8018    3.0248 H       1  UNL1        0.0308
     54 H           4.5507   -3.7222    2.4831 H       1  UNL1        0.0308
     55 H           1.8839   -1.8821    1.3446 H       1  UNL1        0.0833
@<TRIPOS>BOND
     1     1     2    1
     2     2     3   ar
     3     3     4   ar
     4     4     5    1
     5     5     6    1
     6     6     7    1
     7     6     8    1
     8     8     9    1
     9     8    10    1
    10     8    11    1
    11     4    12   ar
    12    12    13   ar
    13    13    14    1
    14    14    15    1
    15    15    16   ar
    16    16    17   ar
    17    17    18   ar
    18    18    19    1
    19    18    20   ar
    20    20    21   ar
    21    14    22    1
    22    22    23    1
    23    23    24   ar
    24    24    25   ar
    25    25    26    1
    26    25    27   ar
    27    27    28   ar
    28    28    29   ar
    29    29    30   ar
    30    30    31    1
    31    30    32   ar
    32    32    33   ar
    33    22    34   am
    34    34    35    2
    35    13     2   ar
    36    21    15   ar
    37    33    23   ar
    38    34    12    1
    39    32    27   ar
    40     1    36    1
    41     1    37    1
    42     1    38    1
    43     5    39    1
    44     5    40    1
    45     6    41    1
    46     7    42    1
    47    14    43    1
    48    16    44    1
    49    17    45    1
    50    20    46    1
    51    21    47    1
    52    24    48    1
    53    26    49    1
    54    26    50    1
    55    26    51    1
    56    31    52    1
    57    31    53    1
    58    31    54    1
    59    33    55    1
