
     RDKit          3D

 55 59  0  0  0  0  0  0  0  0999 V2000
   -3.0821    1.2413   -3.1063 C   0  0  0  0  0  0  0  0  0  0  0  0
   -2.7372    0.1837   -2.1180 C   0  0  0  0  0  0  0  0  0  0  0  0
   -3.6216   -0.7417   -1.7120 N   0  0  0  0  0  0  0  0  0  0  0  0
   -3.0055   -1.5311   -0.8358 N   0  0  0  0  0  0  0  0  0  0  0  0
   -3.6131   -2.6617   -0.1566 C   0  0  0  0  0  0  0  0  0  0  0  0
   -4.2136   -2.1545    1.1188 C   0  0  2  0  0  0  0  0  0  0  0  0
   -3.2050   -1.5994    1.8908 O   0  0  0  0  0  0  0  0  0  0  0  0
   -4.9018   -3.2453    1.9089 C   0  0  0  0  0  0  0  0  0  0  0  0
   -3.9746   -4.2175    2.2225 F   0  0  0  0  0  0  0  0  0  0  0  0
   -5.3189   -2.6957    3.1132 F   0  0  0  0  0  0  0  0  0  0  0  0
   -5.9951   -3.7415    1.2650 F   0  0  0  0  0  0  0  0  0  0  0  0
   -1.7319   -1.1313   -0.6669 C   0  0  0  0  0  0  0  0  0  0  0  0
   -1.5600   -0.0531   -1.4710 C   0  0  0  0  0  0  0  0  0  0  0  0
   -0.1806    0.4936   -1.3587 C   0  0  1  0  0  0  0  0  0  0  0  0
   -0.2770    1.8965   -0.9096 C   0  0  0  0  0  0  0  0  0  0  0  0
   -0.5608    2.2107    0.3996 C   0  0  0  0  0  0  0  0  0  0  0  0
   -0.6615    3.5347    0.8037 C   0  0  0  0  0  0  0  0  0  0  0  0
   -0.4755    4.5482   -0.1152 C   0  0  0  0  0  0  0  0  0  0  0  0
   -0.5917    6.2410    0.3429 Cl  0  0  0  0  0  0  0  0  0  0  0  0
   -0.1927    4.2333   -1.4198 C   0  0  0  0  0  0  0  0  0  0  0  0
   -0.0969    2.9263   -1.8017 C   0  0  0  0  0  0  0  0  0  0  0  0
    0.5058   -0.3772   -0.4399 N   0  0  0  0  0  0  0  0  0  0  0  0
    1.8689   -0.2707   -0.0486 C   0  0  0  0  0  0  0  0  0  0  0  0
    2.6938    0.7144   -0.5992 C   0  0  0  0  0  0  0  0  0  0  0  0
    4.0197    0.8722   -0.2565 C   0  0  0  0  0  0  0  0  0  0  0  0
    4.8617    1.9339   -0.8666 C   0  0  0  0  0  0  0  0  0  0  0  0
    4.5232   -0.0012    0.6772 C   0  0  0  0  0  0  0  0  0  0  0  0
    5.7510   -0.0938    1.2000 N   0  0  0  0  0  0  0  0  0  0  0  0
    5.7926   -1.0886    2.0714 N   0  0  0  0  0  0  0  0  0  0  0  0
    4.5542   -1.6357    2.0955 C   0  0  0  0  0  0  0  0  0  0  0  0
    4.1854   -2.7879    2.9543 C   0  0  0  0  0  0  0  0  0  0  0  0
    3.7722   -0.9602    1.2317 N   0  0  0  0  0  0  0  0  0  0  0  0
    2.4618   -1.0975    0.8771 C   0  0  0  0  0  0  0  0  0  0  0  0
   -0.4350   -1.3464   -0.0081 C   0  0  0  0  0  0  0  0  0  0  0  0
   -0.2916   -2.2932    0.8110 O   0  0  0  0  0  0  0  0  0  0  0  0
   -3.6499    0.7477   -3.9209 H   0  0  0  0  0  0  0  0  0  0  0  0
   -3.7633    1.9598   -2.5684 H   0  0  0  0  0  0  0  0  0  0  0  0
   -2.1766    1.7620   -3.4637 H   0  0  0  0  0  0  0  0  0  0  0  0
   -4.4154   -3.0561   -0.8166 H   0  0  0  0  0  0  0  0  0  0  0  0
   -2.8214   -3.4153    0.0397 H   0  0  0  0  0  0  0  0  0  0  0  0
   -4.9204   -1.3368    0.8691 H   0  0  0  0  0  0  0  0  0  0  0  0
   -2.7409   -2.2237    2.4714 H   0  0  0  0  0  0  0  0  0  0  0  0
    0.2819    0.4260   -2.3646 H   0  0  0  0  0  0  0  0  0  0  0  0
   -0.7154    1.4487    1.1598 H   0  0  0  0  0  0  0  0  0  0  0  0
   -0.8827    3.8059    1.8231 H   0  0  0  0  0  0  0  0  0  0  0  0
   -0.0369    5.0080   -2.1859 H   0  0  0  0  0  0  0  0  0  0  0  0
    0.1291    2.6653   -2.8442 H   0  0  0  0  0  0  0  0  0  0  0  0
    2.2439    1.3713   -1.3339 H   0  0  0  0  0  0  0  0  0  0  0  0
    4.4823    2.0503   -1.9205 H   0  0  0  0  0  0  0  0  0  0  0  0
    5.9280    1.7066   -0.8330 H   0  0  0  0  0  0  0  0  0  0  0  0
    4.6314    2.8803   -0.3028 H   0  0  0  0  0  0  0  0  0  0  0  0
    4.6586   -2.6986    3.9487 H   0  0  0  0  0  0  0  0  0  0  0  0
    3.0663   -2.8018    3.0248 H   0  0  0  0  0  0  0  0  0  0  0  0
    4.5507   -3.7222    2.4831 H   0  0  0  0  0  0  0  0  0  0  0  0
    1.8839   -1.8821    1.3446 H   0  0  0  0  0  0  0  0  0  0  0  0
  1  2  1  0
  2  3  2  0
  3  4  1  0
  4  5  1  0
  5  6  1  0
  6  7  1  0
  6  8  1  0
  8  9  1  0
  8 10  1  0
  8 11  1  0
  4 12  1  0
 12 13  2  0
 13 14  1  0
 14 15  1  0
 15 16  2  0
 16 17  1  0
 17 18  2  0
 18 19  1  0
 18 20  1  0
 20 21  2  0
 14 22  1  0
 22 23  1  0
 23 24  1  0
 24 25  2  0
 25 26  1  0
 25 27  1  0
 27 28  2  0
 28 29  1  0
 29 30  2  0
 30 31  1  0
 30 32  1  0
 32 33  1  0
 22 34  1  0
 34 35  2  0
 13  2  1  0
 21 15  1  0
 33 23  2  0
 34 12  1  0
 32 27  1  0
  1 36  1  0
  1 37  1  0
  1 38  1  0
  5 39  1  0
  5 40  1  0
  6 41  1  6
  7 42  1  0
 14 43  1  6
 16 44  1  0
 17 45  1  0
 20 46  1  0
 21 47  1  0
 24 48  1  0
 26 49  1  0
 26 50  1  0
 26 51  1  0
 31 52  1  0
 31 53  1  0
 31 54  1  0
 33 55  1  0
M  END
$$$$
