@<TRIPOS>MOLECULE
*****
 68 70 0 0 0
SMALL
GASTEIGER

@<TRIPOS>ATOM
      1 C           1.4686   -5.0013   -0.3792 C.3     1  UNL1       -0.0652
      2 C           0.5145   -4.9423    0.8160 C.3     1  UNL1       -0.0544
      3 C           0.8298   -3.7162    1.6596 C.3     1  UNL1       -0.0357
      4 C           0.6408   -2.5135    0.7583 C.3     1  UNL1        0.0350
      5 N           0.9211   -1.2721    1.4777 N.pl3   1  UNL1       -0.2027
      6 C           2.2647   -0.8119    1.4370 C.ar    1  UNL1        0.0547
      7 C           3.0821   -1.1894    2.5203 C.ar    1  UNL1       -0.0388
      8 C           4.3578   -0.7117    2.5569 C.ar    1  UNL1       -0.0594
      9 C           4.8988    0.1147    1.6066 C.ar    1  UNL1       -0.0537
     10 C           4.0776    0.4817    0.5358 C.ar    1  UNL1       -0.0132
     11 C           4.6098    1.3998   -0.4864 C.ar    1  UNL1       -0.0175
     12 C           5.6851    1.0195   -1.2379 C.ar    1  UNL1       -0.0526
     13 C           6.2537    1.8589   -2.2002 C.ar    1  UNL1       -0.0428
     14 C           5.7203    3.1099   -2.4044 C.ar    1  UNL1        0.0410
     15 CL          6.3988    4.2133   -3.6089 Cl      1  UNL1       -0.0835
     16 C           4.6364    3.4885   -1.6437 C.ar    1  UNL1       -0.0428
     17 C           4.0679    2.6456   -0.6788 C.ar    1  UNL1       -0.0526
     18 C           2.7956    0.0096    0.4818 C.ar    1  UNL1       -0.0202
     19 C           1.9805    0.3134   -0.7408 C.3     1  UNL1       -0.0373
     20 S          -0.2997   -0.4366    2.3155 S.O2    1  UNL1        0.0750
     21 O           0.3550    0.6773    3.1244 O.2     1  UNL1       -0.1498
     22 O          -0.8360   -1.3965    3.3974 O.2     1  UNL1       -0.1498
     23 C          -1.6287    0.1514    1.4071 C.ar    1  UNL1        0.1121
     24 C          -2.8182   -0.5862    1.4319 C.ar    1  UNL1       -0.0313
     25 C          -3.9044   -0.2095    0.6746 C.ar    1  UNL1       -0.0178
     26 C          -3.8921    0.8865   -0.1338 C.ar    1  UNL1        0.1249
     27 O          -4.9717    1.2844   -0.9056 O.3     1  UNL1       -0.4776
     28 C          -6.2146    0.6684   -0.9970 C.3     1  UNL1        0.1931
     29 C          -6.6016    0.3980   -2.4599 C.3     1  UNL1       -0.0172
     30 C          -7.2548    1.6472   -0.5205 C.2     1  UNL1        0.3456
     31 O          -6.9283    2.7854   -0.1354 O.2     1  UNL1       -0.2468
     32 O          -8.5836    1.2495   -0.5213 O.3     1  UNL1       -0.4781
     33 C          -2.7089    1.6323   -0.1659 C.ar    1  UNL1       -0.0040
     34 C          -2.6286    2.8375   -1.0258 C.3     1  UNL1       -0.0359
     35 C          -1.6118    1.2396    0.6097 C.ar    1  UNL1       -0.0175
     36 C          -0.4407    2.1406    0.5589 C.3     1  UNL1       -0.0375
     37 H           2.4770   -4.6491   -0.1135 H       1  UNL1        0.0230
     38 H           1.0701   -4.3813   -1.2188 H       1  UNL1        0.0230
     39 H           1.5727   -6.0453   -0.7571 H       1  UNL1        0.0230
     40 H          -0.5292   -4.8184    0.4601 H       1  UNL1        0.0263
     41 H           0.6042   -5.8455    1.4352 H       1  UNL1        0.0263
     42 H           0.0983   -3.7236    2.4942 H       1  UNL1        0.0281
     43 H           1.8659   -3.8310    2.0167 H       1  UNL1        0.0281
     44 H          -0.3888   -2.5475    0.3827 H       1  UNL1        0.0482
     45 H           1.3150   -2.6476   -0.1131 H       1  UNL1        0.0482
     46 H           2.6838   -1.8460    3.2955 H       1  UNL1        0.0637
     47 H           5.0040   -1.0091    3.4108 H       1  UNL1        0.0618
     48 H           5.9086    0.4908    1.6408 H       1  UNL1        0.0624
     49 H           6.1034    0.0499   -1.0840 H       1  UNL1        0.0624
     50 H           7.1027    1.5707   -2.8003 H       1  UNL1        0.0632
     51 H           4.2285    4.4877   -1.8229 H       1  UNL1        0.0632
     52 H           3.2295    3.0345   -0.1144 H       1  UNL1        0.0624
     53 H           0.9605   -0.0988   -0.5895 H       1  UNL1        0.0278
     54 H           2.3888   -0.2752   -1.6025 H       1  UNL1        0.0278
     55 H           1.8976    1.3717   -0.9513 H       1  UNL1        0.0278
     56 H          -2.9080   -1.4773    2.0541 H       1  UNL1        0.0638
     57 H          -4.8146   -0.8252    0.7317 H       1  UNL1        0.0655
     58 H          -6.3496   -0.2326   -0.3925 H       1  UNL1        0.0849
     59 H          -6.2962    1.2709   -3.0604 H       1  UNL1        0.0271
     60 H          -6.1494   -0.5559   -2.8083 H       1  UNL1        0.0271
     61 H          -7.6954    0.3296   -2.4890 H       1  UNL1        0.0271
     62 H          -9.3490    1.8743   -0.3068 H       1  UNL1        0.2952
     63 H          -2.3569    3.6900   -0.3373 H       1  UNL1        0.0279
     64 H          -3.6019    3.0829   -1.4531 H       1  UNL1        0.0279
     65 H          -1.8312    2.7453   -1.7992 H       1  UNL1        0.0279
     66 H          -0.1785    2.4048   -0.5066 H       1  UNL1        0.0278
     67 H          -0.7313    3.1529    0.9880 H       1  UNL1        0.0278
     68 H           0.4341    1.7880    1.1257 H       1  UNL1        0.0278
@<TRIPOS>BOND
     1     1     2    1
     2     2     3    1
     3     3     4    1
     4     4     5    1
     5     5     6    1
     6     6     7   ar
     7     7     8   ar
     8     8     9   ar
     9     9    10   ar
    10    10    11    1
    11    11    12   ar
    12    12    13   ar
    13    13    14   ar
    14    14    15    1
    15    14    16   ar
    16    16    17   ar
    17    10    18   ar
    18    18    19    1
    19     5    20    1
    20    20    21    2
    21    20    22    2
    22    20    23    1
    23    23    24   ar
    24    24    25   ar
    25    25    26   ar
    26    26    27    1
    27    27    28    1
    28    28    29    1
    29    28    30    1
    30    30    31    2
    31    30    32    1
    32    26    33   ar
    33    33    34    1
    34    33    35   ar
    35    35    36    1
    36    18     6   ar
    37    35    23   ar
    38    17    11   ar
    39     1    37    1
    40     1    38    1
    41     1    39    1
    42     2    40    1
    43     2    41    1
    44     3    42    1
    45     3    43    1
    46     4    44    1
    47     4    45    1
    48     7    46    1
    49     8    47    1
    50     9    48    1
    51    12    49    1
    52    13    50    1
    53    16    51    1
    54    17    52    1
    55    19    53    1
    56    19    54    1
    57    19    55    1
    58    24    56    1
    59    25    57    1
    60    28    58    1
    61    29    59    1
    62    29    60    1
    63    29    61    1
    64    32    62    1
    65    34    63    1
    66    34    64    1
    67    34    65    1
    68    36    66    1
    69    36    67    1
    70    36    68    1
