
     RDKit          3D

 68 70  0  0  0  0  0  0  0  0999 V2000
    1.4686   -5.0013   -0.3792 C   0  0  0  0  0  0  0  0  0  0  0  0
    0.5145   -4.9423    0.8160 C   0  0  0  0  0  0  0  0  0  0  0  0
    0.8298   -3.7162    1.6596 C   0  0  0  0  0  0  0  0  0  0  0  0
    0.6408   -2.5135    0.7583 C   0  0  0  0  0  0  0  0  0  0  0  0
    0.9211   -1.2721    1.4777 N   0  0  0  0  0  0  0  0  0  0  0  0
    2.2647   -0.8119    1.4370 C   0  0  0  0  0  0  0  0  0  0  0  0
    3.0821   -1.1894    2.5203 C   0  0  0  0  0  0  0  0  0  0  0  0
    4.3578   -0.7117    2.5569 C   0  0  0  0  0  0  0  0  0  0  0  0
    4.8988    0.1147    1.6066 C   0  0  0  0  0  0  0  0  0  0  0  0
    4.0776    0.4817    0.5358 C   0  0  0  0  0  0  0  0  0  0  0  0
    4.6098    1.3998   -0.4864 C   0  0  0  0  0  0  0  0  0  0  0  0
    5.6851    1.0195   -1.2379 C   0  0  0  0  0  0  0  0  0  0  0  0
    6.2537    1.8589   -2.2002 C   0  0  0  0  0  0  0  0  0  0  0  0
    5.7203    3.1099   -2.4044 C   0  0  0  0  0  0  0  0  0  0  0  0
    6.3988    4.2133   -3.6089 Cl  0  0  0  0  0  0  0  0  0  0  0  0
    4.6364    3.4885   -1.6437 C   0  0  0  0  0  0  0  0  0  0  0  0
    4.0679    2.6456   -0.6788 C   0  0  0  0  0  0  0  0  0  0  0  0
    2.7956    0.0096    0.4818 C   0  0  0  0  0  0  0  0  0  0  0  0
    1.9805    0.3134   -0.7408 C   0  0  0  0  0  0  0  0  0  0  0  0
   -0.2997   -0.4366    2.3155 S   0  0  0  0  0  6  0  0  0  0  0  0
    0.3550    0.6773    3.1244 O   0  0  0  0  0  0  0  0  0  0  0  0
   -0.8360   -1.3965    3.3974 O   0  0  0  0  0  0  0  0  0  0  0  0
   -1.6287    0.1514    1.4071 C   0  0  0  0  0  0  0  0  0  0  0  0
   -2.8182   -0.5862    1.4319 C   0  0  0  0  0  0  0  0  0  0  0  0
   -3.9044   -0.2095    0.6746 C   0  0  0  0  0  0  0  0  0  0  0  0
   -3.8921    0.8865   -0.1338 C   0  0  0  0  0  0  0  0  0  0  0  0
   -4.9717    1.2844   -0.9056 O   0  0  0  0  0  0  0  0  0  0  0  0
   -6.2146    0.6684   -0.9970 C   0  0  0  0  0  0  0  0  0  0  0  0
   -6.6016    0.3980   -2.4599 C   0  0  0  0  0  0  0  0  0  0  0  0
   -7.2548    1.6472   -0.5205 C   0  0  0  0  0  0  0  0  0  0  0  0
   -6.9283    2.7854   -0.1354 O   0  0  0  0  0  0  0  0  0  0  0  0
   -8.5836    1.2495   -0.5213 O   0  0  0  0  0  0  0  0  0  0  0  0
   -2.7089    1.6323   -0.1659 C   0  0  0  0  0  0  0  0  0  0  0  0
   -2.6286    2.8375   -1.0258 C   0  0  0  0  0  0  0  0  0  0  0  0
   -1.6118    1.2396    0.6097 C   0  0  0  0  0  0  0  0  0  0  0  0
   -0.4407    2.1406    0.5589 C   0  0  0  0  0  0  0  0  0  0  0  0
    2.4770   -4.6491   -0.1135 H   0  0  0  0  0  0  0  0  0  0  0  0
    1.0701   -4.3813   -1.2188 H   0  0  0  0  0  0  0  0  0  0  0  0
    1.5727   -6.0453   -0.7571 H   0  0  0  0  0  0  0  0  0  0  0  0
   -0.5292   -4.8184    0.4601 H   0  0  0  0  0  0  0  0  0  0  0  0
    0.6042   -5.8455    1.4352 H   0  0  0  0  0  0  0  0  0  0  0  0
    0.0983   -3.7236    2.4942 H   0  0  0  0  0  0  0  0  0  0  0  0
    1.8659   -3.8310    2.0167 H   0  0  0  0  0  0  0  0  0  0  0  0
   -0.3888   -2.5475    0.3827 H   0  0  0  0  0  0  0  0  0  0  0  0
    1.3150   -2.6476   -0.1131 H   0  0  0  0  0  0  0  0  0  0  0  0
    2.6838   -1.8460    3.2955 H   0  0  0  0  0  0  0  0  0  0  0  0
    5.0040   -1.0091    3.4108 H   0  0  0  0  0  0  0  0  0  0  0  0
    5.9086    0.4908    1.6408 H   0  0  0  0  0  0  0  0  0  0  0  0
    6.1034    0.0499   -1.0840 H   0  0  0  0  0  0  0  0  0  0  0  0
    7.1027    1.5707   -2.8003 H   0  0  0  0  0  0  0  0  0  0  0  0
    4.2285    4.4877   -1.8229 H   0  0  0  0  0  0  0  0  0  0  0  0
    3.2295    3.0345   -0.1144 H   0  0  0  0  0  0  0  0  0  0  0  0
    0.9605   -0.0988   -0.5895 H   0  0  0  0  0  0  0  0  0  0  0  0
    2.3888   -0.2752   -1.6025 H   0  0  0  0  0  0  0  0  0  0  0  0
    1.8976    1.3717   -0.9513 H   0  0  0  0  0  0  0  0  0  0  0  0
   -2.9080   -1.4773    2.0541 H   0  0  0  0  0  0  0  0  0  0  0  0
   -4.8146   -0.8252    0.7317 H   0  0  0  0  0  0  0  0  0  0  0  0
   -6.3496   -0.2326   -0.3925 H   0  0  0  0  0  0  0  0  0  0  0  0
   -6.2962    1.2709   -3.0604 H   0  0  0  0  0  0  0  0  0  0  0  0
   -6.1494   -0.5559   -2.8083 H   0  0  0  0  0  0  0  0  0  0  0  0
   -7.6954    0.3296   -2.4890 H   0  0  0  0  0  0  0  0  0  0  0  0
   -9.3490    1.8743   -0.3068 H   0  0  0  0  0  0  0  0  0  0  0  0
   -2.3569    3.6900   -0.3373 H   0  0  0  0  0  0  0  0  0  0  0  0
   -3.6019    3.0829   -1.4531 H   0  0  0  0  0  0  0  0  0  0  0  0
   -1.8312    2.7453   -1.7992 H   0  0  0  0  0  0  0  0  0  0  0  0
   -0.1785    2.4048   -0.5066 H   0  0  0  0  0  0  0  0  0  0  0  0
   -0.7313    3.1529    0.9880 H   0  0  0  0  0  0  0  0  0  0  0  0
    0.4341    1.7880    1.1257 H   0  0  0  0  0  0  0  0  0  0  0  0
  1  2  1  0
  2  3  1  0
  3  4  1  0
  4  5  1  0
  5  6  1  0
  6  7  2  0
  7  8  1  0
  8  9  2  0
  9 10  1  0
 10 11  1  0
 11 12  2  0
 12 13  1  0
 13 14  2  0
 14 15  1  0
 14 16  1  0
 16 17  2  0
 10 18  2  0
 18 19  1  0
  5 20  1  0
 20 21  2  0
 20 22  2  0
 20 23  1  0
 23 24  2  0
 24 25  1  0
 25 26  2  0
 26 27  1  0
 27 28  1  0
 28 29  1  0
 28 30  1  0
 30 31  2  0
 30 32  1  0
 26 33  1  0
 33 34  1  0
 33 35  2  0
 35 36  1  0
 18  6  1  0
 35 23  1  0
 17 11  1  0
  1 37  1  0
  1 38  1  0
  1 39  1  0
  2 40  1  0
  2 41  1  0
  3 42  1  0
  3 43  1  0
  4 44  1  0
  4 45  1  0
  7 46  1  0
  8 47  1  0
  9 48  1  0
 12 49  1  0
 13 50  1  0
 16 51  1  0
 17 52  1  0
 19 53  1  0
 19 54  1  0
 19 55  1  0
 24 56  1  0
 25 57  1  0
 28 58  1  0
 29 59  1  0
 29 60  1  0
 29 61  1  0
 32 62  1  0
 34 63  1  0
 34 64  1  0
 34 65  1  0
 36 66  1  0
 36 67  1  0
 36 68  1  0
M  END
$$$$
