@<TRIPOS>MOLECULE
*****
 40 41 0 0 0
SMALL
GASTEIGER

@<TRIPOS>ATOM
      1 C          -3.7206    1.4954   -0.8199 C.3     1  UNL1       -0.0120
      2 N          -2.6880    1.0338    0.0848 N.3     1  UNL1       -0.2946
      3 C          -3.1603    0.2500    1.1712 C.3     1  UNL1       -0.0007
      4 C          -2.9288   -1.2246    1.0359 C.3     1  UNL1       -0.0401
      5 C          -2.7273   -1.6603   -0.3907 C.3     1  UNL1       -0.0500
      6 C          -1.7021   -0.8592   -1.1279 C.3     1  UNL1       -0.0288
      7 C          -1.5373    0.5429   -0.6056 C.3     1  UNL1        0.0873
      8 C          -0.3027    0.6471    0.2449 C.2     1  UNL1        0.2344
      9 O          -0.0420    1.0583    1.4064 O.2     1  UNL1       -0.2737
     10 N           0.8070    0.1463   -0.4904 N.am    1  UNL1       -0.2837
     11 C           2.1531    0.0699   -0.0422 C.ar    1  UNL1        0.0393
     12 C           2.9656    1.1766   -0.2955 C.ar    1  UNL1       -0.0290
     13 C           2.4055    2.3649   -1.0075 C.3     1  UNL1       -0.0379
     14 C           4.2976    1.2136    0.0969 C.ar    1  UNL1       -0.0571
     15 C           4.8096    0.1204    0.7509 C.ar    1  UNL1       -0.0611
     16 C           4.0362   -0.9942    1.0198 C.ar    1  UNL1       -0.0571
     17 C           2.7122   -1.0182    0.6240 C.ar    1  UNL1       -0.0290
     18 C           1.8253   -2.1863    0.8823 C.3     1  UNL1       -0.0379
     19 H          -4.7086    1.2381   -0.4057 H       1  UNL1        0.0391
     20 H          -3.6199    0.9223   -1.7733 H       1  UNL1        0.0391
     21 H          -3.6191    2.5713   -1.0956 H       1  UNL1        0.0391
     22 H          -4.2459    0.4746    1.3177 H       1  UNL1        0.0427
     23 H          -2.6552    0.6386    2.0956 H       1  UNL1        0.0427
     24 H          -2.0711   -1.5757    1.6541 H       1  UNL1        0.0278
     25 H          -3.8252   -1.7688    1.4113 H       1  UNL1        0.0278
     26 H          -3.6911   -1.6777   -0.9337 H       1  UNL1        0.0266
     27 H          -2.3476   -2.7217   -0.3308 H       1  UNL1        0.0266
     28 H          -2.0094   -0.8633   -2.2078 H       1  UNL1        0.0285
     29 H          -0.7159   -1.3571   -1.1189 H       1  UNL1        0.0285
     30 H          -1.4033    1.1935   -1.4983 H       1  UNL1        0.0558
     31 H           0.9779   -0.2666   -1.4507 H       1  UNL1        0.1549
     32 H           3.0973    2.6779   -1.8036 H       1  UNL1        0.0278
     33 H           2.2725    3.2273   -0.2960 H       1  UNL1        0.0278
     34 H           1.3930    2.1100   -1.4066 H       1  UNL1        0.0278
     35 H           4.8738    2.1022   -0.1298 H       1  UNL1        0.0621
     36 H           5.8606    0.1424    1.0638 H       1  UNL1        0.0618
     37 H           4.4370   -1.8558    1.5345 H       1  UNL1        0.0621
     38 H           1.1564   -1.9506    1.7541 H       1  UNL1        0.0278
     39 H           2.4418   -3.0961    1.0813 H       1  UNL1        0.0278
     40 H           1.1990   -2.3413    0.0008 H       1  UNL1        0.0278
@<TRIPOS>BOND
     1     1     2    1
     2     2     3    1
     3     3     4    1
     4     4     5    1
     5     5     6    1
     6     6     7    1
     7     7     8    1
     8     8     9    2
     9     8    10   am
    10    10    11    1
    11    11    12   ar
    12    12    13    1
    13    12    14   ar
    14    14    15   ar
    15    15    16   ar
    16    16    17   ar
    17    17    18    1
    18     7     2    1
    19    17    11   ar
    20     1    19    1
    21     1    20    1
    22     1    21    1
    23     3    22    1
    24     3    23    1
    25     4    24    1
    26     4    25    1
    27     5    26    1
    28     5    27    1
    29     6    28    1
    30     6    29    1
    31     7    30    1
    32    10    31    1
    33    13    32    1
    34    13    33    1
    35    13    34    1
    36    14    35    1
    37    15    36    1
    38    16    37    1
    39    18    38    1
    40    18    39    1
    41    18    40    1
