@<TRIPOS>MOLECULE
*****
 68 71 0 0 0
SMALL
GASTEIGER

@<TRIPOS>ATOM
      1 C          -1.4659   -4.5721    2.8192 C.3     1  UNL1        0.0790
      2 O          -1.6499   -3.3547    2.1263 O.3     1  UNL1       -0.4914
      3 C          -2.6277   -3.1780    1.1563 C.ar    1  UNL1        0.1621
      4 C          -3.5348   -4.1280    0.7367 C.ar    1  UNL1       -0.0163
      5 C          -4.4718   -3.8592   -0.2357 C.ar    1  UNL1       -0.0581
      6 C          -4.5344   -2.6264   -0.8244 C.ar    1  UNL1       -0.0581
      7 C          -3.6463   -1.6374   -0.4389 C.ar    1  UNL1       -0.0157
      8 C          -2.7217   -1.9471    0.5398 C.ar    1  UNL1        0.1702
      9 O          -1.8211   -0.9364    0.9274 O.3     1  UNL1       -0.4435
     10 C          -1.8592    0.3204    0.3509 C.ar    1  UNL1        0.2307
     11 C          -1.1464    0.8649   -0.6912 C.ar    1  UNL1        0.1883
     12 N          -0.1827    0.0147   -1.2838 N.pl3   1  UNL1       -0.1963
     13 S           0.6962   -1.4320   -1.4794 S.O2    1  UNL1        0.0736
     14 O           0.5276   -1.9901   -2.8807 O.2     1  UNL1       -0.1499
     15 O           0.1656   -2.5428   -0.5713 O.2     1  UNL1       -0.1499
     16 C           2.4249   -1.2202   -1.1254 C.ar    1  UNL1        0.1086
     17 C           3.3147   -0.8569   -2.1384 C.ar    1  UNL1       -0.0348
     18 C           4.6510   -0.6997   -1.8344 C.ar    1  UNL1       -0.0562
     19 C           5.1268   -0.8922   -0.5596 C.ar    1  UNL1       -0.0419
     20 C           4.2524   -1.2520    0.4486 C.ar    1  UNL1       -0.0562
     21 C           2.9081   -1.4143    0.1627 C.ar    1  UNL1       -0.0348
     22 C           6.5681   -0.7318   -0.1888 C.3     1  UNL1       -0.0127
     23 C           6.8416    0.6900    0.2317 C.3     1  UNL1       -0.0560
     24 C           6.9221   -1.6730    0.9548 C.3     1  UNL1       -0.0560
     25 C           7.4394   -1.0326   -1.3893 C.3     1  UNL1       -0.0560
     26 N          -1.3525    2.1286   -1.0993 N.ar    1  UNL1       -0.2044
     27 C          -2.2686    2.8448   -0.4649 C.ar    1  UNL1        0.2027
     28 N          -2.9748    2.3437    0.5504 N.ar    1  UNL1       -0.1866
     29 C          -2.8101    1.0862    0.9993 C.ar    1  UNL1        0.2642
     30 O          -3.6119    0.7327    2.0446 O.3     1  UNL1       -0.4715
     31 C          -4.5637    1.5509    2.6680 C.3     1  UNL1        0.1143
     32 C          -5.6536    2.0521    1.7829 C.3     1  UNL1        0.0783
     33 O          -6.4037    1.0335    1.2060 O.3     1  UNL1       -0.3917
     34 C          -2.4246    4.2009   -0.9734 C.ar    1  UNL1        0.1978
     35 N          -3.3449    4.9548   -0.3531 N.ar    1  UNL1       -0.2331
     36 C          -3.5535    6.2305   -0.7645 C.ar    1  UNL1        0.0315
     37 C          -2.7956    6.7128   -1.8264 C.ar    1  UNL1       -0.0254
     38 C          -1.8404    5.9276   -2.4689 C.ar    1  UNL1        0.0315
     39 N          -1.6928    4.6653   -1.9981 N.ar    1  UNL1       -0.2331
     40 H          -1.6489   -5.3904    2.0638 H       1  UNL1        0.0660
     41 H          -2.1134   -4.6892    3.6991 H       1  UNL1        0.0660
     42 H          -0.3784   -4.6994    3.0784 H       1  UNL1        0.0660
     43 H          -3.4773   -5.0985    1.2076 H       1  UNL1        0.0655
     44 H          -5.1347   -4.6788   -0.4883 H       1  UNL1        0.0619
     45 H          -5.2819   -2.4198   -1.5967 H       1  UNL1        0.0619
     46 H          -3.6619   -0.6523   -0.8778 H       1  UNL1        0.0655
     47 H           0.3223    0.5195   -2.0553 H       1  UNL1        0.1754
     48 H           2.9523   -0.7028   -3.1447 H       1  UNL1        0.0637
     49 H           5.3693   -0.4195   -2.5904 H       1  UNL1        0.0621
     50 H           4.5449   -1.4218    1.4744 H       1  UNL1        0.0621
     51 H           2.2001   -1.6942    0.9252 H       1  UNL1        0.0637
     52 H           6.3419    0.9038    1.1879 H       1  UNL1        0.0238
     53 H           6.4983    1.3482   -0.6090 H       1  UNL1        0.0238
     54 H           7.9401    0.8262    0.3187 H       1  UNL1        0.0238
     55 H           7.9379   -2.0730    0.7792 H       1  UNL1        0.0238
     56 H           6.2149   -2.5083    1.0204 H       1  UNL1        0.0238
     57 H           6.9007   -1.1216    1.9266 H       1  UNL1        0.0238
     58 H           7.1015   -1.9981   -1.8435 H       1  UNL1        0.0238
     59 H           7.3576   -0.2212   -2.1159 H       1  UNL1        0.0238
     60 H           8.4954   -1.1785   -1.0309 H       1  UNL1        0.0238
     61 H          -4.9857    1.1268    3.5780 H       1  UNL1        0.0720
     62 H          -3.9992    2.4694    3.0065 H       1  UNL1        0.0720
     63 H          -5.2770    2.7920    1.0315 H       1  UNL1        0.0591
     64 H          -6.3461    2.6361    2.4237 H       1  UNL1        0.0591
     65 H          -6.2485    1.1162    0.2181 H       1  UNL1        0.2095
     66 H          -4.2994    6.8225   -0.2522 H       1  UNL1        0.0831
     67 H          -2.9627    7.7300   -2.1537 H       1  UNL1        0.0648
     68 H          -1.2479    6.2992   -3.2964 H       1  UNL1        0.0831
@<TRIPOS>BOND
     1     1     2    1
     2     2     3    1
     3     3     4   ar
     4     4     5   ar
     5     5     6   ar
     6     6     7   ar
     7     7     8   ar
     8     8     9    1
     9     9    10    1
    10    10    11   ar
    11    11    12    1
    12    12    13    1
    13    13    14    2
    14    13    15    2
    15    13    16    1
    16    16    17   ar
    17    17    18   ar
    18    18    19   ar
    19    19    20   ar
    20    20    21   ar
    21    19    22    1
    22    22    23    1
    23    22    24    1
    24    22    25    1
    25    11    26   ar
    26    26    27   ar
    27    27    28   ar
    28    28    29   ar
    29    29    30    1
    30    30    31    1
    31    31    32    1
    32    32    33    1
    33    27    34    1
    34    34    35   ar
    35    35    36   ar
    36    36    37   ar
    37    37    38   ar
    38    38    39   ar
    39     8     3   ar
    40    29    10   ar
    41    39    34   ar
    42    21    16   ar
    43     1    40    1
    44     1    41    1
    45     1    42    1
    46     4    43    1
    47     5    44    1
    48     6    45    1
    49     7    46    1
    50    12    47    1
    51    17    48    1
    52    18    49    1
    53    20    50    1
    54    21    51    1
    55    23    52    1
    56    23    53    1
    57    23    54    1
    58    24    55    1
    59    24    56    1
    60    24    57    1
    61    25    58    1
    62    25    59    1
    63    25    60    1
    64    31    61    1
    65    31    62    1
    66    32    63    1
    67    32    64    1
    68    33    65    1
    69    36    66    1
    70    37    67    1
    71    38    68    1
