
     RDKit          3D

 68 71  0  0  0  0  0  0  0  0999 V2000
   -1.4659   -4.5721    2.8192 C   0  0  0  0  0  0  0  0  0  0  0  0
   -1.6499   -3.3547    2.1263 O   0  0  0  0  0  0  0  0  0  0  0  0
   -2.6277   -3.1780    1.1563 C   0  0  0  0  0  0  0  0  0  0  0  0
   -3.5348   -4.1280    0.7367 C   0  0  0  0  0  0  0  0  0  0  0  0
   -4.4718   -3.8592   -0.2357 C   0  0  0  0  0  0  0  0  0  0  0  0
   -4.5344   -2.6264   -0.8244 C   0  0  0  0  0  0  0  0  0  0  0  0
   -3.6463   -1.6374   -0.4389 C   0  0  0  0  0  0  0  0  0  0  0  0
   -2.7217   -1.9471    0.5398 C   0  0  0  0  0  0  0  0  0  0  0  0
   -1.8211   -0.9364    0.9274 O   0  0  0  0  0  0  0  0  0  0  0  0
   -1.8592    0.3204    0.3509 C   0  0  0  0  0  0  0  0  0  0  0  0
   -1.1464    0.8649   -0.6912 C   0  0  0  0  0  0  0  0  0  0  0  0
   -0.1827    0.0147   -1.2838 N   0  0  0  0  0  0  0  0  0  0  0  0
    0.6962   -1.4320   -1.4794 S   0  0  0  0  0  0  0  0  0  0  0  0
    0.5276   -1.9901   -2.8807 O   0  0  0  0  0  0  0  0  0  0  0  0
    0.1656   -2.5428   -0.5713 O   0  0  0  0  0  0  0  0  0  0  0  0
    2.4249   -1.2202   -1.1254 C   0  0  0  0  0  0  0  0  0  0  0  0
    3.3147   -0.8569   -2.1384 C   0  0  0  0  0  0  0  0  0  0  0  0
    4.6510   -0.6997   -1.8344 C   0  0  0  0  0  0  0  0  0  0  0  0
    5.1268   -0.8922   -0.5596 C   0  0  0  0  0  0  0  0  0  0  0  0
    4.2524   -1.2520    0.4486 C   0  0  0  0  0  0  0  0  0  0  0  0
    2.9081   -1.4143    0.1627 C   0  0  0  0  0  0  0  0  0  0  0  0
    6.5681   -0.7318   -0.1888 C   0  0  0  0  0  0  0  0  0  0  0  0
    6.8416    0.6900    0.2317 C   0  0  0  0  0  0  0  0  0  0  0  0
    6.9221   -1.6730    0.9548 C   0  0  0  0  0  0  0  0  0  0  0  0
    7.4394   -1.0326   -1.3893 C   0  0  0  0  0  0  0  0  0  0  0  0
   -1.3525    2.1286   -1.0993 N   0  0  0  0  0  0  0  0  0  0  0  0
   -2.2686    2.8448   -0.4649 C   0  0  0  0  0  0  0  0  0  0  0  0
   -2.9748    2.3437    0.5504 N   0  0  0  0  0  0  0  0  0  0  0  0
   -2.8101    1.0862    0.9993 C   0  0  0  0  0  0  0  0  0  0  0  0
   -3.6119    0.7327    2.0446 O   0  0  0  0  0  0  0  0  0  0  0  0
   -4.5637    1.5509    2.6680 C   0  0  0  0  0  0  0  0  0  0  0  0
   -5.6536    2.0521    1.7829 C   0  0  0  0  0  0  0  0  0  0  0  0
   -6.4037    1.0335    1.2060 O   0  0  0  0  0  0  0  0  0  0  0  0
   -2.4246    4.2009   -0.9734 C   0  0  0  0  0  0  0  0  0  0  0  0
   -3.3449    4.9548   -0.3531 N   0  0  0  0  0  0  0  0  0  0  0  0
   -3.5535    6.2305   -0.7645 C   0  0  0  0  0  0  0  0  0  0  0  0
   -2.7956    6.7128   -1.8264 C   0  0  0  0  0  0  0  0  0  0  0  0
   -1.8404    5.9276   -2.4689 C   0  0  0  0  0  0  0  0  0  0  0  0
   -1.6928    4.6653   -1.9981 N   0  0  0  0  0  0  0  0  0  0  0  0
   -1.6489   -5.3904    2.0638 H   0  0  0  0  0  0  0  0  0  0  0  0
   -2.1134   -4.6892    3.6991 H   0  0  0  0  0  0  0  0  0  0  0  0
   -0.3784   -4.6994    3.0784 H   0  0  0  0  0  0  0  0  0  0  0  0
   -3.4773   -5.0985    1.2076 H   0  0  0  0  0  0  0  0  0  0  0  0
   -5.1347   -4.6788   -0.4883 H   0  0  0  0  0  0  0  0  0  0  0  0
   -5.2819   -2.4198   -1.5967 H   0  0  0  0  0  0  0  0  0  0  0  0
   -3.6619   -0.6523   -0.8778 H   0  0  0  0  0  0  0  0  0  0  0  0
    0.3223    0.5195   -2.0553 H   0  0  0  0  0  0  0  0  0  0  0  0
    2.9523   -0.7028   -3.1447 H   0  0  0  0  0  0  0  0  0  0  0  0
    5.3693   -0.4195   -2.5904 H   0  0  0  0  0  0  0  0  0  0  0  0
    4.5449   -1.4218    1.4744 H   0  0  0  0  0  0  0  0  0  0  0  0
    2.2001   -1.6942    0.9252 H   0  0  0  0  0  0  0  0  0  0  0  0
    6.3419    0.9038    1.1879 H   0  0  0  0  0  0  0  0  0  0  0  0
    6.4983    1.3482   -0.6090 H   0  0  0  0  0  0  0  0  0  0  0  0
    7.9401    0.8262    0.3187 H   0  0  0  0  0  0  0  0  0  0  0  0
    7.9379   -2.0730    0.7792 H   0  0  0  0  0  0  0  0  0  0  0  0
    6.2149   -2.5083    1.0204 H   0  0  0  0  0  0  0  0  0  0  0  0
    6.9007   -1.1216    1.9266 H   0  0  0  0  0  0  0  0  0  0  0  0
    7.1015   -1.9981   -1.8435 H   0  0  0  0  0  0  0  0  0  0  0  0
    7.3576   -0.2212   -2.1159 H   0  0  0  0  0  0  0  0  0  0  0  0
    8.4954   -1.1785   -1.0309 H   0  0  0  0  0  0  0  0  0  0  0  0
   -4.9857    1.1268    3.5780 H   0  0  0  0  0  0  0  0  0  0  0  0
   -3.9992    2.4694    3.0065 H   0  0  0  0  0  0  0  0  0  0  0  0
   -5.2770    2.7920    1.0315 H   0  0  0  0  0  0  0  0  0  0  0  0
   -6.3461    2.6361    2.4237 H   0  0  0  0  0  0  0  0  0  0  0  0
   -6.2485    1.1162    0.2181 H   0  0  0  0  0  0  0  0  0  0  0  0
   -4.2994    6.8225   -0.2522 H   0  0  0  0  0  0  0  0  0  0  0  0
   -2.9627    7.7300   -2.1537 H   0  0  0  0  0  0  0  0  0  0  0  0
   -1.2479    6.2992   -3.2964 H   0  0  0  0  0  0  0  0  0  0  0  0
  1  2  1  0
  2  3  1  0
  3  4  2  0
  4  5  1  0
  5  6  2  0
  6  7  1  0
  7  8  2  0
  8  9  1  0
  9 10  1  0
 10 11  1  0
 11 12  1  0
 12 13  1  0
 13 14  2  0
 13 15  2  0
 13 16  1  0
 16 17  2  0
 17 18  1  0
 18 19  2  0
 19 20  1  0
 20 21  2  0
 19 22  1  0
 22 23  1  0
 22 24  1  0
 22 25  1  0
 11 26  2  0
 26 27  1  0
 27 28  2  0
 28 29  1  0
 29 30  1  0
 30 31  1  0
 31 32  1  0
 32 33  1  0
 27 34  1  0
 34 35  2  0
 35 36  1  0
 36 37  2  0
 37 38  1  0
 38 39  2  0
  8  3  1  0
 29 10  2  0
 39 34  1  0
 21 16  1  0
  1 40  1  0
  1 41  1  0
  1 42  1  0
  4 43  1  0
  5 44  1  0
  6 45  1  0
  7 46  1  0
 12 47  1  0
 17 48  1  0
 18 49  1  0
 20 50  1  0
 21 51  1  0
 23 52  1  0
 23 53  1  0
 23 54  1  0
 24 55  1  0
 24 56  1  0
 24 57  1  0
 25 58  1  0
 25 59  1  0
 25 60  1  0
 31 61  1  0
 31 62  1  0
 32 63  1  0
 32 64  1  0
 33 65  1  0
 36 66  1  0
 37 67  1  0
 38 68  1  0
M  END
$$$$
