@<TRIPOS>MOLECULE
*****
 51 55 0 0 0
SMALL
GASTEIGER

@<TRIPOS>ATOM
      1 O           3.0592   -0.2792   -0.8684 O.2     1  UNL1       -0.2697
      2 C           3.5890    0.6529   -0.2260 C.2     1  UNL1        0.2516
      3 N           4.9388    0.5302    0.0957 N.am    1  UNL1       -0.2791
      4 C           5.8589   -0.4975   -0.1662 C.ar    1  UNL1        0.0694
      5 C           7.2310   -0.2098   -0.0971 C.ar    1  UNL1       -0.0349
      6 C           8.2290   -1.1078   -0.3005 C.ar    1  UNL1       -0.0245
      7 C           7.8835   -2.4166   -0.6002 C.ar    1  UNL1        0.1262
      8 F           8.8652   -3.3437   -0.8103 F       1  UNL1       -0.2054
      9 C           6.5622   -2.7754   -0.6845 C.ar    1  UNL1        0.0106
     10 C           5.5698   -1.8035   -0.4642 C.ar    1  UNL1        0.1472
     11 F           4.3049   -2.2272   -0.5325 F       1  UNL1       -0.2035
     12 C           2.7405    1.7796    0.1216 C.ar    1  UNL1        0.0770
     13 C           3.1846    2.8029    0.9316 C.ar    1  UNL1       -0.0449
     14 C           2.3866    3.8841    1.2979 C.ar    1  UNL1       -0.0427
     15 C           1.0962    3.9051    0.8133 C.ar    1  UNL1        0.0297
     16 N           0.6625    2.9096    0.0246 N.ar    1  UNL1       -0.2394
     17 C           1.4553    1.8570   -0.3268 C.ar    1  UNL1        0.1351
     18 N           0.9054    0.8849   -1.1778 N.pl3   1  UNL1       -0.2988
     19 C          -0.3442    0.2805   -0.8312 C.ar    1  UNL1        0.0354
     20 C          -0.9815   -0.5666   -1.7100 C.ar    1  UNL1       -0.0369
     21 C          -2.2019   -1.1425   -1.3801 C.ar    1  UNL1       -0.0147
     22 C          -2.7926   -0.8736   -0.1671 C.ar    1  UNL1        0.1636
     23 O          -4.0343   -1.4844    0.1149 O.3     1  UNL1       -0.4524
     24 C          -5.1629   -0.6737    0.3116 C.ar    1  UNL1        0.1406
     25 C          -5.0909    0.6951    0.1980 C.ar    1  UNL1       -0.0005
     26 C          -6.2548    1.4259    0.4093 C.ar    1  UNL1        0.0334
     27 N          -7.3988    0.8095    0.7113 N.ar    1  UNL1       -0.2373
     28 C          -7.5139   -0.5227    0.8316 C.ar    1  UNL1        0.1416
     29 N          -8.5319   -1.3509    1.1190 N.ar    1  UNL1       -0.3457
     30 C          -8.0926   -2.6200    1.1098 C.ar    1  UNL1        0.0042
     31 C          -6.7398   -2.6025    0.8037 C.ar    1  UNL1       -0.0315
     32 C          -6.3561   -1.2706    0.6235 C.ar    1  UNL1        0.0608
     33 C          -2.1874   -0.0378    0.7331 C.ar    1  UNL1        0.1672
     34 F          -2.7519    0.2184    1.9340 F       1  UNL1       -0.2016
     35 C          -0.9595    0.5269    0.3723 C.ar    1  UNL1       -0.0016
     36 H           5.3423    1.3625    0.6410 H       1  UNL1        0.1552
     37 H           7.5052    0.8005    0.1315 H       1  UNL1        0.0638
     38 H           9.2849   -0.8672   -0.2437 H       1  UNL1        0.0647
     39 H           6.3259   -3.7973   -0.9177 H       1  UNL1        0.0675
     40 H           4.1919    2.7784    1.3082 H       1  UNL1        0.0627
     41 H           2.7180    4.6842    1.9265 H       1  UNL1        0.0633
     42 H           0.4489    4.7350    1.0832 H       1  UNL1        0.0830
     43 H           1.3602    0.5846   -2.0690 H       1  UNL1        0.1536
     44 H          -0.4974   -0.7718   -2.6763 H       1  UNL1        0.0637
     45 H          -2.6703   -1.8128   -2.1183 H       1  UNL1        0.0656
     46 H          -4.1698    1.2126   -0.0563 H       1  UNL1        0.0670
     47 H          -6.2122    2.5034    0.3228 H       1  UNL1        0.0831
     48 H          -9.4976   -1.0105    1.3122 H       1  UNL1        0.1668
     49 H          -8.7008   -3.4922    1.3093 H       1  UNL1        0.0807
     50 H          -6.0562   -3.4482    0.7086 H       1  UNL1        0.0640
     51 H          -0.5006    1.1819    1.1041 H       1  UNL1        0.0666
@<TRIPOS>BOND
     1     1     2    2
     2     2     3   am
     3     3     4    1
     4     4     5   ar
     5     5     6   ar
     6     6     7   ar
     7     7     8    1
     8     7     9   ar
     9     9    10   ar
    10    10    11    1
    11     2    12    1
    12    12    13   ar
    13    13    14   ar
    14    14    15   ar
    15    15    16   ar
    16    16    17   ar
    17    17    18    1
    18    18    19    1
    19    19    20   ar
    20    20    21   ar
    21    21    22   ar
    22    22    23    1
    23    23    24    1
    24    24    25   ar
    25    25    26   ar
    26    26    27   ar
    27    27    28   ar
    28    28    29   ar
    29    29    30   ar
    30    30    31   ar
    31    31    32   ar
    32    22    33   ar
    33    33    34    1
    34    33    35   ar
    35    10     4   ar
    36    17    12   ar
    37    35    19   ar
    38    32    24   ar
    39    32    28   ar
    40     3    36    1
    41     5    37    1
    42     6    38    1
    43     9    39    1
    44    13    40    1
    45    14    41    1
    46    15    42    1
    47    18    43    1
    48    20    44    1
    49    21    45    1
    50    25    46    1
    51    26    47    1
    52    29    48    1
    53    30    49    1
    54    31    50    1
    55    35    51    1
