@<TRIPOS>MOLECULE
*****
 85 90 0 0 0
SMALL
GASTEIGER

@<TRIPOS>ATOM
      1 C           3.4489    2.3914   -1.9164 C.3     1  UNL1       -0.0626
      2 C           2.3401    2.5742   -2.8806 C.3     1  UNL1       -0.0446
      3 C           2.5166    1.7244   -4.1340 C.3     1  UNL1       -0.0626
      4 C           0.9958    2.4331   -2.2868 C.3     1  UNL1       -0.0235
      5 C           0.6276    1.1358   -1.6644 C.3     1  UNL1        0.1041
      6 N           1.4692    0.7910   -0.5717 N.am    1  UNL1       -0.2698
      7 C           2.2860   -0.3898   -0.4943 C.2     1  UNL1        0.4009
      8 O           2.2383   -1.1657   -1.4815 O.2     1  UNL1       -0.2265
      9 O           3.0870   -0.6511    0.6252 O.3     1  UNL1       -0.4494
     10 C           3.8769   -1.8300    0.6571 C.3     1  UNL1        0.1048
     11 C           4.6383   -1.8718    1.9643 C.3     1  UNL1        0.0446
     12 C           5.5366   -0.7161    2.1480 C.ar    1  UNL1       -0.0290
     13 C           5.3366    0.6525    2.2026 C.ar    1  UNL1       -0.0573
     14 C           6.3603    1.5555    2.3880 C.ar    1  UNL1       -0.0614
     15 C           7.6415    1.0996    2.5269 C.ar    1  UNL1       -0.0612
     16 C           7.8721   -0.2610    2.4766 C.ar    1  UNL1       -0.0537
     17 C           6.8326   -1.1582    2.2895 C.ar    1  UNL1       -0.0137
     18 C           6.8661   -2.6331    2.2065 C.ar    1  UNL1       -0.0137
     19 C           7.9117   -3.5330    2.2883 C.ar    1  UNL1       -0.0537
     20 C           7.6441   -4.8753    2.1739 C.ar    1  UNL1       -0.0612
     21 C           6.3457   -5.3093    1.9802 C.ar    1  UNL1       -0.0614
     22 C           5.3390   -4.4036    1.9038 C.ar    1  UNL1       -0.0573
     23 C           5.5640   -3.0299    2.0145 C.ar    1  UNL1       -0.0290
     24 C          -0.8255    1.1198   -1.2781 C.2     1  UNL1        0.2495
     25 O          -1.1606    0.8253   -0.1047 O.2     1  UNL1       -0.2722
     26 N          -1.8471    1.4289   -2.2023 N.am    1  UNL1       -0.2328
     27 N          -3.2162    1.4170   -1.8522 N.am    1  UNL1       -0.2329
     28 C          -4.1816    1.7347   -2.8417 C.2     1  UNL1        0.2490
     29 O          -3.7908    2.0193   -4.0032 O.2     1  UNL1       -0.2723
     30 C          -5.6333    1.7519   -2.5933 C.3     1  UNL1        0.1044
     31 N          -6.0001    1.4306   -1.2411 N.ar    1  UNL1       -0.2963
     32 C          -6.2461    0.1329   -0.9325 C.ar    1  UNL1        0.2739
     33 O          -6.1419   -0.7531   -1.8314 O.2     1  UNL1       -0.2657
     34 C          -6.6068   -0.2677    0.3211 C.ar    1  UNL1        0.1105
     35 C          -6.8784   -1.6602    0.7430 C.3     1  UNL1        0.0201
     36 C          -5.5698   -2.3397    0.9299 C.ar    1  UNL1       -0.0414
     37 C          -4.8989   -2.2011    2.1512 C.ar    1  UNL1       -0.0582
     38 C          -3.6850   -2.8134    2.3786 C.ar    1  UNL1       -0.0615
     39 C          -3.0735   -3.5902    1.4174 C.ar    1  UNL1       -0.0617
     40 C          -3.7209   -3.7382    0.2070 C.ar    1  UNL1       -0.0615
     41 C          -4.9536   -3.1155   -0.0216 C.ar    1  UNL1       -0.0582
     42 N          -6.7191    0.6833    1.2840 N.ar    1  UNL1       -0.2444
     43 C          -6.4867    1.9728    1.0278 C.ar    1  UNL1        0.0879
     44 C          -6.5906    2.9542    1.9903 C.ar    1  UNL1       -0.0343
     45 C          -6.3512    4.2752    1.7408 C.ar    1  UNL1       -0.0596
     46 C          -5.9887    4.6275    0.4583 C.ar    1  UNL1       -0.0597
     47 C          -5.8761    3.6565   -0.5342 C.ar    1  UNL1       -0.0360
     48 C          -6.1191    2.3377   -0.2710 C.ar    1  UNL1        0.0708
     49 H           3.9184    1.3746   -1.9988 H       1  UNL1        0.0232
     50 H           4.2560    3.1458   -2.1738 H       1  UNL1        0.0232
     51 H           3.1123    2.6465   -0.8987 H       1  UNL1        0.0232
     52 H           2.4053    3.6378   -3.2815 H       1  UNL1        0.0296
     53 H           1.5990    1.8570   -4.7271 H       1  UNL1        0.0232
     54 H           3.3648    2.1389   -4.6955 H       1  UNL1        0.0232
     55 H           2.7357    0.6868   -3.8790 H       1  UNL1        0.0232
     56 H           0.2482    2.5883   -3.1342 H       1  UNL1        0.0290
     57 H           0.7793    3.2884   -1.5970 H       1  UNL1        0.0290
     58 H           0.6781    0.3673   -2.4969 H       1  UNL1        0.0596
     59 H           1.5202    1.4070    0.2676 H       1  UNL1        0.1528
     60 H           3.2291   -2.7306    0.6345 H       1  UNL1        0.0707
     61 H           4.6339   -1.8443   -0.1600 H       1  UNL1        0.0707
     62 H           3.9639   -1.9185    2.8403 H       1  UNL1        0.0431
     63 H           4.3154    0.9827    2.0898 H       1  UNL1        0.0621
     64 H           6.1458    2.6134    2.4226 H       1  UNL1        0.0618
     65 H           8.4599    1.8146    2.6752 H       1  UNL1        0.0618
     66 H           8.9090   -0.5788    2.5915 H       1  UNL1        0.0624
     67 H           8.9056   -3.1363    2.4405 H       1  UNL1        0.0624
     68 H           8.4485   -5.5885    2.2355 H       1  UNL1        0.0618
     69 H           6.1169   -6.3757    1.8870 H       1  UNL1        0.0618
     70 H           4.3362   -4.7647    1.7521 H       1  UNL1        0.0621
     71 H          -1.5719    1.6737   -3.1758 H       1  UNL1        0.1728
     72 H          -3.5256    1.1832   -0.8970 H       1  UNL1        0.1728
     73 H          -6.1089    0.9926   -3.3133 H       1  UNL1        0.0589
     74 H          -6.0794    2.6982   -2.9082 H       1  UNL1        0.0589
     75 H          -7.4624   -2.2217   -0.0216 H       1  UNL1        0.0378
     76 H          -7.4321   -1.6847    1.7116 H       1  UNL1        0.0378
     77 H          -5.3862   -1.5905    2.8972 H       1  UNL1        0.0620
     78 H          -3.1672   -2.7019    3.3328 H       1  UNL1        0.0618
     79 H          -2.1232   -4.0866    1.5565 H       1  UNL1        0.0618
     80 H          -3.2704   -4.3416   -0.5729 H       1  UNL1        0.0618
     81 H          -5.4613   -3.2386   -0.9725 H       1  UNL1        0.0620
     82 H          -6.8798    2.6203    2.9845 H       1  UNL1        0.0639
     83 H          -6.4513    5.0056    2.5479 H       1  UNL1        0.0618
     84 H          -5.7952    5.6655    0.2417 H       1  UNL1        0.0618
     85 H          -5.5804    3.9963   -1.5265 H       1  UNL1        0.0639
@<TRIPOS>BOND
     1     1     2    1
     2     2     3    1
     3     2     4    1
     4     4     5    1
     5     5     6    1
     6     6     7   am
     7     7     8    2
     8     7     9    1
     9     9    10    1
    10    10    11    1
    11    11    12    1
    12    12    13   ar
    13    13    14   ar
    14    14    15   ar
    15    15    16   ar
    16    16    17   ar
    17    17    18    1
    18    18    19   ar
    19    19    20   ar
    20    20    21   ar
    21    21    22   ar
    22    22    23   ar
    23     5    24    1
    24    24    25    2
    25    24    26   am
    26    26    27    1
    27    27    28   am
    28    28    29    2
    29    28    30    1
    30    30    31    1
    31    31    32   ar
    32    32    33    2
    33    32    34   ar
    34    34    35    1
    35    35    36    1
    36    36    37   ar
    37    37    38   ar
    38    38    39   ar
    39    39    40   ar
    40    40    41   ar
    41    34    42   ar
    42    42    43   ar
    43    43    44   ar
    44    44    45   ar
    45    45    46   ar
    46    46    47   ar
    47    47    48   ar
    48    23    11    1
    49    48    31   ar
    50    17    12   ar
    51    23    18   ar
    52    41    36   ar
    53    48    43   ar
    54     1    49    1
    55     1    50    1
    56     1    51    1
    57     2    52    1
    58     3    53    1
    59     3    54    1
    60     3    55    1
    61     4    56    1
    62     4    57    1
    63     5    58    1
    64     6    59    1
    65    10    60    1
    66    10    61    1
    67    11    62    1
    68    13    63    1
    69    14    64    1
    70    15    65    1
    71    16    66    1
    72    19    67    1
    73    20    68    1
    74    21    69    1
    75    22    70    1
    76    26    71    1
    77    27    72    1
    78    30    73    1
    79    30    74    1
    80    35    75    1
    81    35    76    1
    82    37    77    1
    83    38    78    1
    84    39    79    1
    85    40    80    1
    86    41    81    1
    87    44    82    1
    88    45    83    1
    89    46    84    1
    90    47    85    1
