
     RDKit          3D

 85 90  0  0  0  0  0  0  0  0999 V2000
    3.4489    2.3914   -1.9164 C   0  0  0  0  0  0  0  0  0  0  0  0
    2.3401    2.5742   -2.8806 C   0  0  0  0  0  0  0  0  0  0  0  0
    2.5166    1.7244   -4.1340 C   0  0  0  0  0  0  0  0  0  0  0  0
    0.9958    2.4331   -2.2868 C   0  0  0  0  0  0  0  0  0  0  0  0
    0.6276    1.1358   -1.6644 C   0  0  0  0  0  0  0  0  0  0  0  0
    1.4692    0.7910   -0.5717 N   0  0  0  0  0  0  0  0  0  0  0  0
    2.2860   -0.3898   -0.4943 C   0  0  0  0  0  0  0  0  0  0  0  0
    2.2383   -1.1657   -1.4815 O   0  0  0  0  0  0  0  0  0  0  0  0
    3.0870   -0.6511    0.6252 O   0  0  0  0  0  0  0  0  0  0  0  0
    3.8769   -1.8300    0.6571 C   0  0  0  0  0  0  0  0  0  0  0  0
    4.6383   -1.8718    1.9643 C   0  0  0  0  0  0  0  0  0  0  0  0
    5.5366   -0.7161    2.1480 C   0  0  0  0  0  0  0  0  0  0  0  0
    5.3366    0.6525    2.2026 C   0  0  0  0  0  0  0  0  0  0  0  0
    6.3603    1.5555    2.3880 C   0  0  0  0  0  0  0  0  0  0  0  0
    7.6415    1.0996    2.5269 C   0  0  0  0  0  0  0  0  0  0  0  0
    7.8721   -0.2610    2.4766 C   0  0  0  0  0  0  0  0  0  0  0  0
    6.8326   -1.1582    2.2895 C   0  0  0  0  0  0  0  0  0  0  0  0
    6.8661   -2.6331    2.2065 C   0  0  0  0  0  0  0  0  0  0  0  0
    7.9117   -3.5330    2.2883 C   0  0  0  0  0  0  0  0  0  0  0  0
    7.6441   -4.8753    2.1739 C   0  0  0  0  0  0  0  0  0  0  0  0
    6.3457   -5.3093    1.9802 C   0  0  0  0  0  0  0  0  0  0  0  0
    5.3390   -4.4036    1.9038 C   0  0  0  0  0  0  0  0  0  0  0  0
    5.5640   -3.0299    2.0145 C   0  0  0  0  0  0  0  0  0  0  0  0
   -0.8255    1.1198   -1.2781 C   0  0  0  0  0  0  0  0  0  0  0  0
   -1.1606    0.8253   -0.1047 O   0  0  0  0  0  0  0  0  0  0  0  0
   -1.8471    1.4289   -2.2023 N   0  0  0  0  0  0  0  0  0  0  0  0
   -3.2162    1.4170   -1.8522 N   0  0  0  0  0  0  0  0  0  0  0  0
   -4.1816    1.7347   -2.8417 C   0  0  0  0  0  0  0  0  0  0  0  0
   -3.7908    2.0193   -4.0032 O   0  0  0  0  0  0  0  0  0  0  0  0
   -5.6333    1.7519   -2.5933 C   0  0  0  0  0  0  0  0  0  0  0  0
   -6.0001    1.4306   -1.2411 N   0  0  0  0  0  0  0  0  0  0  0  0
   -6.2461    0.1329   -0.9325 C   0  0  0  0  0  0  0  0  0  0  0  0
   -6.1419   -0.7531   -1.8314 O   0  0  0  0  0  0  0  0  0  0  0  0
   -6.6068   -0.2677    0.3211 C   0  0  0  0  0  0  0  0  0  0  0  0
   -6.8784   -1.6602    0.7430 C   0  0  0  0  0  0  0  0  0  0  0  0
   -5.5698   -2.3397    0.9299 C   0  0  0  0  0  0  0  0  0  0  0  0
   -4.8989   -2.2011    2.1512 C   0  0  0  0  0  0  0  0  0  0  0  0
   -3.6850   -2.8134    2.3786 C   0  0  0  0  0  0  0  0  0  0  0  0
   -3.0735   -3.5902    1.4174 C   0  0  0  0  0  0  0  0  0  0  0  0
   -3.7209   -3.7382    0.2070 C   0  0  0  0  0  0  0  0  0  0  0  0
   -4.9536   -3.1155   -0.0216 C   0  0  0  0  0  0  0  0  0  0  0  0
   -6.7191    0.6833    1.2840 N   0  0  0  0  0  0  0  0  0  0  0  0
   -6.4867    1.9728    1.0278 C   0  0  0  0  0  0  0  0  0  0  0  0
   -6.5906    2.9542    1.9903 C   0  0  0  0  0  0  0  0  0  0  0  0
   -6.3512    4.2752    1.7408 C   0  0  0  0  0  0  0  0  0  0  0  0
   -5.9887    4.6275    0.4583 C   0  0  0  0  0  0  0  0  0  0  0  0
   -5.8761    3.6565   -0.5342 C   0  0  0  0  0  0  0  0  0  0  0  0
   -6.1191    2.3377   -0.2710 C   0  0  0  0  0  0  0  0  0  0  0  0
    3.9184    1.3746   -1.9988 H   0  0  0  0  0  0  0  0  0  0  0  0
    4.2560    3.1458   -2.1738 H   0  0  0  0  0  0  0  0  0  0  0  0
    3.1123    2.6465   -0.8987 H   0  0  0  0  0  0  0  0  0  0  0  0
    2.4053    3.6378   -3.2815 H   0  0  0  0  0  0  0  0  0  0  0  0
    1.5990    1.8570   -4.7271 H   0  0  0  0  0  0  0  0  0  0  0  0
    3.3648    2.1389   -4.6955 H   0  0  0  0  0  0  0  0  0  0  0  0
    2.7357    0.6868   -3.8790 H   0  0  0  0  0  0  0  0  0  0  0  0
    0.2482    2.5883   -3.1342 H   0  0  0  0  0  0  0  0  0  0  0  0
    0.7793    3.2884   -1.5970 H   0  0  0  0  0  0  0  0  0  0  0  0
    0.6781    0.3673   -2.4969 H   0  0  0  0  0  0  0  0  0  0  0  0
    1.5202    1.4070    0.2676 H   0  0  0  0  0  0  0  0  0  0  0  0
    3.2291   -2.7306    0.6345 H   0  0  0  0  0  0  0  0  0  0  0  0
    4.6339   -1.8443   -0.1600 H   0  0  0  0  0  0  0  0  0  0  0  0
    3.9639   -1.9185    2.8403 H   0  0  0  0  0  0  0  0  0  0  0  0
    4.3154    0.9827    2.0898 H   0  0  0  0  0  0  0  0  0  0  0  0
    6.1458    2.6134    2.4226 H   0  0  0  0  0  0  0  0  0  0  0  0
    8.4599    1.8146    2.6752 H   0  0  0  0  0  0  0  0  0  0  0  0
    8.9090   -0.5788    2.5915 H   0  0  0  0  0  0  0  0  0  0  0  0
    8.9056   -3.1363    2.4405 H   0  0  0  0  0  0  0  0  0  0  0  0
    8.4485   -5.5885    2.2355 H   0  0  0  0  0  0  0  0  0  0  0  0
    6.1169   -6.3757    1.8870 H   0  0  0  0  0  0  0  0  0  0  0  0
    4.3362   -4.7647    1.7521 H   0  0  0  0  0  0  0  0  0  0  0  0
   -1.5719    1.6737   -3.1758 H   0  0  0  0  0  0  0  0  0  0  0  0
   -3.5256    1.1832   -0.8970 H   0  0  0  0  0  0  0  0  0  0  0  0
   -6.1089    0.9926   -3.3133 H   0  0  0  0  0  0  0  0  0  0  0  0
   -6.0794    2.6982   -2.9082 H   0  0  0  0  0  0  0  0  0  0  0  0
   -7.4624   -2.2217   -0.0216 H   0  0  0  0  0  0  0  0  0  0  0  0
   -7.4321   -1.6847    1.7116 H   0  0  0  0  0  0  0  0  0  0  0  0
   -5.3862   -1.5905    2.8972 H   0  0  0  0  0  0  0  0  0  0  0  0
   -3.1672   -2.7019    3.3328 H   0  0  0  0  0  0  0  0  0  0  0  0
   -2.1232   -4.0866    1.5565 H   0  0  0  0  0  0  0  0  0  0  0  0
   -3.2704   -4.3416   -0.5729 H   0  0  0  0  0  0  0  0  0  0  0  0
   -5.4613   -3.2386   -0.9725 H   0  0  0  0  0  0  0  0  0  0  0  0
   -6.8798    2.6203    2.9845 H   0  0  0  0  0  0  0  0  0  0  0  0
   -6.4513    5.0056    2.5479 H   0  0  0  0  0  0  0  0  0  0  0  0
   -5.7952    5.6655    0.2417 H   0  0  0  0  0  0  0  0  0  0  0  0
   -5.5804    3.9963   -1.5265 H   0  0  0  0  0  0  0  0  0  0  0  0
  1  2  1  0
  2  3  1  0
  2  4  1  0
  4  5  1  0
  5  6  1  0
  6  7  1  0
  7  8  2  0
  7  9  1  0
  9 10  1  0
 10 11  1  0
 11 12  1  0
 12 13  2  0
 13 14  1  0
 14 15  2  0
 15 16  1  0
 16 17  2  0
 17 18  1  0
 18 19  2  0
 19 20  1  0
 20 21  2  0
 21 22  1  0
 22 23  2  0
  5 24  1  0
 24 25  2  0
 24 26  1  0
 26 27  1  0
 27 28  1  0
 28 29  2  0
 28 30  1  0
 30 31  1  0
 31 32  1  0
 32 33  2  0
 32 34  1  0
 34 35  1  0
 35 36  1  0
 36 37  2  0
 37 38  1  0
 38 39  2  0
 39 40  1  0
 40 41  2  0
 34 42  2  0
 42 43  1  0
 43 44  2  0
 44 45  1  0
 45 46  2  0
 46 47  1  0
 47 48  2  0
 23 11  1  0
 48 31  1  0
 17 12  1  0
 23 18  1  0
 41 36  1  0
 48 43  1  0
  1 49  1  0
  1 50  1  0
  1 51  1  0
  2 52  1  0
  3 53  1  0
  3 54  1  0
  3 55  1  0
  4 56  1  0
  4 57  1  0
  5 58  1  0
  6 59  1  0
 10 60  1  0
 10 61  1  0
 11 62  1  0
 13 63  1  0
 14 64  1  0
 15 65  1  0
 16 66  1  0
 19 67  1  0
 20 68  1  0
 21 69  1  0
 22 70  1  0
 26 71  1  0
 27 72  1  0
 30 73  1  0
 30 74  1  0
 35 75  1  0
 35 76  1  0
 37 77  1  0
 38 78  1  0
 39 79  1  0
 40 80  1  0
 41 81  1  0
 44 82  1  0
 45 83  1  0
 46 84  1  0
 47 85  1  0
M  END
$$$$
