
     RDKit          3D

 44 46  0  0  0  0  0  0  0  0999 V2000
    6.5381    1.3612    1.2597 C   0  0  0  0  0  0  0  0  0  0  0  0
    5.7609    0.2213    0.9651 O   0  0  0  0  0  0  0  0  0  0  0  0
    4.4428    0.3862    0.5774 C   0  0  0  0  0  0  0  0  0  0  0  0
    3.8897    1.6348    0.4778 C   0  0  0  0  0  0  0  0  0  0  0  0
    2.5669    1.7669    0.0869 C   0  0  0  0  0  0  0  0  0  0  0  0
    1.7883    0.6667   -0.2060 C   0  0  0  0  0  0  0  0  0  0  0  0
    0.3895    0.8166   -0.6186 C   0  0  0  0  0  0  0  0  0  0  0  0
   -0.5312    0.4797    0.4715 N   0  0  0  0  0  0  0  0  0  0  0  0
   -1.8739    0.6681   -0.0602 C   0  0  1  0  0  0  0  0  0  0  0  0
   -2.1621   -0.2152   -1.2552 C   0  0  0  0  0  0  0  0  0  0  0  0
   -2.8406   -0.4263    0.1179 C   0  0  0  0  0  0  0  0  0  0  0  0
   -4.3004   -0.2038    0.0603 C   0  0  0  0  0  0  0  0  0  0  0  0
   -5.1610   -1.0631    0.7106 C   0  0  0  0  0  0  0  0  0  0  0  0
   -6.5300   -0.9017    0.6887 C   0  0  0  0  0  0  0  0  0  0  0  0
   -7.1056    0.1464    0.0021 C   0  0  0  0  0  0  0  0  0  0  0  0
   -6.2562    1.0133   -0.6525 C   0  0  0  0  0  0  0  0  0  0  0  0
   -4.8747    0.8465   -0.6278 C   0  0  0  0  0  0  0  0  0  0  0  0
    2.3420   -0.5898   -0.1067 C   0  0  0  0  0  0  0  0  0  0  0  0
    1.5958   -1.8191   -0.3977 C   0  0  0  0  0  0  0  0  0  0  0  0
    3.6611   -0.7016    0.2841 C   0  0  0  0  0  0  0  0  0  0  0  0
    4.2710   -2.0718    0.3945 C   0  0  0  0  0  0  0  0  0  0  0  0
    6.0232    1.9508    2.0216 H   0  0  0  0  0  0  0  0  0  0  0  0
    6.6825    2.0022    0.3482 H   0  0  0  0  0  0  0  0  0  0  0  0
    7.5112    1.0426    1.6841 H   0  0  0  0  0  0  0  0  0  0  0  0
    4.4358    2.5432    0.6904 H   0  0  0  0  0  0  0  0  0  0  0  0
    2.1331    2.7704    0.0102 H   0  0  0  0  0  0  0  0  0  0  0  0
    0.2427    1.8740   -0.9318 H   0  0  0  0  0  0  0  0  0  0  0  0
    0.1418    0.2142   -1.5327 H   0  0  0  0  0  0  0  0  0  0  0  0
   -0.3470   -0.5156    0.7222 H   0  0  0  0  0  0  0  0  0  0  0  0
   -2.1735    1.7359   -0.0880 H   0  0  0  0  0  0  0  0  0  0  0  0
   -1.4827   -1.0160   -1.5408 H   0  0  0  0  0  0  0  0  0  0  0  0
   -2.7403    0.3066   -2.0421 H   0  0  0  0  0  0  0  0  0  0  0  0
   -2.5097   -1.2928    0.7032 H   0  0  0  0  0  0  0  0  0  0  0  0
   -4.7409   -1.8975    1.2595 H   0  0  0  0  0  0  0  0  0  0  0  0
   -7.2130   -1.5835    1.2046 H   0  0  0  0  0  0  0  0  0  0  0  0
   -8.1834    0.2786   -0.0190 H   0  0  0  0  0  0  0  0  0  0  0  0
   -6.6860    1.8361   -1.1926 H   0  0  0  0  0  0  0  0  0  0  0  0
   -4.2095    1.5250   -1.1401 H   0  0  0  0  0  0  0  0  0  0  0  0
    1.2614   -2.2845    0.5455 H   0  0  0  0  0  0  0  0  0  0  0  0
    0.7668   -1.7150   -1.0876 H   0  0  0  0  0  0  0  0  0  0  0  0
    2.3223   -2.5514   -0.8521 H   0  0  0  0  0  0  0  0  0  0  0  0
    3.5038   -2.7018    0.9115 H   0  0  0  0  0  0  0  0  0  0  0  0
    4.4524   -2.5059   -0.6148 H   0  0  0  0  0  0  0  0  0  0  0  0
    5.1987   -2.0309    0.9794 H   0  0  0  0  0  0  0  0  0  0  0  0
  1  2  1  0
  2  3  1  0
  3  4  2  0
  4  5  1  0
  5  6  2  0
  6  7  1  0
  7  8  1  0
  8  9  1  0
  9 10  1  0
 10 11  1  0
 11 12  1  0
 12 13  2  0
 13 14  1  0
 14 15  2  0
 15 16  1  0
 16 17  2  0
  6 18  1  0
 18 19  1  0
 18 20  2  0
 20 21  1  0
 20  3  1  0
 11  9  1  0
 17 12  1  0
  1 22  1  0
  1 23  1  0
  1 24  1  0
  4 25  1  0
  5 26  1  0
  7 27  1  0
  7 28  1  0
  8 29  1  0
  9 30  1  6
 10 31  1  0
 10 32  1  0
 11 33  1  0
 13 34  1  0
 14 35  1  0
 15 36  1  0
 16 37  1  0
 17 38  1  0
 19 39  1  0
 19 40  1  0
 19 41  1  0
 21 42  1  0
 21 43  1  0
 21 44  1  0
M  END
$$$$
