@<TRIPOS>MOLECULE
*****
 44 46 0 0 0
SMALL
GASTEIGER

@<TRIPOS>ATOM
      1 C           6.5381    1.3612    1.2597 C.3     1  UNL1        0.0788
      2 O           5.7609    0.2213    0.9651 O.3     1  UNL1       -0.4948
      3 C           4.4428    0.3862    0.5774 C.ar    1  UNL1        0.1232
      4 C           3.8897    1.6348    0.4778 C.ar    1  UNL1       -0.0194
      5 C           2.5669    1.7669    0.0869 C.ar    1  UNL1       -0.0536
      6 C           1.7883    0.6667   -0.2060 C.ar    1  UNL1       -0.0302
      7 C           0.3895    0.8166   -0.6186 C.3     1  UNL1        0.0218
      8 N          -0.5312    0.4797    0.4715 N.3     1  UNL1       -0.3087
      9 C          -1.8739    0.6681   -0.0602 C.3     1  UNL1        0.0154
     10 C          -2.1621   -0.2152   -1.2552 C.3     1  UNL1       -0.0287
     11 C          -2.8406   -0.4263    0.1179 C.3     1  UNL1        0.0010
     12 C          -4.3004   -0.2038    0.0603 C.ar    1  UNL1       -0.0428
     13 C          -5.1610   -1.0631    0.7106 C.ar    1  UNL1       -0.0583
     14 C          -6.5300   -0.9017    0.6887 C.ar    1  UNL1       -0.0615
     15 C          -7.1056    0.1464    0.0021 C.ar    1  UNL1       -0.0617
     16 C          -6.2562    1.0133   -0.6525 C.ar    1  UNL1       -0.0615
     17 C          -4.8747    0.8465   -0.6278 C.ar    1  UNL1       -0.0583
     18 C           2.3420   -0.5898   -0.1067 C.ar    1  UNL1       -0.0397
     19 C           1.5958   -1.8191   -0.3977 C.3     1  UNL1       -0.0390
     20 C           3.6611   -0.7016    0.2841 C.ar    1  UNL1       -0.0056
     21 C           4.2710   -2.0718    0.3945 C.3     1  UNL1       -0.0360
     22 H           6.0232    1.9508    2.0216 H       1  UNL1        0.0660
     23 H           6.6825    2.0022    0.3482 H       1  UNL1        0.0660
     24 H           7.5112    1.0426    1.6841 H       1  UNL1        0.0660
     25 H           4.4358    2.5432    0.6904 H       1  UNL1        0.0654
     26 H           2.1331    2.7704    0.0102 H       1  UNL1        0.0622
     27 H           0.2427    1.8740   -0.9318 H       1  UNL1        0.0474
     28 H           0.1418    0.2142   -1.5327 H       1  UNL1        0.0474
     29 H          -0.3470   -0.5156    0.7222 H       1  UNL1        0.1225
     30 H          -2.1735    1.7359   -0.0880 H       1  UNL1        0.0466
     31 H          -1.4827   -1.0160   -1.5408 H       1  UNL1        0.0287
     32 H          -2.7403    0.3066   -2.0421 H       1  UNL1        0.0287
     33 H          -2.5097   -1.2928    0.7032 H       1  UNL1        0.0364
     34 H          -4.7409   -1.8975    1.2595 H       1  UNL1        0.0620
     35 H          -7.2130   -1.5835    1.2046 H       1  UNL1        0.0618
     36 H          -8.1834    0.2786   -0.0190 H       1  UNL1        0.0618
     37 H          -6.6860    1.8361   -1.1926 H       1  UNL1        0.0618
     38 H          -4.2095    1.5250   -1.1401 H       1  UNL1        0.0620
     39 H           1.2614   -2.2845    0.5455 H       1  UNL1        0.0278
     40 H           0.7668   -1.7150   -1.0876 H       1  UNL1        0.0278
     41 H           2.3223   -2.5514   -0.8521 H       1  UNL1        0.0278
     42 H           3.5038   -2.7018    0.9115 H       1  UNL1        0.0279
     43 H           4.4524   -2.5059   -0.6148 H       1  UNL1        0.0279
     44 H           5.1987   -2.0309    0.9794 H       1  UNL1        0.0279
@<TRIPOS>BOND
     1     1     2    1
     2     2     3    1
     3     3     4   ar
     4     4     5   ar
     5     5     6   ar
     6     6     7    1
     7     7     8    1
     8     8     9    1
     9     9    10    1
    10    10    11    1
    11    11    12    1
    12    12    13   ar
    13    13    14   ar
    14    14    15   ar
    15    15    16   ar
    16    16    17   ar
    17     6    18   ar
    18    18    19    1
    19    18    20   ar
    20    20    21    1
    21    20     3   ar
    22    11     9    1
    23    17    12   ar
    24     1    22    1
    25     1    23    1
    26     1    24    1
    27     4    25    1
    28     5    26    1
    29     7    27    1
    30     7    28    1
    31     8    29    1
    32     9    30    1
    33    10    31    1
    34    10    32    1
    35    11    33    1
    36    13    34    1
    37    14    35    1
    38    15    36    1
    39    16    37    1
    40    17    38    1
    41    19    39    1
    42    19    40    1
    43    19    41    1
    44    21    42    1
    45    21    43    1
    46    21    44    1
