
     RDKit          3D

 46 48  0  0  0  0  0  0  0  0999 V2000
   -1.2795    3.5496    2.8925 C   0  0  0  0  0  0  0  0  0  0  0  0
   -0.8285    3.0082    1.5429 C   0  0  0  0  0  0  0  0  0  0  0  0
   -1.2743    1.6053    1.3550 C   0  0  0  0  0  0  0  0  0  0  0  0
   -1.8962    1.0853    2.3415 O   0  0  0  0  0  0  0  0  0  0  0  0
   -1.0584    0.8374    0.1842 N   0  0  0  0  0  0  0  0  0  0  0  0
   -0.3621    1.3230   -0.9860 C   0  0  0  0  0  0  0  0  0  0  0  0
    1.0728    1.0094   -1.0242 C   0  0  0  0  0  0  0  0  0  0  0  0
    1.4380   -0.2301   -1.5252 C   0  0  0  0  0  0  0  0  0  0  0  0
    2.7811   -0.6000   -1.6110 C   0  0  0  0  0  0  0  0  0  0  0  0
    3.7495    0.2859   -1.1895 C   0  0  0  0  0  0  0  0  0  0  0  0
    5.4455   -0.1284   -1.2743 S   0  0  0  0  0  6  0  0  0  0  0  0
    5.9954   -0.9129    0.2181 C   0  0  0  0  0  0  0  0  0  0  0  0
    5.6045   -1.1276   -2.3832 O   0  0  0  0  0  0  0  0  0  0  0  0
    6.3013    1.0403   -1.5859 O   0  0  0  0  0  0  0  0  0  0  0  0
    3.3762    1.5149   -0.6936 C   0  0  0  0  0  0  0  0  0  0  0  0
    2.0304    1.8858   -0.6076 C   0  0  0  0  0  0  0  0  0  0  0  0
   -1.5810   -0.5002    0.2078 C   0  0  0  0  0  0  0  0  0  0  0  0
   -0.7682   -1.4933    0.6898 C   0  0  0  0  0  0  0  0  0  0  0  0
   -1.2083   -2.8211    0.7430 C   0  0  0  0  0  0  0  0  0  0  0  0
   -0.4213   -3.8091    1.2142 F   0  0  0  0  0  0  0  0  0  0  0  0
   -2.4621   -3.1169    0.3072 C   0  0  0  0  0  0  0  0  0  0  0  0
   -3.3152   -2.1557   -0.1851 C   0  0  0  0  0  0  0  0  0  0  0  0
   -4.6563   -2.4698   -0.6513 C   0  0  0  0  0  0  0  0  0  0  0  0
   -5.1975   -3.6919   -0.6473 N   0  0  0  0  0  0  0  0  0  0  0  0
   -6.4435   -3.6156   -1.1442 N   0  0  0  0  0  0  0  0  0  0  0  0
   -6.6681   -2.3382   -1.4548 N   0  0  0  0  0  0  0  0  0  0  0  0
   -5.5670   -1.6324   -1.1511 N   0  0  0  0  0  0  0  0  0  0  0  0
   -2.8340   -0.8441   -0.2195 C   0  0  0  0  0  0  0  0  0  0  0  0
   -2.2524    4.0971    2.8190 H   0  0  0  0  0  0  0  0  0  0  0  0
   -1.3669    2.7362    3.6370 H   0  0  0  0  0  0  0  0  0  0  0  0
   -0.5299    4.2961    3.2224 H   0  0  0  0  0  0  0  0  0  0  0  0
    0.2765    3.0679    1.5281 H   0  0  0  0  0  0  0  0  0  0  0  0
   -1.2305    3.6242    0.7303 H   0  0  0  0  0  0  0  0  0  0  0  0
   -0.4615    2.4290   -0.9813 H   0  0  0  0  0  0  0  0  0  0  0  0
   -0.9032    0.9730   -1.8910 H   0  0  0  0  0  0  0  0  0  0  0  0
    0.7186   -0.9566   -1.8668 H   0  0  0  0  0  0  0  0  0  0  0  0
    3.0337   -1.5769   -2.0075 H   0  0  0  0  0  0  0  0  0  0  0  0
    5.2135   -1.5696    0.6497 H   0  0  0  0  0  0  0  0  0  0  0  0
    6.2679   -0.1684    0.9915 H   0  0  0  0  0  0  0  0  0  0  0  0
    6.8861   -1.5481    0.0521 H   0  0  0  0  0  0  0  0  0  0  0  0
    4.1653    2.1793   -0.3744 H   0  0  0  0  0  0  0  0  0  0  0  0
    1.7999    2.8600   -0.2214 H   0  0  0  0  0  0  0  0  0  0  0  0
    0.2295   -1.2893    1.0419 H   0  0  0  0  0  0  0  0  0  0  0  0
   -2.8516   -4.1416    0.3290 H   0  0  0  0  0  0  0  0  0  0  0  0
   -5.4956   -0.5998   -1.3042 H   0  0  0  0  0  0  0  0  0  0  0  0
   -3.4723   -0.0701   -0.5972 H   0  0  0  0  0  0  0  0  0  0  0  0
  1  2  1  0
  2  3  1  0
  3  4  2  0
  3  5  1  0
  5  6  1  0
  6  7  1  0
  7  8  2  0
  8  9  1  0
  9 10  2  0
 10 11  1  0
 11 12  1  0
 11 13  2  0
 11 14  2  0
 10 15  1  0
 15 16  2  0
  5 17  1  0
 17 18  2  0
 18 19  1  0
 19 20  1  0
 19 21  2  0
 21 22  1  0
 22 23  1  0
 23 24  2  0
 24 25  1  0
 25 26  2  0
 26 27  1  0
 22 28  2  0
 16  7  1  0
 28 17  1  0
 27 23  1  0
  1 29  1  0
  1 30  1  0
  1 31  1  0
  2 32  1  0
  2 33  1  0
  6 34  1  0
  6 35  1  0
  8 36  1  0
  9 37  1  0
 12 38  1  0
 12 39  1  0
 12 40  1  0
 15 41  1  0
 16 42  1  0
 18 43  1  0
 21 44  1  0
 27 45  1  0
 28 46  1  0
M  END
$$$$
