@<TRIPOS>MOLECULE
*****
 46 48 0 0 0
SMALL
GASTEIGER

@<TRIPOS>ATOM
      1 C          -1.2795    3.5496    2.8925 C.3     1  UNL1       -0.0570
      2 C          -0.8285    3.0082    1.5429 C.3     1  UNL1        0.0217
      3 C          -1.2743    1.6053    1.3550 C.2     1  UNL1        0.2198
      4 O          -1.8962    1.0853    2.3415 O.2     1  UNL1       -0.2753
      5 N          -1.0584    0.8374    0.1842 N.am    1  UNL1       -0.2670
      6 C          -0.3621    1.3230   -0.9860 C.3     1  UNL1        0.0448
      7 C           1.0728    1.0094   -1.0242 C.ar    1  UNL1       -0.0296
      8 C           1.4380   -0.2301   -1.5252 C.ar    1  UNL1       -0.0553
      9 C           2.7811   -0.6000   -1.6110 C.ar    1  UNL1       -0.0366
     10 C           3.7495    0.2859   -1.1895 C.ar    1  UNL1        0.0879
     11 S           5.4455   -0.1284   -1.2743 S.O2    1  UNL1       -0.0059
     12 C           5.9954   -0.9129    0.2181 C.3     1  UNL1        0.0596
     13 O           5.6045   -1.1276   -2.3832 O.2     1  UNL1       -0.1696
     14 O           6.3013    1.0403   -1.5859 O.2     1  UNL1       -0.1696
     15 C           3.3762    1.5149   -0.6936 C.ar    1  UNL1       -0.0366
     16 C           2.0304    1.8858   -0.6076 C.ar    1  UNL1       -0.0553
     17 C          -1.5810   -0.5002    0.2078 C.ar    1  UNL1        0.0400
     18 C          -0.7682   -1.4933    0.6898 C.ar    1  UNL1       -0.0050
     19 C          -1.2083   -2.8211    0.7430 C.ar    1  UNL1        0.1258
     20 F          -0.4213   -3.8091    1.2142 F       1  UNL1       -0.2054
     21 C          -2.4621   -3.1169    0.3072 C.ar    1  UNL1       -0.0156
     22 C          -3.3152   -2.1557   -0.1851 C.ar    1  UNL1        0.0249
     23 C          -4.6563   -2.4698   -0.6513 C.ar    1  UNL1        0.1795
     24 N          -5.1975   -3.6919   -0.6473 N.ar    1  UNL1       -0.1084
     25 N          -6.4435   -3.6156   -1.1442 N.ar    1  UNL1       -0.0229
     26 N          -6.6681   -2.3382   -1.4548 N.ar    1  UNL1       -0.0464
     27 N          -5.5670   -1.6324   -1.1511 N.ar    1  UNL1       -0.2388
     28 C          -2.8340   -0.8441   -0.2195 C.ar    1  UNL1       -0.0293
     29 H          -2.2524    4.0971    2.8190 H       1  UNL1        0.0234
     30 H          -1.3669    2.7362    3.6370 H       1  UNL1        0.0234
     31 H          -0.5299    4.2961    3.2224 H       1  UNL1        0.0234
     32 H           0.2765    3.0679    1.5281 H       1  UNL1        0.0356
     33 H          -1.2305    3.6242    0.7303 H       1  UNL1        0.0356
     34 H          -0.4615    2.4290   -0.9813 H       1  UNL1        0.0518
     35 H          -0.9032    0.9730   -1.8910 H       1  UNL1        0.0518
     36 H           0.7186   -0.9566   -1.8668 H       1  UNL1        0.0621
     37 H           3.0337   -1.5769   -2.0075 H       1  UNL1        0.0637
     38 H           5.2135   -1.5696    0.6497 H       1  UNL1        0.0468
     39 H           6.2679   -0.1684    0.9915 H       1  UNL1        0.0468
     40 H           6.8861   -1.5481    0.0521 H       1  UNL1        0.0468
     41 H           4.1653    2.1793   -0.3744 H       1  UNL1        0.0637
     42 H           1.7999    2.8600   -0.2214 H       1  UNL1        0.0621
     43 H           0.2295   -1.2893    1.0419 H       1  UNL1        0.0665
     44 H          -2.8516   -4.1416    0.3290 H       1  UNL1        0.0653
     45 H          -5.4956   -0.5998   -1.3042 H       1  UNL1        0.1923
     46 H          -3.4723   -0.0701   -0.5972 H       1  UNL1        0.0643
@<TRIPOS>BOND
     1     1     2    1
     2     2     3    1
     3     3     4    2
     4     3     5   am
     5     5     6    1
     6     6     7    1
     7     7     8   ar
     8     8     9   ar
     9     9    10   ar
    10    10    11    1
    11    11    12    1
    12    11    13    2
    13    11    14    2
    14    10    15   ar
    15    15    16   ar
    16     5    17    1
    17    17    18   ar
    18    18    19   ar
    19    19    20    1
    20    19    21   ar
    21    21    22   ar
    22    22    23    1
    23    23    24   ar
    24    24    25   ar
    25    25    26   ar
    26    26    27   ar
    27    22    28   ar
    28    16     7   ar
    29    28    17   ar
    30    27    23   ar
    31     1    29    1
    32     1    30    1
    33     1    31    1
    34     2    32    1
    35     2    33    1
    36     6    34    1
    37     6    35    1
    38     8    36    1
    39     9    37    1
    40    12    38    1
    41    12    39    1
    42    12    40    1
    43    15    41    1
    44    16    42    1
    45    18    43    1
    46    21    44    1
    47    27    45    1
    48    28    46    1
