
     RDKit          3D

 44 48  0  0  0  0  0  0  0  0999 V2000
    7.0464   -0.3122   -0.9036 O   0  0  0  0  0  0  0  0  0  0  0  0
    7.2304    0.4402    0.2532 C   0  0  0  0  0  0  0  0  0  0  0  0
    6.1479    1.4954    0.3666 C   0  0  0  0  0  0  0  0  0  0  0  0
    4.8283    0.8946    0.4225 N   0  0  0  0  0  0  0  0  0  0  0  0
    4.0732    0.6327   -0.6856 C   0  0  0  0  0  0  0  0  0  0  0  0
    2.8805    0.0651   -0.2930 C   0  0  0  0  0  0  0  0  0  0  0  0
    1.7919   -0.3644   -1.1670 C   0  0  0  0  0  0  0  0  0  0  0  0
    1.9002   -0.2169   -2.5392 C   0  0  0  0  0  0  0  0  0  0  0  0
    0.9505   -0.5851   -3.3927 N   0  0  0  0  0  0  0  0  0  0  0  0
   -0.1861   -1.1357   -2.8833 C   0  0  0  0  0  0  0  0  0  0  0  0
   -1.3151   -1.6067   -3.4357 N   0  0  0  0  0  0  0  0  0  0  0  0
   -2.0894   -2.0266   -2.4647 N   0  0  0  0  0  0  0  0  0  0  0  0
   -1.5238   -1.8546   -1.2974 N   0  0  0  0  0  0  0  0  0  0  0  0
   -2.1107   -2.2124   -0.0130 C   0  0  0  0  0  0  0  0  0  0  0  0
   -2.8916   -1.0712    0.5322 C   0  0  0  0  0  0  0  0  0  0  0  0
   -2.3093   -0.1261    1.3433 C   0  0  0  0  0  0  0  0  0  0  0  0
   -3.0664    0.9080    1.8228 C   0  0  0  0  0  0  0  0  0  0  0  0
   -4.4037    1.0014    1.4948 C   0  0  0  0  0  0  0  0  0  0  0  0
   -5.1856    2.0045    1.9460 N   0  0  0  0  0  0  0  0  0  0  0  0
   -6.4813    2.0629    1.6065 C   0  0  0  0  0  0  0  0  0  0  0  0
   -7.0909    1.1396    0.8022 C   0  0  0  0  0  0  0  0  0  0  0  0
   -6.3245    0.0951    0.3183 C   0  0  0  0  0  0  0  0  0  0  0  0
   -4.9937    0.0610    0.6847 C   0  0  0  0  0  0  0  0  0  0  0  0
   -4.2317   -0.9671    0.2106 C   0  0  0  0  0  0  0  0  0  0  0  0
   -0.3318   -1.2994   -1.5220 C   0  0  0  0  0  0  0  0  0  0  0  0
    0.6651   -0.9094   -0.6742 N   0  0  0  0  0  0  0  0  0  0  0  0
    2.9314   -0.0106    1.0822 C   0  0  0  0  0  0  0  0  0  0  0  0
    4.1307    0.5034    1.4763 N   0  0  0  0  0  0  0  0  0  0  0  0
    7.3611    0.1774   -1.7030 H   0  0  0  0  0  0  0  0  0  0  0  0
    7.1835   -0.2648    1.1091 H   0  0  0  0  0  0  0  0  0  0  0  0
    8.2038    0.9752    0.2433 H   0  0  0  0  0  0  0  0  0  0  0  0
    6.2457    2.1722   -0.5151 H   0  0  0  0  0  0  0  0  0  0  0  0
    6.2866    2.1241    1.2577 H   0  0  0  0  0  0  0  0  0  0  0  0
    4.3376    0.8263   -1.7167 H   0  0  0  0  0  0  0  0  0  0  0  0
    2.8100    0.2223   -2.9256 H   0  0  0  0  0  0  0  0  0  0  0  0
   -1.2817   -2.4780    0.6758 H   0  0  0  0  0  0  0  0  0  0  0  0
   -2.7689   -3.0917   -0.1414 H   0  0  0  0  0  0  0  0  0  0  0  0
   -1.2499   -0.1832    1.6145 H   0  0  0  0  0  0  0  0  0  0  0  0
   -2.6335    1.6652    2.4627 H   0  0  0  0  0  0  0  0  0  0  0  0
   -7.1110    2.8787    1.9753 H   0  0  0  0  0  0  0  0  0  0  0  0
   -8.1435    1.1859    0.5255 H   0  0  0  0  0  0  0  0  0  0  0  0
   -6.7723   -0.6687   -0.3305 H   0  0  0  0  0  0  0  0  0  0  0  0
   -4.6587   -1.7354   -0.4352 H   0  0  0  0  0  0  0  0  0  0  0  0
    2.1503   -0.4110    1.7389 H   0  0  0  0  0  0  0  0  0  0  0  0
  1  2  1  0
  2  3  1  0
  3  4  1  0
  4  5  1  0
  5  6  2  0
  6  7  1  0
  7  8  2  0
  8  9  1  0
  9 10  2  0
 10 11  1  0
 11 12  2  0
 12 13  1  0
 13 14  1  0
 14 15  1  0
 15 16  2  0
 16 17  1  0
 17 18  2  0
 18 19  1  0
 19 20  2  0
 20 21  1  0
 21 22  2  0
 22 23  1  0
 23 24  2  0
 13 25  1  0
 25 26  2  0
  6 27  1  0
 27 28  2  0
 28  4  1  0
 26  7  1  0
 25 10  1  0
 24 15  1  0
 23 18  1  0
  1 29  1  0
  2 30  1  0
  2 31  1  0
  3 32  1  0
  3 33  1  0
  5 34  1  0
  8 35  1  0
 14 36  1  0
 14 37  1  0
 16 38  1  0
 17 39  1  0
 20 40  1  0
 21 41  1  0
 22 42  1  0
 24 43  1  0
 27 44  1  0
M  END
$$$$
