@<TRIPOS>MOLECULE
*****
 44 48 0 0 0
SMALL
GASTEIGER

@<TRIPOS>ATOM
      1 O           7.0464   -0.3122   -0.9036 O.3     1  UNL1       -0.3932
      2 C           7.2304    0.4402    0.2532 C.3     1  UNL1        0.0637
      3 C           6.1479    1.4954    0.3666 C.3     1  UNL1        0.0646
      4 N           4.8283    0.8946    0.4225 N.ar    1  UNL1       -0.2686
      5 C           4.0732    0.6327   -0.6856 C.ar    1  UNL1        0.0348
      6 C           2.8805    0.0651   -0.2930 C.ar    1  UNL1        0.0393
      7 C           1.7919   -0.3644   -1.1670 C.ar    1  UNL1        0.0945
      8 C           1.9002   -0.2169   -2.5392 C.ar    1  UNL1        0.0562
      9 N           0.9505   -0.5851   -3.3927 N.ar    1  UNL1       -0.2295
     10 C          -0.1861   -1.1357   -2.8833 C.ar    1  UNL1        0.2206
     11 N          -1.3151   -1.6067   -3.4357 N.ar    1  UNL1       -0.1076
     12 N          -2.0894   -2.0266   -2.4647 N.ar    1  UNL1       -0.0614
     13 N          -1.5238   -1.8546   -1.2974 N.ar    1  UNL1       -0.2209
     14 C          -2.1107   -2.2124   -0.0130 C.3     1  UNL1        0.0705
     15 C          -2.8916   -1.0712    0.5322 C.ar    1  UNL1       -0.0253
     16 C          -2.3093   -0.1261    1.3433 C.ar    1  UNL1       -0.0548
     17 C          -3.0664    0.9080    1.8228 C.ar    1  UNL1       -0.0354
     18 C          -4.4037    1.0014    1.4948 C.ar    1  UNL1        0.0710
     19 N          -5.1856    2.0045    1.9460 N.ar    1  UNL1       -0.2550
     20 C          -6.4813    2.0629    1.6065 C.ar    1  UNL1        0.0283
     21 C          -7.0909    1.1396    0.8022 C.ar    1  UNL1       -0.0430
     22 C          -6.3245    0.0951    0.3183 C.ar    1  UNL1       -0.0511
     23 C          -4.9937    0.0610    0.6847 C.ar    1  UNL1        0.0007
     24 C          -4.2317   -0.9671    0.2106 C.ar    1  UNL1       -0.0476
     25 C          -0.3318   -1.2994   -1.5220 C.ar    1  UNL1        0.1987
     26 N           0.6651   -0.9094   -0.6742 N.ar    1  UNL1       -0.2232
     27 C           2.9314   -0.0106    1.0822 C.ar    1  UNL1        0.0586
     28 N           4.1307    0.5034    1.4763 N.ar    1  UNL1       -0.1789
     29 H           7.3611    0.1774   -1.7030 H       1  UNL1        0.2095
     30 H           7.1835   -0.2648    1.1091 H       1  UNL1        0.0575
     31 H           8.2038    0.9752    0.2433 H       1  UNL1        0.0575
     32 H           6.2457    2.1722   -0.5151 H       1  UNL1        0.0531
     33 H           6.2866    2.1241    1.2577 H       1  UNL1        0.0531
     34 H           4.3376    0.8263   -1.7167 H       1  UNL1        0.0833
     35 H           2.8100    0.2223   -2.9256 H       1  UNL1        0.0852
     36 H          -1.2817   -2.4780    0.6758 H       1  UNL1        0.0560
     37 H          -2.7689   -3.0917   -0.1414 H       1  UNL1        0.0560
     38 H          -1.2499   -0.1832    1.6145 H       1  UNL1        0.0622
     39 H          -2.6335    1.6652    2.4627 H       1  UNL1        0.0639
     40 H          -7.1110    2.8787    1.9753 H       1  UNL1        0.0830
     41 H          -8.1435    1.1859    0.5255 H       1  UNL1        0.0633
     42 H          -6.7723   -0.6687   -0.3305 H       1  UNL1        0.0625
     43 H          -4.6587   -1.7354   -0.4352 H       1  UNL1        0.0627
     44 H           2.1503   -0.4110    1.7389 H       1  UNL1        0.0854
@<TRIPOS>BOND
     1     1     2    1
     2     2     3    1
     3     3     4    1
     4     4     5   ar
     5     5     6   ar
     6     6     7    1
     7     7     8   ar
     8     8     9   ar
     9     9    10   ar
    10    10    11   ar
    11    11    12   ar
    12    12    13   ar
    13    13    14    1
    14    14    15    1
    15    15    16   ar
    16    16    17   ar
    17    17    18   ar
    18    18    19   ar
    19    19    20   ar
    20    20    21   ar
    21    21    22   ar
    22    22    23   ar
    23    23    24   ar
    24    13    25   ar
    25    25    26   ar
    26     6    27   ar
    27    27    28   ar
    28    28     4   ar
    29    26     7   ar
    30    25    10   ar
    31    24    15   ar
    32    23    18   ar
    33     1    29    1
    34     2    30    1
    35     2    31    1
    36     3    32    1
    37     3    33    1
    38     5    34    1
    39     8    35    1
    40    14    36    1
    41    14    37    1
    42    16    38    1
    43    17    39    1
    44    20    40    1
    45    21    41    1
    46    22    42    1
    47    24    43    1
    48    27    44    1
