
     RDKit          3D

 78 80  0  0  0  0  0  0  0  0999 V2000
   -2.9291    3.2101   -1.9001 C   0  0  0  0  0  0  0  0  0  0  0  0
   -2.8091    3.0321   -0.3946 C   0  0  0  0  0  0  0  0  0  0  0  0
   -3.0736    4.3765    0.2648 C   0  0  0  0  0  0  0  0  0  0  0  0
   -1.4853    2.5523   -0.0817 N   0  0  0  0  0  0  0  0  0  0  0  0
   -0.4795    3.4797   -0.5945 C   0  0  0  0  0  0  0  0  0  0  0  0
   -1.2818    2.2584    1.2988 C   0  0  2  0  0  0  0  0  0  0  0  0
    0.1690    1.8620    1.5163 C   0  0  0  0  0  0  0  0  0  0  0  0
    0.2869    0.5178    2.1641 C   0  0  0  0  0  0  0  0  0  0  0  0
   -0.5703   -0.5677    1.4817 C   0  0  2  0  0  0  0  0  0  0  0  0
    0.1947   -1.1999    0.4433 N   0  0  0  0  0  0  0  0  0  0  0  0
    0.8267   -2.5372    0.5919 C   0  0  0  0  0  0  0  0  0  0  0  0
    1.3865   -2.8878   -0.7383 C   0  0  0  0  0  0  0  0  0  0  0  0
    1.5880   -1.6025   -1.4654 C   0  0  2  0  0  0  0  0  0  0  0  0
    2.8726   -1.0286   -1.1095 N   0  0  0  0  0  0  0  0  0  0  0  0
    3.8267   -0.6410   -2.0670 C   0  0  0  0  0  0  0  0  0  0  0  0
    3.5237   -0.8124   -3.2781 O   0  0  0  0  0  0  0  0  0  0  0  0
    5.1295   -0.0594   -1.7323 C   0  0  0  0  0  0  0  0  0  0  0  0
    6.0056    0.2887   -2.7365 C   0  0  0  0  0  0  0  0  0  0  0  0
    7.2314    0.8362   -2.4228 C   0  0  0  0  0  0  0  0  0  0  0  0
    8.0978    1.1802   -3.4221 F   0  0  0  0  0  0  0  0  0  0  0  0
    7.6366    1.0590   -1.1300 C   0  0  0  0  0  0  0  0  0  0  0  0
    6.7579    0.7098   -0.1287 C   0  0  0  0  0  0  0  0  0  0  0  0
    7.1917    0.9491    1.2729 C   0  0  0  0  0  0  0  0  0  0  0  0
    8.1287    0.0357    1.6823 F   0  0  0  0  0  0  0  0  0  0  0  0
    7.8075    2.2069    1.3263 F   0  0  0  0  0  0  0  0  0  0  0  0
    6.1134    1.0244    2.1410 F   0  0  0  0  0  0  0  0  0  0  0  0
    5.5117    0.1538   -0.4271 C   0  0  0  0  0  0  0  0  0  0  0  0
    0.5409   -0.7334   -0.8335 C   0  0  0  0  0  0  0  0  0  0  0  0
    0.0957    0.2508   -1.4339 O   0  0  0  0  0  0  0  0  0  0  0  0
   -1.9542   -0.1864    1.2790 C   0  0  2  0  0  0  0  0  0  0  0  0
   -2.7307   -0.4339    0.0636 C   0  0  0  0  0  0  0  0  0  0  0  0
   -3.0250   -2.0638   -0.4633 S   0  0  0  0  0  6  0  0  0  0  0  0
   -4.0001   -1.9357   -1.6553 O   0  0  0  0  0  0  0  0  0  0  0  0
   -1.8833   -2.8214   -0.9972 O   0  0  0  0  0  0  0  0  0  0  0  0
   -3.9167   -3.0541    0.7087 C   0  0  0  0  0  0  0  0  0  0  0  0
   -5.2813   -2.4583    1.0100 C   0  0  0  0  0  0  0  0  0  0  0  0
   -4.1747   -4.3881    0.0225 C   0  0  0  0  0  0  0  0  0  0  0  0
   -3.1468   -3.3438    1.9648 C   0  0  0  0  0  0  0  0  0  0  0  0
   -2.2071    1.2223    1.8171 C   0  0  0  0  0  0  0  0  0  0  0  0
   -2.1190    2.6773   -2.4433 H   0  0  0  0  0  0  0  0  0  0  0  0
   -2.8903    4.2921   -2.1385 H   0  0  0  0  0  0  0  0  0  0  0  0
   -3.9408    2.8547   -2.1836 H   0  0  0  0  0  0  0  0  0  0  0  0
   -3.5523    2.3386   -0.0145 H   0  0  0  0  0  0  0  0  0  0  0  0
   -3.8892    4.9240   -0.2511 H   0  0  0  0  0  0  0  0  0  0  0  0
   -3.3978    4.2382    1.3265 H   0  0  0  0  0  0  0  0  0  0  0  0
   -2.1773    5.0244    0.2230 H   0  0  0  0  0  0  0  0  0  0  0  0
    0.3135    2.9722   -1.1805 H   0  0  0  0  0  0  0  0  0  0  0  0
   -0.0581    4.1204    0.2103 H   0  0  0  0  0  0  0  0  0  0  0  0
   -0.9958    4.1578   -1.3029 H   0  0  0  0  0  0  0  0  0  0  0  0
   -1.4886    3.1963    1.8690 H   0  0  0  0  0  0  0  0  0  0  0  0
    0.7868    1.9230    0.6028 H   0  0  0  0  0  0  0  0  0  0  0  0
    0.6013    2.6033    2.2185 H   0  0  0  0  0  0  0  0  0  0  0  0
    1.3542    0.2236    2.1416 H   0  0  0  0  0  0  0  0  0  0  0  0
    0.0243    0.6299    3.2351 H   0  0  0  0  0  0  0  0  0  0  0  0
   -0.5719   -1.3530    2.3282 H   0  0  0  0  0  0  0  0  0  0  0  0
    1.6510   -2.3954    1.3432 H   0  0  0  0  0  0  0  0  0  0  0  0
    0.1168   -3.2692    0.9665 H   0  0  0  0  0  0  0  0  0  0  0  0
    2.4088   -3.3500   -0.6038 H   0  0  0  0  0  0  0  0  0  0  0  0
    0.7404   -3.5561   -1.3517 H   0  0  0  0  0  0  0  0  0  0  0  0
    1.4622   -1.6897   -2.5537 H   0  0  0  0  0  0  0  0  0  0  0  0
    3.0665   -0.9117   -0.1049 H   0  0  0  0  0  0  0  0  0  0  0  0
    5.7275    0.1298   -3.7878 H   0  0  0  0  0  0  0  0  0  0  0  0
    8.5909    1.4854   -0.8828 H   0  0  0  0  0  0  0  0  0  0  0  0
    4.8583   -0.1029    0.4065 H   0  0  0  0  0  0  0  0  0  0  0  0
   -2.5549   -0.8099    2.0843 H   0  0  0  0  0  0  0  0  0  0  0  0
   -3.7850   -0.0173    0.3078 H   0  0  0  0  0  0  0  0  0  0  0  0
   -2.4815    0.1749   -0.8353 H   0  0  0  0  0  0  0  0  0  0  0  0
   -5.3031   -1.9565    2.0014 H   0  0  0  0  0  0  0  0  0  0  0  0
   -6.0556   -3.2604    1.0602 H   0  0  0  0  0  0  0  0  0  0  0  0
   -5.6147   -1.7733    0.2000 H   0  0  0  0  0  0  0  0  0  0  0  0
   -3.2974   -4.6708   -0.6131 H   0  0  0  0  0  0  0  0  0  0  0  0
   -5.0379   -4.3262   -0.6694 H   0  0  0  0  0  0  0  0  0  0  0  0
   -4.2757   -5.2089    0.7663 H   0  0  0  0  0  0  0  0  0  0  0  0
   -3.5822   -2.8315    2.8562 H   0  0  0  0  0  0  0  0  0  0  0  0
   -3.1985   -4.4397    2.2399 H   0  0  0  0  0  0  0  0  0  0  0  0
   -2.0857   -3.1363    1.8131 H   0  0  0  0  0  0  0  0  0  0  0  0
   -2.0596    1.1318    2.9481 H   0  0  0  0  0  0  0  0  0  0  0  0
   -3.2641    1.5108    1.7278 H   0  0  0  0  0  0  0  0  0  0  0  0
  1  2  1  0
  2  3  1  0
  2  4  1  0
  4  5  1  0
  4  6  1  0
  6  7  1  0
  7  8  1  0
  8  9  1  0
  9 10  1  0
 10 11  1  0
 11 12  1  0
 12 13  1  0
 13 14  1  0
 14 15  1  0
 15 16  2  0
 15 17  1  0
 17 18  2  0
 18 19  1  0
 19 20  1  0
 19 21  2  0
 21 22  1  0
 22 23  1  0
 23 24  1  0
 23 25  1  0
 23 26  1  0
 22 27  2  0
 13 28  1  0
 28 29  2  0
  9 30  1  0
 30 31  1  0
 31 32  1  0
 32 33  2  0
 32 34  2  0
 32 35  1  0
 35 36  1  0
 35 37  1  0
 35 38  1  0
 30 39  1  0
 39  6  1  0
 28 10  1  0
 27 17  1  0
  1 40  1  0
  1 41  1  0
  1 42  1  0
  2 43  1  0
  3 44  1  0
  3 45  1  0
  3 46  1  0
  5 47  1  0
  5 48  1  0
  5 49  1  0
  6 50  1  1
  7 51  1  0
  7 52  1  0
  8 53  1  0
  8 54  1  0
  9 55  1  1
 11 56  1  0
 11 57  1  0
 12 58  1  0
 12 59  1  0
 13 60  1  6
 14 61  1  0
 18 62  1  0
 21 63  1  0
 27 64  1  0
 30 65  1  1
 31 66  1  0
 31 67  1  0
 36 68  1  0
 36 69  1  0
 36 70  1  0
 37 71  1  0
 37 72  1  0
 37 73  1  0
 38 74  1  0
 38 75  1  0
 38 76  1  0
 39 77  1  0
 39 78  1  0
M  END
$$$$
