@<TRIPOS>MOLECULE
*****
 78 80 0 0 0
SMALL
GASTEIGER

@<TRIPOS>ATOM
      1 C          -2.9291    3.2101   -1.9001 C.3     1  UNL1       -0.0497
      2 C          -2.8091    3.0321   -0.3946 C.3     1  UNL1        0.0048
      3 C          -3.0736    4.3765    0.2648 C.3     1  UNL1       -0.0497
      4 N          -1.4853    2.5523   -0.0817 N.3     1  UNL1       -0.3000
      5 C          -0.4795    3.4797   -0.5945 C.3     1  UNL1       -0.0122
      6 C          -1.2818    2.2584    1.2988 C.3     1  UNL1        0.0108
      7 C           0.1690    1.8620    1.5163 C.3     1  UNL1       -0.0356
      8 C           0.2869    0.5178    2.1641 C.3     1  UNL1       -0.0326
      9 C          -0.5703   -0.5677    1.4817 C.3     1  UNL1        0.0304
     10 N           0.1947   -1.1999    0.4433 N.am    1  UNL1       -0.2965
     11 C           0.8267   -2.5372    0.5919 C.3     1  UNL1        0.0172
     12 C           1.3865   -2.8878   -0.7383 C.3     1  UNL1       -0.0101
     13 C           1.5880   -1.6025   -1.4654 C.3     1  UNL1        0.1013
     14 N           2.8726   -1.0286   -1.1095 N.am    1  UNL1       -0.3000
     15 C           3.8267   -0.6410   -2.0670 C.2     1  UNL1        0.2448
     16 O           3.5237   -0.8124   -3.2781 O.2     1  UNL1       -0.2702
     17 C           5.1295   -0.0594   -1.7323 C.ar    1  UNL1        0.0399
     18 C           6.0056    0.2887   -2.7365 C.ar    1  UNL1       -0.0143
     19 C           7.2314    0.8362   -2.4228 C.ar    1  UNL1        0.1247
     20 F           8.0978    1.1802   -3.4221 F       1  UNL1       -0.2055
     21 C           7.6366    1.0590   -1.1300 C.ar    1  UNL1       -0.0148
     22 C           6.7579    0.7098   -0.1287 C.ar    1  UNL1        0.0582
     23 C           7.1917    0.9491    1.2729 C.3     1  UNL1        0.4175
     24 F           8.1287    0.0357    1.6823 F       1  UNL1       -0.1659
     25 F           7.8075    2.2069    1.3263 F       1  UNL1       -0.1659
     26 F           6.1134    1.0244    2.1410 F       1  UNL1       -0.1659
     27 C           5.5117    0.1538   -0.4271 C.ar    1  UNL1       -0.0378
     28 C           0.5409   -0.7334   -0.8335 C.2     1  UNL1        0.2362
     29 O           0.0957    0.2508   -1.4339 O.2     1  UNL1       -0.2736
     30 C          -1.9542   -0.1864    1.2790 C.3     1  UNL1       -0.0016
     31 C          -2.7307   -0.4339    0.0636 C.3     1  UNL1        0.0709
     32 S          -3.0250   -2.0638   -0.4633 S.O2    1  UNL1       -0.0259
     33 O          -4.0001   -1.9357   -1.6553 O.2     1  UNL1       -0.1738
     34 O          -1.8833   -2.8214   -0.9972 O.2     1  UNL1       -0.1738
     35 C          -3.9167   -3.0541    0.7087 C.3     1  UNL1        0.0794
     36 C          -5.2813   -2.4583    1.0100 C.3     1  UNL1       -0.0405
     37 C          -4.1747   -4.3881    0.0225 C.3     1  UNL1       -0.0405
     38 C          -3.1468   -3.3438    1.9648 C.3     1  UNL1       -0.0405
     39 C          -2.2071    1.2223    1.8171 C.3     1  UNL1       -0.0313
     40 H          -2.1190    2.6773   -2.4433 H       1  UNL1        0.0245
     41 H          -2.8903    4.2921   -2.1385 H       1  UNL1        0.0245
     42 H          -3.9408    2.8547   -2.1836 H       1  UNL1        0.0245
     43 H          -3.5523    2.3386   -0.0145 H       1  UNL1        0.0457
     44 H          -3.8892    4.9240   -0.2511 H       1  UNL1        0.0245
     45 H          -3.3978    4.2382    1.3265 H       1  UNL1        0.0245
     46 H          -2.1773    5.0244    0.2230 H       1  UNL1        0.0245
     47 H           0.3135    2.9722   -1.1805 H       1  UNL1        0.0391
     48 H          -0.0581    4.1204    0.2103 H       1  UNL1        0.0391
     49 H          -0.9958    4.1578   -1.3029 H       1  UNL1        0.0391
     50 H          -1.4886    3.1963    1.8690 H       1  UNL1        0.0463
     51 H           0.7868    1.9230    0.6028 H       1  UNL1        0.0281
     52 H           0.6013    2.6033    2.2185 H       1  UNL1        0.0281
     53 H           1.3542    0.2236    2.1416 H       1  UNL1        0.0284
     54 H           0.0243    0.6299    3.2351 H       1  UNL1        0.0284
     55 H          -0.5719   -1.3530    2.3282 H       1  UNL1        0.0504
     56 H           1.6510   -2.3954    1.3432 H       1  UNL1        0.0465
     57 H           0.1168   -3.2692    0.9665 H       1  UNL1        0.0465
     58 H           2.4088   -3.3500   -0.6038 H       1  UNL1        0.0303
     59 H           0.7404   -3.5561   -1.3517 H       1  UNL1        0.0303
     60 H           1.4622   -1.6897   -2.5537 H       1  UNL1        0.0595
     61 H           3.0665   -0.9117   -0.1049 H       1  UNL1        0.1498
     62 H           5.7275    0.1298   -3.7878 H       1  UNL1        0.0654
     63 H           8.5909    1.4854   -0.8828 H       1  UNL1        0.0652
     64 H           4.8583   -0.1029    0.4065 H       1  UNL1        0.0631
     65 H          -2.5549   -0.8099    2.0843 H       1  UNL1        0.0335
     66 H          -3.7850   -0.0173    0.3078 H       1  UNL1        0.0503
     67 H          -2.4815    0.1749   -0.8353 H       1  UNL1        0.0503
     68 H          -5.3031   -1.9565    2.0014 H       1  UNL1        0.0251
     69 H          -6.0556   -3.2604    1.0602 H       1  UNL1        0.0251
     70 H          -5.6147   -1.7733    0.2000 H       1  UNL1        0.0251
     71 H          -3.2974   -4.6708   -0.6131 H       1  UNL1        0.0251
     72 H          -5.0379   -4.3262   -0.6694 H       1  UNL1        0.0251
     73 H          -4.2757   -5.2089    0.7663 H       1  UNL1        0.0251
     74 H          -3.5822   -2.8315    2.8562 H       1  UNL1        0.0251
     75 H          -3.1985   -4.4397    2.2399 H       1  UNL1        0.0251
     76 H          -2.0857   -3.1363    1.8131 H       1  UNL1        0.0251
     77 H          -2.0596    1.1318    2.9481 H       1  UNL1        0.0284
     78 H          -3.2641    1.5108    1.7278 H       1  UNL1        0.0284
@<TRIPOS>BOND
     1     1     2    1
     2     2     3    1
     3     2     4    1
     4     4     5    1
     5     4     6    1
     6     6     7    1
     7     7     8    1
     8     8     9    1
     9     9    10    1
    10    10    11    1
    11    11    12    1
    12    12    13    1
    13    13    14    1
    14    14    15   am
    15    15    16    2
    16    15    17    1
    17    17    18   ar
    18    18    19   ar
    19    19    20    1
    20    19    21   ar
    21    21    22   ar
    22    22    23    1
    23    23    24    1
    24    23    25    1
    25    23    26    1
    26    22    27   ar
    27    13    28    1
    28    28    29    2
    29     9    30    1
    30    30    31    1
    31    31    32    1
    32    32    33    2
    33    32    34    2
    34    32    35    1
    35    35    36    1
    36    35    37    1
    37    35    38    1
    38    30    39    1
    39    39     6    1
    40    28    10   am
    41    27    17   ar
    42     1    40    1
    43     1    41    1
    44     1    42    1
    45     2    43    1
    46     3    44    1
    47     3    45    1
    48     3    46    1
    49     5    47    1
    50     5    48    1
    51     5    49    1
    52     6    50    1
    53     7    51    1
    54     7    52    1
    55     8    53    1
    56     8    54    1
    57     9    55    1
    58    11    56    1
    59    11    57    1
    60    12    58    1
    61    12    59    1
    62    13    60    1
    63    14    61    1
    64    18    62    1
    65    21    63    1
    66    27    64    1
    67    30    65    1
    68    31    66    1
    69    31    67    1
    70    36    68    1
    71    36    69    1
    72    36    70    1
    73    37    71    1
    74    37    72    1
    75    37    73    1
    76    38    74    1
    77    38    75    1
    78    38    76    1
    79    39    77    1
    80    39    78    1
