@<TRIPOS>MOLECULE
*****
 57 62 0 0 0
SMALL
GASTEIGER

@<TRIPOS>ATOM
      1 C          -6.0953   -1.5436    2.2895 C.3     1  UNL1        0.0805
      2 O          -5.0565   -1.1368    1.4492 O.3     1  UNL1       -0.4782
      3 C          -4.7392   -1.8990    0.3307 C.ar    1  UNL1        0.2408
      4 N          -5.4221   -3.0193    0.0539 N.ar    1  UNL1       -0.2195
      5 C          -5.1333   -3.7713   -1.0208 C.ar    1  UNL1        0.0315
      6 C          -4.1105   -3.3675   -1.8450 C.ar    1  UNL1       -0.0413
      7 C          -3.4037   -2.2103   -1.5607 C.ar    1  UNL1       -0.0296
      8 C          -3.7045   -1.4439   -0.4577 C.ar    1  UNL1        0.1275
      9 N          -2.9964   -0.2588   -0.1480 N.ar    1  UNL1       -0.2219
     10 N          -3.4806    0.9458    0.0910 N.ar    1  UNL1       -0.1704
     11 C          -2.5172    1.8325    0.3500 C.ar    1  UNL1        0.0664
     12 C          -2.6471    3.2795    0.6656 C.3     1  UNL1       -0.0202
     13 C          -1.3186    1.1341    0.2691 C.ar    1  UNL1        0.0309
     14 C          -1.6363   -0.1600   -0.0400 C.ar    1  UNL1        0.1353
     15 C          -0.4209   -0.9515   -0.1340 C.2     1  UNL1        0.2715
     16 O          -0.3480   -2.2013   -0.4078 O.2     1  UNL1       -0.2679
     17 N           0.6525   -0.0670    0.1364 N.am    1  UNL1       -0.2389
     18 C           2.0211   -0.5074    0.1595 C.ar    1  UNL1        0.1313
     19 C           2.7638   -0.5172   -0.9913 C.ar    1  UNL1       -0.0161
     20 C           4.1025   -0.9390   -0.9893 C.ar    1  UNL1       -0.0164
     21 C           4.9120   -0.9509   -2.2361 C.3     1  UNL1       -0.0374
     22 C           4.6586   -1.3452    0.1975 C.ar    1  UNL1        0.1345
     23 N           5.9032   -1.8007    0.5249 N.ar    1  UNL1       -0.1276
     24 N           5.8817   -2.0455    1.8163 N.ar    1  UNL1       -0.0635
     25 N           4.6749   -1.7652    2.3276 N.ar    1  UNL1       -0.2297
     26 C           4.3204   -1.9231    3.7107 C.3     1  UNL1        0.0341
     27 C           3.8859   -1.3240    1.3378 C.ar    1  UNL1        0.1803
     28 N           2.6039   -0.9116    1.2922 N.ar    1  UNL1       -0.2108
     29 C           0.1317    1.2353    0.3772 C.3     1  UNL1        0.0867
     30 C           0.7069    2.3134   -0.4596 C.ar    1  UNL1       -0.0220
     31 C           1.1138    3.5171    0.1219 C.ar    1  UNL1       -0.0551
     32 C           1.6455    4.5570   -0.5837 C.ar    1  UNL1       -0.0431
     33 C           1.8024    4.4455   -1.9431 C.ar    1  UNL1        0.0410
     34 CL          2.4773    5.7342   -2.9255 Cl      1  UNL1       -0.0835
     35 C           1.4073    3.2664   -2.5365 C.ar    1  UNL1       -0.0431
     36 C           0.8711    2.2208   -1.8164 C.ar    1  UNL1       -0.0551
     37 H          -6.3891   -2.5891    2.0588 H       1  UNL1        0.0660
     38 H          -5.7858   -1.4957    3.3407 H       1  UNL1        0.0660
     39 H          -6.9882   -0.9001    2.0877 H       1  UNL1        0.0660
     40 H          -5.6846   -4.6840   -1.2525 H       1  UNL1        0.0831
     41 H          -3.8582   -3.9585   -2.7197 H       1  UNL1        0.0633
     42 H          -2.5950   -1.8873   -2.2087 H       1  UNL1        0.0641
     43 H          -2.2221    3.5600    1.6283 H       1  UNL1        0.0293
     44 H          -2.2454    3.8830   -0.1934 H       1  UNL1        0.0293
     45 H          -3.7358    3.5124    0.6984 H       1  UNL1        0.0293
     46 H           2.3854   -0.2155   -1.9500 H       1  UNL1        0.0655
     47 H           4.2201   -1.1461   -3.0938 H       1  UNL1        0.0278
     48 H           5.6703   -1.7342   -2.2426 H       1  UNL1        0.0278
     49 H           5.4368    0.0206   -2.3621 H       1  UNL1        0.0278
     50 H           4.5564   -0.9453    4.2186 H       1  UNL1        0.0474
     51 H           4.9590   -2.7325    4.1499 H       1  UNL1        0.0474
     52 H           3.2643   -2.2118    3.8346 H       1  UNL1        0.0474
     53 H           0.4414    1.4860    1.4442 H       1  UNL1        0.0606
     54 H           1.0011    3.6312    1.1922 H       1  UNL1        0.0621
     55 H           1.9584    5.4901   -0.1161 H       1  UNL1        0.0632
     56 H           1.5321    3.1821   -3.6058 H       1  UNL1        0.0632
     57 H           0.5729    1.3130   -2.3145 H       1  UNL1        0.0621
@<TRIPOS>BOND
     1     1     2    1
     2     2     3    1
     3     3     4   ar
     4     4     5   ar
     5     5     6   ar
     6     6     7   ar
     7     7     8   ar
     8     8     9    1
     9     9    10   ar
    10    10    11   ar
    11    11    12    1
    12    11    13   ar
    13    13    14   ar
    14    14    15    1
    15    15    16    2
    16    15    17   am
    17    17    18    1
    18    18    19   ar
    19    19    20   ar
    20    20    21    1
    21    20    22   ar
    22    22    23   ar
    23    23    24   ar
    24    24    25   ar
    25    25    26    1
    26    25    27   ar
    27    27    28   ar
    28    17    29    1
    29    29    30    1
    30    30    31   ar
    31    31    32   ar
    32    32    33   ar
    33    33    34    1
    34    33    35   ar
    35    35    36   ar
    36     8     3   ar
    37    14     9   ar
    38    28    18   ar
    39    36    30   ar
    40    29    13    1
    41    27    22   ar
    42     1    37    1
    43     1    38    1
    44     1    39    1
    45     5    40    1
    46     6    41    1
    47     7    42    1
    48    12    43    1
    49    12    44    1
    50    12    45    1
    51    19    46    1
    52    21    47    1
    53    21    48    1
    54    21    49    1
    55    26    50    1
    56    26    51    1
    57    26    52    1
    58    29    53    1
    59    31    54    1
    60    32    55    1
    61    35    56    1
    62    36    57    1
