@<TRIPOS>MOLECULE
*****
 49 54 0 0 0
SMALL
GASTEIGER

@<TRIPOS>ATOM
      1 C          -8.1365   -0.2483    0.3610 C.3     1  UNL1        0.0085
      2 N          -6.7824   -0.0065    0.7554 N.am    1  UNL1       -0.2674
      3 C          -6.5314    0.8737    1.8713 C.2     1  UNL1        0.2573
      4 O          -7.4903    1.3902    2.4602 O.2     1  UNL1       -0.2715
      5 C          -5.1548    1.1467    2.2950 C.3     1  UNL1        0.1658
      6 O          -4.1679    0.4856    1.5482 O.3     1  UNL1       -0.4802
      7 C          -4.4003   -0.3535    0.4851 C.ar    1  UNL1        0.1531
      8 C          -5.6916   -0.6106    0.0761 C.ar    1  UNL1        0.0970
      9 C          -5.9546   -1.4461   -0.9848 C.ar    1  UNL1        0.0532
     10 N          -4.9003   -2.0241   -1.6341 N.ar    1  UNL1       -0.2529
     11 C          -3.6219   -1.8115   -1.2814 C.ar    1  UNL1        0.0747
     12 C          -2.5661   -2.4141   -1.9611 C.ar    1  UNL1       -0.0346
     13 C          -1.2582   -2.1949   -1.5981 C.ar    1  UNL1       -0.0458
     14 C          -1.0190   -1.3506   -0.5282 C.ar    1  UNL1        0.0164
     15 S           0.6817   -1.0687   -0.0639 S.3     1  UNL1       -0.0496
     16 C           1.3372    0.3229   -0.9451 C.ar    1  UNL1        0.2007
     17 N           0.6455    1.0688   -1.8443 N.ar    1  UNL1       -0.1214
     18 N           1.4430    2.0176   -2.3015 N.ar    1  UNL1       -0.1256
     19 C           2.6532    1.9031   -1.7115 C.ar    1  UNL1        0.1972
     20 C           3.8089    2.6491   -1.8541 C.ar    1  UNL1        0.1684
     21 F           3.8506    3.6929   -2.6983 F       1  UNL1       -0.2016
     22 C           4.9297    2.3026   -1.1088 C.ar    1  UNL1       -0.0135
     23 C           4.8276    1.2309   -0.2654 C.ar    1  UNL1        0.0045
     24 C           5.9808    0.8431    0.5286 C.ar    1  UNL1        0.0210
     25 C           6.9628    1.7071    1.0326 C.ar    1  UNL1        0.0571
     26 N           7.8387    0.9485    1.7011 N.ar    1  UNL1       -0.1793
     27 N           7.4914   -0.3259    1.6614 N.ar    1  UNL1       -0.2739
     28 C           8.2146   -1.4488    2.2829 C.3     1  UNL1        0.0302
     29 C           6.3575   -0.4143    0.9492 C.ar    1  UNL1        0.0329
     30 C           3.6640    0.5244   -0.1586 C.ar    1  UNL1        0.0216
     31 N           2.5585    0.8473   -0.8782 N.ar    1  UNL1       -0.2744
     32 C          -2.0526   -0.7603    0.1376 C.ar    1  UNL1       -0.0351
     33 C          -3.3671   -0.9704   -0.2142 C.ar    1  UNL1        0.0450
     34 H          -8.2898   -0.2418   -0.7383 H       1  UNL1        0.0433
     35 H          -8.5102   -1.1788    0.8331 H       1  UNL1        0.0433
     36 H          -8.7693    0.5742    0.7507 H       1  UNL1        0.0433
     37 H          -5.0615    0.7692    3.3500 H       1  UNL1        0.0795
     38 H          -4.9968    2.2491    2.3279 H       1  UNL1        0.0795
     39 H          -6.9574   -1.6651   -1.3267 H       1  UNL1        0.0850
     40 H          -2.7569   -3.0724   -2.7957 H       1  UNL1        0.0639
     41 H          -0.4312   -2.6486   -2.1074 H       1  UNL1        0.0629
     42 H           5.8635    2.8462   -1.1749 H       1  UNL1        0.0654
     43 H           6.9484    2.7810    0.8696 H       1  UNL1        0.0854
     44 H           9.2609   -1.1029    2.4640 H       1  UNL1        0.0473
     45 H           8.2756   -2.2956    1.5528 H       1  UNL1        0.0473
     46 H           7.7806   -1.7574    3.2335 H       1  UNL1        0.0473
     47 H           5.8088   -1.3256    0.7287 H       1  UNL1        0.0832
     48 H           3.5503   -0.3360    0.5057 H       1  UNL1        0.0820
     49 H          -1.8662   -0.1017    0.9719 H       1  UNL1        0.0636
@<TRIPOS>BOND
     1     1     2    1
     2     2     3   am
     3     3     4    2
     4     3     5    1
     5     5     6    1
     6     6     7    1
     7     7     8   ar
     8     8     9   ar
     9     9    10   ar
    10    10    11   ar
    11    11    12   ar
    12    12    13   ar
    13    13    14   ar
    14    14    15    1
    15    15    16    1
    16    16    17   ar
    17    17    18   ar
    18    18    19   ar
    19    19    20   ar
    20    20    21    1
    21    20    22   ar
    22    22    23   ar
    23    23    24    1
    24    24    25   ar
    25    25    26   ar
    26    26    27   ar
    27    27    28    1
    28    27    29   ar
    29    23    30   ar
    30    30    31   ar
    31    14    32   ar
    32    32    33   ar
    33     8     2    1
    34    33    11   ar
    35    33     7   ar
    36    31    16   ar
    37    31    19   ar
    38    29    24   ar
    39     1    34    1
    40     1    35    1
    41     1    36    1
    42     5    37    1
    43     5    38    1
    44     9    39    1
    45    12    40    1
    46    13    41    1
    47    22    42    1
    48    25    43    1
    49    28    44    1
    50    28    45    1
    51    28    46    1
    52    29    47    1
    53    30    48    1
    54    32    49    1
