
     RDKit          3D

 49 54  0  0  0  0  0  0  0  0999 V2000
   -8.1365   -0.2483    0.3610 C   0  0  0  0  0  0  0  0  0  0  0  0
   -6.7824   -0.0065    0.7554 N   0  0  0  0  0  0  0  0  0  0  0  0
   -6.5314    0.8737    1.8713 C   0  0  0  0  0  0  0  0  0  0  0  0
   -7.4903    1.3902    2.4602 O   0  0  0  0  0  0  0  0  0  0  0  0
   -5.1548    1.1467    2.2950 C   0  0  0  0  0  0  0  0  0  0  0  0
   -4.1679    0.4856    1.5482 O   0  0  0  0  0  0  0  0  0  0  0  0
   -4.4003   -0.3535    0.4851 C   0  0  0  0  0  0  0  0  0  0  0  0
   -5.6916   -0.6106    0.0761 C   0  0  0  0  0  0  0  0  0  0  0  0
   -5.9546   -1.4461   -0.9848 C   0  0  0  0  0  0  0  0  0  0  0  0
   -4.9003   -2.0241   -1.6341 N   0  0  0  0  0  0  0  0  0  0  0  0
   -3.6219   -1.8115   -1.2814 C   0  0  0  0  0  0  0  0  0  0  0  0
   -2.5661   -2.4141   -1.9611 C   0  0  0  0  0  0  0  0  0  0  0  0
   -1.2582   -2.1949   -1.5981 C   0  0  0  0  0  0  0  0  0  0  0  0
   -1.0190   -1.3506   -0.5282 C   0  0  0  0  0  0  0  0  0  0  0  0
    0.6817   -1.0687   -0.0639 S   0  0  0  0  0  0  0  0  0  0  0  0
    1.3372    0.3229   -0.9451 C   0  0  0  0  0  0  0  0  0  0  0  0
    0.6455    1.0688   -1.8443 N   0  0  0  0  0  0  0  0  0  0  0  0
    1.4430    2.0176   -2.3015 N   0  0  0  0  0  0  0  0  0  0  0  0
    2.6532    1.9031   -1.7115 C   0  0  0  0  0  0  0  0  0  0  0  0
    3.8089    2.6491   -1.8541 C   0  0  0  0  0  0  0  0  0  0  0  0
    3.8506    3.6929   -2.6983 F   0  0  0  0  0  0  0  0  0  0  0  0
    4.9297    2.3026   -1.1088 C   0  0  0  0  0  0  0  0  0  0  0  0
    4.8276    1.2309   -0.2654 C   0  0  0  0  0  0  0  0  0  0  0  0
    5.9808    0.8431    0.5286 C   0  0  0  0  0  0  0  0  0  0  0  0
    6.9628    1.7071    1.0326 C   0  0  0  0  0  0  0  0  0  0  0  0
    7.8387    0.9485    1.7011 N   0  0  0  0  0  0  0  0  0  0  0  0
    7.4914   -0.3259    1.6614 N   0  0  0  0  0  0  0  0  0  0  0  0
    8.2146   -1.4488    2.2829 C   0  0  0  0  0  0  0  0  0  0  0  0
    6.3575   -0.4143    0.9492 C   0  0  0  0  0  0  0  0  0  0  0  0
    3.6640    0.5244   -0.1586 C   0  0  0  0  0  0  0  0  0  0  0  0
    2.5585    0.8473   -0.8782 N   0  0  0  0  0  0  0  0  0  0  0  0
   -2.0526   -0.7603    0.1376 C   0  0  0  0  0  0  0  0  0  0  0  0
   -3.3671   -0.9704   -0.2142 C   0  0  0  0  0  0  0  0  0  0  0  0
   -8.2898   -0.2418   -0.7383 H   0  0  0  0  0  0  0  0  0  0  0  0
   -8.5102   -1.1788    0.8331 H   0  0  0  0  0  0  0  0  0  0  0  0
   -8.7693    0.5742    0.7507 H   0  0  0  0  0  0  0  0  0  0  0  0
   -5.0615    0.7692    3.3500 H   0  0  0  0  0  0  0  0  0  0  0  0
   -4.9968    2.2491    2.3279 H   0  0  0  0  0  0  0  0  0  0  0  0
   -6.9574   -1.6651   -1.3267 H   0  0  0  0  0  0  0  0  0  0  0  0
   -2.7569   -3.0724   -2.7957 H   0  0  0  0  0  0  0  0  0  0  0  0
   -0.4312   -2.6486   -2.1074 H   0  0  0  0  0  0  0  0  0  0  0  0
    5.8635    2.8462   -1.1749 H   0  0  0  0  0  0  0  0  0  0  0  0
    6.9484    2.7810    0.8696 H   0  0  0  0  0  0  0  0  0  0  0  0
    9.2609   -1.1029    2.4640 H   0  0  0  0  0  0  0  0  0  0  0  0
    8.2756   -2.2956    1.5528 H   0  0  0  0  0  0  0  0  0  0  0  0
    7.7806   -1.7574    3.2335 H   0  0  0  0  0  0  0  0  0  0  0  0
    5.8088   -1.3256    0.7287 H   0  0  0  0  0  0  0  0  0  0  0  0
    3.5503   -0.3360    0.5057 H   0  0  0  0  0  0  0  0  0  0  0  0
   -1.8662   -0.1017    0.9719 H   0  0  0  0  0  0  0  0  0  0  0  0
  1  2  1  0
  2  3  1  0
  3  4  2  0
  3  5  1  0
  5  6  1  0
  6  7  1  0
  7  8  2  0
  8  9  1  0
  9 10  2  0
 10 11  1  0
 11 12  2  0
 12 13  1  0
 13 14  2  0
 14 15  1  0
 15 16  1  0
 16 17  2  0
 17 18  1  0
 18 19  2  0
 19 20  1  0
 20 21  1  0
 20 22  2  0
 22 23  1  0
 23 24  1  0
 24 25  1  0
 25 26  2  0
 26 27  1  0
 27 28  1  0
 27 29  1  0
 23 30  2  0
 30 31  1  0
 14 32  1  0
 32 33  2  0
  8  2  1  0
 33 11  1  0
 33  7  1  0
 31 16  1  0
 31 19  1  0
 29 24  2  0
  1 34  1  0
  1 35  1  0
  1 36  1  0
  5 37  1  0
  5 38  1  0
  9 39  1  0
 12 40  1  0
 13 41  1  0
 22 42  1  0
 25 43  1  0
 28 44  1  0
 28 45  1  0
 28 46  1  0
 29 47  1  0
 30 48  1  0
 32 49  1  0
M  END
$$$$
