@<TRIPOS>MOLECULE
*****
 40 42 0 0 0
SMALL
GASTEIGER

@<TRIPOS>ATOM
      1 C          -0.0309    3.6804    0.8672 C.3     1  UNL1        0.0817
      2 O          -0.3422    2.3304    0.5874 O.3     1  UNL1       -0.4677
      3 C          -0.0421    1.7121   -0.6162 C.2     1  UNL1        0.3120
      4 O           0.5469    2.4809   -1.4569 O.2     1  UNL1       -0.2505
      5 C          -0.3176    0.3416   -1.0008 C.3     1  UNL1        0.0787
      6 C          -1.7627   -0.0795   -0.9597 C.3     1  UNL1        0.0239
      7 C          -2.4822    0.1850    0.3117 C.3     1  UNL1       -0.0351
      8 C          -2.7350   -1.2104    0.9072 C.3     1  UNL1       -0.0359
      9 C          -1.5430   -1.9476    0.2792 C.3     1  UNL1        0.0110
     10 C          -0.2791   -1.3288    0.8115 C.3     1  UNL1       -0.0297
     11 C           0.4994   -0.7227   -0.3165 C.3     1  UNL1       -0.0001
     12 C           1.8740   -0.3434    0.0039 C.ar    1  UNL1       -0.0434
     13 C           2.9445   -0.7051   -0.8058 C.ar    1  UNL1       -0.0583
     14 C           4.2536   -0.3839   -0.5449 C.ar    1  UNL1       -0.0615
     15 C           4.5493    0.3437    0.5878 C.ar    1  UNL1       -0.0617
     16 C           3.4983    0.7252    1.4264 C.ar    1  UNL1       -0.0615
     17 C           2.1903    0.3862    1.1362 C.ar    1  UNL1       -0.0583
     18 N          -1.7250   -1.5468   -1.1090 N.3     1  UNL1       -0.2986
     19 C          -2.9319   -2.0459   -1.6820 C.3     1  UNL1       -0.0122
     20 H           0.9797    3.9433    0.4390 H       1  UNL1        0.0661
     21 H           0.0614    3.7494    1.9876 H       1  UNL1        0.0661
     22 H          -0.7781    4.3907    0.4705 H       1  UNL1        0.0661
     23 H          -0.0450    0.2599   -2.1067 H       1  UNL1        0.0435
     24 H          -2.3466    0.3669   -1.8106 H       1  UNL1        0.0471
     25 H          -1.9085    0.7366    1.0613 H       1  UNL1        0.0281
     26 H          -3.4898    0.6385    0.1698 H       1  UNL1        0.0281
     27 H          -2.5908   -1.2050    1.9923 H       1  UNL1        0.0281
     28 H          -3.6922   -1.6251    0.5804 H       1  UNL1        0.0281
     29 H          -1.6096   -3.0283    0.4118 H       1  UNL1        0.0463
     30 H           0.3605   -2.1275    1.2601 H       1  UNL1        0.0286
     31 H          -0.4730   -0.5854    1.6067 H       1  UNL1        0.0286
     32 H           0.5796   -1.5544   -1.0908 H       1  UNL1        0.0358
     33 H           2.7505   -1.2860   -1.7188 H       1  UNL1        0.0620
     34 H           5.0740   -0.6790   -1.1947 H       1  UNL1        0.0618
     35 H           5.5475    0.6303    0.8550 H       1  UNL1        0.0618
     36 H           3.6927    1.2989    2.3272 H       1  UNL1        0.0618
     37 H           1.4346    0.7146    1.8412 H       1  UNL1        0.0620
     38 H          -3.8356   -1.4359   -1.4463 H       1  UNL1        0.0391
     39 H          -2.8229   -1.9604   -2.8026 H       1  UNL1        0.0391
     40 H          -3.0529   -3.1132   -1.4704 H       1  UNL1        0.0391
@<TRIPOS>BOND
     1     1     2    1
     2     2     3    1
     3     3     4    2
     4     3     5    1
     5     5     6    1
     6     6     7    1
     7     7     8    1
     8     8     9    1
     9     9    10    1
    10    10    11    1
    11    11    12    1
    12    12    13   ar
    13    13    14   ar
    14    14    15   ar
    15    15    16   ar
    16    16    17   ar
    17     9    18    1
    18    18    19    1
    19    11     5    1
    20    17    12   ar
    21    18     6    1
    22     1    20    1
    23     1    21    1
    24     1    22    1
    25     5    23    1
    26     6    24    1
    27     7    25    1
    28     7    26    1
    29     8    27    1
    30     8    28    1
    31     9    29    1
    32    10    30    1
    33    10    31    1
    34    11    32    1
    35    13    33    1
    36    14    34    1
    37    15    35    1
    38    16    36    1
    39    17    37    1
    40    19    38    1
    41    19    39    1
    42    19    40    1
