@<TRIPOS>MOLECULE
*****
 40 43 0 0 0
SMALL
GASTEIGER

@<TRIPOS>ATOM
      1 C           6.3679    1.1112    2.0664 C.3     1  UNL1       -0.0039
      2 C           5.3298    0.1957    1.5508 C.ar    1  UNL1        0.1359
      3 N           5.1257   -1.0503    2.3289 N.ar    1  UNL1       -0.1939
      4 S           3.7750   -1.8448    1.3358 S.2     1  UNL1        0.0369
      5 C           3.7122   -0.5046    0.1541 C.ar    1  UNL1        0.1652
      6 C           2.7315   -0.6051   -0.9622 C.ar    1  UNL1        0.1910
      7 N           2.8244   -1.2848   -2.1090 N.ar    1  UNL1       -0.1269
      8 N           1.7089   -1.0845   -2.8227 N.ar    1  UNL1       -0.1320
      9 C           0.9087   -0.2663   -2.1073 C.ar    1  UNL1        0.1542
     10 N           1.5619    0.0106   -0.9713 N.ar    1  UNL1       -0.3062
     11 C           0.9032    0.8816    0.0005 C.3     1  UNL1        0.0423
     12 C          -0.5452    0.3882    0.1727 C.3     1  UNL1        0.0338
     13 N          -1.1829    0.2249   -1.1063 N.am    1  UNL1       -0.2860
     14 C          -2.5641   -0.0524   -1.1329 C.2     1  UNL1        0.2472
     15 O          -3.1402   -0.1922   -2.2372 O.2     1  UNL1       -0.2700
     16 C          -3.3715   -0.1882    0.0791 C.ar    1  UNL1        0.0370
     17 C          -3.7056    0.8882    0.8536 C.ar    1  UNL1       -0.0483
     18 C          -4.4765    0.7262    1.9898 C.ar    1  UNL1       -0.0427
     19 C          -4.9198   -0.5063    2.3621 C.ar    1  UNL1        0.0410
     20 CL         -5.8873   -0.6854    3.7914 Cl      1  UNL1       -0.0835
     21 C          -4.5820   -1.6110    1.5755 C.ar    1  UNL1       -0.0427
     22 C          -3.8102   -1.4331    0.4429 C.ar    1  UNL1       -0.0483
     23 C          -0.4282    0.3471   -2.3104 C.3     1  UNL1        0.0834
     24 C          -1.0907   -0.2146   -3.5475 C.3     1  UNL1       -0.0393
     25 N           4.5534    0.2517    0.5572 N.ar    1  UNL1       -0.2199
     26 H           6.6636    0.9166    3.0915 H       1  UNL1        0.0308
     27 H           7.2665    1.1453    1.4185 H       1  UNL1        0.0308
     28 H           5.9439    2.1384    2.0427 H       1  UNL1        0.0308
     29 H           0.8566    1.9069   -0.4038 H       1  UNL1        0.0508
     30 H           1.3674    0.8630    0.9872 H       1  UNL1        0.0508
     31 H          -0.4705   -0.5581    0.7384 H       1  UNL1        0.0482
     32 H          -1.0984    1.1352    0.7825 H       1  UNL1        0.0482
     33 H          -3.3683    1.8594    0.5765 H       1  UNL1        0.0625
     34 H          -4.7034    1.6218    2.5586 H       1  UNL1        0.0632
     35 H          -4.9557   -2.5588    1.9156 H       1  UNL1        0.0632
     36 H          -3.5870   -2.3373   -0.1191 H       1  UNL1        0.0625
     37 H          -0.2195    1.4485   -2.4381 H       1  UNL1        0.0579
     38 H          -1.4367   -1.2433   -3.3506 H       1  UNL1        0.0252
     39 H          -1.8098    0.4606   -4.0019 H       1  UNL1        0.0252
     40 H          -0.2473   -0.3000   -4.3032 H       1  UNL1        0.0252
@<TRIPOS>BOND
     1     1     2    1
     2     2     3   ar
     3     3     4   ar
     4     4     5   ar
     5     5     6    1
     6     6     7   ar
     7     7     8   ar
     8     8     9   ar
     9     9    10   ar
    10    10    11    1
    11    11    12    1
    12    12    13    1
    13    13    14   am
    14    14    15    2
    15    14    16    1
    16    16    17   ar
    17    17    18   ar
    18    18    19   ar
    19    19    20    1
    20    19    21   ar
    21    21    22   ar
    22    13    23    1
    23    23    24    1
    24     5    25   ar
    25    25     2   ar
    26    10     6   ar
    27    22    16   ar
    28    23     9    1
    29     1    26    1
    30     1    27    1
    31     1    28    1
    32    11    29    1
    33    11    30    1
    34    12    31    1
    35    12    32    1
    36    17    33    1
    37    18    34    1
    38    21    35    1
    39    22    36    1
    40    23    37    1
    41    24    38    1
    42    24    39    1
    43    24    40    1
