@<TRIPOS>MOLECULE
*****
 51 52 0 0 0
SMALL
GASTEIGER

@<TRIPOS>ATOM
      1 N           5.6581    4.1585   -0.1136 N.pl3   1  UNL1       -0.2872
      2 C           5.1132    2.9339    0.4022 C.2     1  UNL1        0.4042
      3 N           4.4085    3.0037    1.4741 N.pl3   1  UNL1       -0.1277
      4 N           5.3458    1.6991   -0.2487 N.3     1  UNL1       -0.1393
      5 O           5.5017    0.5864    0.5178 O.3     1  UNL1       -0.2169
      6 C           4.4217   -0.2495    0.1454 C.3     1  UNL1        0.1052
      7 C           4.6361   -1.5544    0.8802 C.3     1  UNL1        0.0388
      8 N           3.5655   -2.4901    0.5594 N.am    1  UNL1       -0.3127
      9 C           2.2298   -2.1512    0.8685 C.2     1  UNL1        0.2176
     10 O           1.8551   -1.0823    1.4149 O.2     1  UNL1       -0.2755
     11 C           1.1154   -3.0795    0.5547 C.3     1  UNL1        0.0531
     12 C          -0.1943   -2.5323    0.9673 C.ar    1  UNL1        0.0157
     13 C          -0.4557   -2.5873    2.3309 C.ar    1  UNL1        0.0582
     14 C          -1.6485   -2.1080    2.8642 C.ar    1  UNL1       -0.0422
     15 C          -2.5728   -1.5676    1.9611 C.ar    1  UNL1       -0.0368
     16 C          -2.3068   -1.5161    0.6080 C.ar    1  UNL1        0.0633
     17 N          -3.2902   -0.9537   -0.2865 N.pl3   1  UNL1       -0.3355
     18 C          -4.5246   -0.4522    0.2357 C.3     1  UNL1        0.0786
     19 C          -5.3797    0.0542   -0.8949 C.3     1  UNL1        0.3051
     20 F          -5.6337   -0.9824   -1.7705 F       1  UNL1       -0.1969
     21 F          -6.5963    0.5429   -0.4321 F       1  UNL1       -0.1969
     22 C          -4.6161    1.1064   -1.6125 C.ar    1  UNL1        0.1109
     23 N          -3.7889    0.9563   -2.6491 N.ar    1  UNL1       -0.2539
     24 C          -3.1848    2.0295   -3.1726 C.ar    1  UNL1        0.0281
     25 C          -3.3172    3.3455   -2.7512 C.ar    1  UNL1       -0.0436
     26 C          -4.1721    3.5140   -1.6771 C.ar    1  UNL1       -0.0584
     27 C          -4.7950    2.3994   -1.1391 C.ar    1  UNL1       -0.0345
     28 C          -1.1091   -1.9988    0.0836 C.ar    1  UNL1        0.1489
     29 F          -0.8213   -1.9605   -1.2391 F       1  UNL1       -0.2032
     30 C           0.4915   -3.1459    3.2831 C.1     1  UNL1        0.0995
     31 N           1.2453   -3.6022    4.0357 N.1     1  UNL1       -0.1909
     32 H           6.3234    4.9508   -0.0268 H       1  UNL1        0.2547
     33 H           5.7233    4.9286   -0.8114 H       1  UNL1        0.2547
     34 H           3.9734    2.1772    1.9228 H       1  UNL1        0.3063
     35 H           5.3863    1.7114   -1.3060 H       1  UNL1        0.2988
     36 H           4.4982   -0.4395   -0.9623 H       1  UNL1        0.0615
     37 H           3.4593    0.2178    0.3500 H       1  UNL1        0.0615
     38 H           4.6886   -1.3702    1.9637 H       1  UNL1        0.0486
     39 H           5.6156   -1.9385    0.5138 H       1  UNL1        0.0486
     40 H           3.7366   -3.4201    0.1023 H       1  UNL1        0.1488
     41 H           1.2523   -4.0934    0.9309 H       1  UNL1        0.0408
     42 H           1.0725   -3.1387   -0.5706 H       1  UNL1        0.0408
     43 H          -1.8627   -2.1444    3.9142 H       1  UNL1        0.0631
     44 H          -3.5088   -1.1892    2.3607 H       1  UNL1        0.0637
     45 H          -3.0851   -0.9209   -1.3059 H       1  UNL1        0.1464
     46 H          -5.0598   -1.1771    0.8811 H       1  UNL1        0.0524
     47 H          -4.3023    0.4304    0.8981 H       1  UNL1        0.0524
     48 H          -2.5245    1.8279   -4.0164 H       1  UNL1        0.0829
     49 H          -2.7868    4.1436   -3.2394 H       1  UNL1        0.0633
     50 H          -4.3295    4.5095   -1.2884 H       1  UNL1        0.0619
     51 H          -5.4504    2.6192   -0.2976 H       1  UNL1        0.0637
@<TRIPOS>BOND
     1     1     2    1
     2     2     3    2
     3     2     4    1
     4     4     5    1
     5     5     6    1
     6     6     7    1
     7     7     8    1
     8     8     9   am
     9     9    10    2
    10     9    11    1
    11    11    12    1
    12    12    13   ar
    13    13    14   ar
    14    14    15   ar
    15    15    16   ar
    16    16    17    1
    17    17    18    1
    18    18    19    1
    19    19    20    1
    20    19    21    1
    21    19    22    1
    22    22    23   ar
    23    23    24   ar
    24    24    25   ar
    25    25    26   ar
    26    26    27   ar
    27    16    28   ar
    28    28    29    1
    29    13    30    1
    30    30    31    3
    31    28    12   ar
    32    27    22   ar
    33     1    32    1
    34     1    33    1
    35     3    34    1
    36     4    35    1
    37     6    36    1
    38     6    37    1
    39     7    38    1
    40     7    39    1
    41     8    40    1
    42    11    41    1
    43    11    42    1
    44    14    43    1
    45    15    44    1
    46    17    45    1
    47    18    46    1
    48    18    47    1
    49    24    48    1
    50    25    49    1
    51    26    50    1
    52    27    51    1
