
     RDKit          3D

 69 74  0  0  0  0  0  0  0  0999 V2000
   -6.1737    3.1174   -0.0190 C   0  0  0  0  0  0  0  0  0  0  0  0
   -7.0422    2.3134   -0.8469 N   0  0  0  0  0  0  0  0  0  0  0  0
   -8.4529    2.6772   -0.9915 C   0  0  0  0  0  0  0  0  0  0  0  0
   -6.5217    1.1780   -1.5072 C   0  0  0  0  0  0  0  0  0  0  0  0
   -7.2595    0.4888   -2.2190 O   0  0  0  0  0  0  0  0  0  0  0  0
   -5.1185    0.8277   -1.3438 C   0  0  0  0  0  0  0  0  0  0  0  0
   -4.1016    1.1657   -2.2099 C   0  0  0  0  0  0  0  0  0  0  0  0
   -2.9286    0.6452   -1.7052 C   0  0  0  0  0  0  0  0  0  0  0  0
   -1.6209    0.6727   -2.1543 C   0  0  0  0  0  0  0  0  0  0  0  0
   -0.6954    0.0402   -1.3970 N   0  0  0  0  0  0  0  0  0  0  0  0
   -1.0324   -0.5868   -0.2582 C   0  0  0  0  0  0  0  0  0  0  0  0
   -0.0295   -1.2554    0.5137 N   0  0  0  0  0  0  0  0  0  0  0  0
    1.3250   -1.3166    0.0855 C   0  0  0  0  0  0  0  0  0  0  0  0
    2.2771   -1.9671    0.8445 C   0  0  0  0  0  0  0  0  0  0  0  0
    3.6024   -2.0699    0.4791 C   0  0  0  0  0  0  0  0  0  0  0  0
    4.0220   -1.4977   -0.7083 C   0  0  0  0  0  0  0  0  0  0  0  0
    5.4035   -1.6023   -1.1180 C   0  0  0  0  0  0  0  0  0  0  0  0
    5.6576   -2.2985   -2.1327 O   0  0  0  0  0  0  0  0  0  0  0  0
    6.4058   -0.9378   -0.3869 N   0  0  0  0  0  0  0  0  0  0  0  0
    6.0814   -0.1455    0.7719 C   0  0  0  0  0  0  0  0  0  0  0  0
    6.5956    1.2464    0.5227 C   0  0  0  0  0  0  0  0  0  0  0  0
    7.6690    1.5544    1.5369 C   0  0  0  0  0  0  0  0  0  0  0  0
    8.8944    1.8914    0.9230 O   0  0  0  0  0  0  0  0  0  0  0  0
    9.3233    0.7827    0.1709 C   0  0  0  0  0  0  0  0  0  0  0  0
    8.3177    0.4090   -0.8815 C   0  0  0  0  0  0  0  0  0  0  0  0
    7.8173   -1.0075   -0.7483 C   0  0  0  0  0  0  0  0  0  0  0  0
    7.2102    1.3662   -0.8087 N   0  0  0  0  0  0  0  0  0  0  0  0
    3.0538   -0.8534   -1.4481 C   0  0  0  0  0  0  0  0  0  0  0  0
    1.7670   -0.7714   -1.0619 N   0  0  0  0  0  0  0  0  0  0  0  0
   -2.2989   -0.6193    0.1881 N   0  0  0  0  0  0  0  0  0  0  0  0
   -3.2417   -0.0065   -0.5323 C   0  0  0  0  0  0  0  0  0  0  0  0
   -4.5536    0.1072   -0.3239 N   0  0  0  0  0  0  0  0  0  0  0  0
   -5.3612   -0.3920    0.7314 C   0  0  0  0  0  0  0  0  0  0  0  0
   -6.2925   -1.5170    0.2572 C   0  0  0  0  0  0  0  0  0  0  0  0
   -5.8924   -2.7370    1.0648 C   0  0  0  0  0  0  0  0  0  0  0  0
   -5.5974   -2.0931    2.4129 C   0  0  0  0  0  0  0  0  0  0  0  0
   -4.7281   -0.9115    1.9387 C   0  0  0  0  0  0  0  0  0  0  0  0
   -5.1198    2.8034   -0.1588 H   0  0  0  0  0  0  0  0  0  0  0  0
   -6.2541    4.1852   -0.3659 H   0  0  0  0  0  0  0  0  0  0  0  0
   -6.5031    3.0271    1.0425 H   0  0  0  0  0  0  0  0  0  0  0  0
   -8.9187    2.1607   -1.8506 H   0  0  0  0  0  0  0  0  0  0  0  0
   -8.9272    2.4102   -0.0231 H   0  0  0  0  0  0  0  0  0  0  0  0
   -8.5026    3.7669   -1.1924 H   0  0  0  0  0  0  0  0  0  0  0  0
   -4.1328    1.7298   -3.1330 H   0  0  0  0  0  0  0  0  0  0  0  0
   -1.3971    1.1854   -3.0676 H   0  0  0  0  0  0  0  0  0  0  0  0
   -0.2724   -1.7149    1.4138 H   0  0  0  0  0  0  0  0  0  0  0  0
    1.9813   -2.4269    1.7801 H   0  0  0  0  0  0  0  0  0  0  0  0
    4.3579   -2.5755    1.0629 H   0  0  0  0  0  0  0  0  0  0  0  0
    6.6153   -0.6347    1.6369 H   0  0  0  0  0  0  0  0  0  0  0  0
    4.9962   -0.1011    0.9577 H   0  0  0  0  0  0  0  0  0  0  0  0
    5.7637    1.9891    0.5383 H   0  0  0  0  0  0  0  0  0  0  0  0
    7.8014    0.7315    2.2715 H   0  0  0  0  0  0  0  0  0  0  0  0
    7.3508    2.4628    2.1166 H   0  0  0  0  0  0  0  0  0  0  0  0
    9.4904   -0.0829    0.8267 H   0  0  0  0  0  0  0  0  0  0  0  0
   10.2786    1.1151   -0.3321 H   0  0  0  0  0  0  0  0  0  0  0  0
    8.7574    0.5219   -1.8913 H   0  0  0  0  0  0  0  0  0  0  0  0
    8.4293   -1.5517   -0.0301 H   0  0  0  0  0  0  0  0  0  0  0  0
    7.8644   -1.5405   -1.7344 H   0  0  0  0  0  0  0  0  0  0  0  0
    7.6714    2.3164   -0.7990 H   0  0  0  0  0  0  0  0  0  0  0  0
    3.4042   -0.4074   -2.3818 H   0  0  0  0  0  0  0  0  0  0  0  0
   -6.0727    0.4351    1.0379 H   0  0  0  0  0  0  0  0  0  0  0  0
   -6.1480   -1.7272   -0.8219 H   0  0  0  0  0  0  0  0  0  0  0  0
   -7.3451   -1.3180    0.4822 H   0  0  0  0  0  0  0  0  0  0  0  0
   -4.9262   -3.1429    0.6948 H   0  0  0  0  0  0  0  0  0  0  0  0
   -6.7051   -3.4704    1.0976 H   0  0  0  0  0  0  0  0  0  0  0  0
   -4.9929   -2.8135    3.0000 H   0  0  0  0  0  0  0  0  0  0  0  0
   -6.4947   -1.7478    2.9257 H   0  0  0  0  0  0  0  0  0  0  0  0
   -4.8061   -0.1726    2.7925 H   0  0  0  0  0  0  0  0  0  0  0  0
   -3.7238   -1.3098    1.9040 H   0  0  0  0  0  0  0  0  0  0  0  0
  1  2  1  0
  2  3  1  0
  2  4  1  0
  4  5  2  0
  4  6  1  0
  6  7  2  0
  7  8  1  0
  8  9  2  0
  9 10  1  0
 10 11  2  0
 11 12  1  0
 12 13  1  0
 13 14  2  0
 14 15  1  0
 15 16  2  0
 16 17  1  0
 17 18  2  0
 17 19  1  0
 19 20  1  0
 20 21  1  0
 21 22  1  0
 22 23  1  0
 23 24  1  0
 24 25  1  0
 25 26  1  0
 25 27  1  0
 16 28  1  0
 28 29  2  0
 11 30  1  0
 30 31  2  0
 31 32  1  0
 32 33  1  0
 33 34  1  0
 34 35  1  0
 35 36  1  0
 36 37  1  0
 32  6  1  0
 37 33  1  0
 31  8  1  0
 29 13  1  0
 26 19  1  0
 27 21  1  0
  1 38  1  0
  1 39  1  0
  1 40  1  0
  3 41  1  0
  3 42  1  0
  3 43  1  0
  7 44  1  0
  9 45  1  0
 12 46  1  0
 14 47  1  0
 15 48  1  0
 20 49  1  0
 20 50  1  0
 21 51  1  0
 22 52  1  0
 22 53  1  0
 24 54  1  0
 24 55  1  0
 25 56  1  0
 26 57  1  0
 26 58  1  0
 27 59  1  0
 28 60  1  0
 33 61  1  0
 34 62  1  0
 34 63  1  0
 35 64  1  0
 35 65  1  0
 36 66  1  0
 36 67  1  0
 37 68  1  0
 37 69  1  0
M  END
$$$$
