@<TRIPOS>MOLECULE
*****
 69 74 0 0 0
SMALL
GASTEIGER

@<TRIPOS>ATOM
      1 C          -6.1737    3.1174   -0.0190 C.3     1  UNL1        0.0032
      2 N          -7.0422    2.3134   -0.8469 N.am    1  UNL1       -0.3024
      3 C          -8.4529    2.6772   -0.9915 C.3     1  UNL1        0.0032
      4 C          -6.5217    1.1780   -1.5072 C.2     1  UNL1        0.2627
      5 O          -7.2595    0.4888   -2.2190 O.2     1  UNL1       -0.2684
      6 C          -5.1185    0.8277   -1.3438 C.ar    1  UNL1        0.1070
      7 C          -4.1016    1.1657   -2.2099 C.ar    1  UNL1       -0.0209
      8 C          -2.9286    0.6452   -1.7052 C.ar    1  UNL1        0.0378
      9 C          -1.6209    0.6727   -2.1543 C.ar    1  UNL1        0.0419
     10 N          -0.6954    0.0402   -1.3970 N.ar    1  UNL1       -0.2219
     11 C          -1.0324   -0.5868   -0.2582 C.ar    1  UNL1        0.2224
     12 N          -0.0295   -1.2554    0.5137 N.pl3   1  UNL1       -0.2685
     13 C           1.3250   -1.3166    0.0855 C.ar    1  UNL1        0.1250
     14 C           2.2771   -1.9671    0.8445 C.ar    1  UNL1       -0.0208
     15 C           3.6024   -2.0699    0.4791 C.ar    1  UNL1       -0.0449
     16 C           4.0220   -1.4977   -0.7083 C.ar    1  UNL1        0.0551
     17 C           5.4035   -1.6023   -1.1180 C.2     1  UNL1        0.2482
     18 O           5.6576   -2.2985   -2.1327 O.2     1  UNL1       -0.2699
     19 N           6.4058   -0.9378   -0.3869 N.am    1  UNL1       -0.2944
     20 C           6.0814   -0.1455    0.7719 C.3     1  UNL1        0.0326
     21 C           6.5956    1.2464    0.5227 C.3     1  UNL1        0.0472
     22 C           7.6690    1.5544    1.5369 C.3     1  UNL1        0.0645
     23 O           8.8944    1.8914    0.9230 O.3     1  UNL1       -0.3766
     24 C           9.3233    0.7827    0.1709 C.3     1  UNL1        0.0645
     25 C           8.3177    0.4090   -0.8815 C.3     1  UNL1        0.0472
     26 C           7.8173   -1.0075   -0.7483 C.3     1  UNL1        0.0326
     27 N           7.2102    1.3662   -0.8087 N.3     1  UNL1       -0.3035
     28 C           3.0538   -0.8534   -1.4481 C.ar    1  UNL1        0.0418
     29 N           1.7670   -0.7714   -1.0619 N.ar    1  UNL1       -0.2394
     30 N          -2.2989   -0.6193    0.1881 N.ar    1  UNL1       -0.1962
     31 C          -3.2417   -0.0065   -0.5323 C.ar    1  UNL1        0.1466
     32 N          -4.5536    0.1072   -0.3239 N.ar    1  UNL1       -0.3180
     33 C          -5.3612   -0.3920    0.7314 C.3     1  UNL1        0.0366
     34 C          -6.2925   -1.5170    0.2572 C.3     1  UNL1       -0.0320
     35 C          -5.8924   -2.7370    1.0648 C.3     1  UNL1       -0.0511
     36 C          -5.5974   -2.0931    2.4129 C.3     1  UNL1       -0.0511
     37 C          -4.7281   -0.9115    1.9387 C.3     1  UNL1       -0.0320
     38 H          -5.1198    2.8034   -0.1588 H       1  UNL1        0.0428
     39 H          -6.2541    4.1852   -0.3659 H       1  UNL1        0.0428
     40 H          -6.5031    3.0271    1.0425 H       1  UNL1        0.0428
     41 H          -8.9187    2.1607   -1.8506 H       1  UNL1        0.0428
     42 H          -8.9272    2.4102   -0.0231 H       1  UNL1        0.0428
     43 H          -8.5026    3.7669   -1.1924 H       1  UNL1        0.0428
     44 H          -4.1328    1.7298   -3.1330 H       1  UNL1        0.0647
     45 H          -1.3971    1.1854   -3.0676 H       1  UNL1        0.0838
     46 H          -0.2724   -1.7149    1.4138 H       1  UNL1        0.1564
     47 H           1.9813   -2.4269    1.7801 H       1  UNL1        0.0652
     48 H           4.3579   -2.5755    1.0629 H       1  UNL1        0.0627
     49 H           6.6153   -0.6347    1.6369 H       1  UNL1        0.0481
     50 H           4.9962   -0.1011    0.9577 H       1  UNL1        0.0481
     51 H           5.7637    1.9891    0.5383 H       1  UNL1        0.0499
     52 H           7.8014    0.7315    2.2715 H       1  UNL1        0.0576
     53 H           7.3508    2.4628    2.1166 H       1  UNL1        0.0576
     54 H           9.4904   -0.0829    0.8267 H       1  UNL1        0.0576
     55 H          10.2786    1.1151   -0.3321 H       1  UNL1        0.0576
     56 H           8.7574    0.5219   -1.8913 H       1  UNL1        0.0499
     57 H           8.4293   -1.5517   -0.0301 H       1  UNL1        0.0481
     58 H           7.8644   -1.5405   -1.7344 H       1  UNL1        0.0481
     59 H           7.6714    2.3164   -0.7990 H       1  UNL1        0.1227
     60 H           3.4042   -0.4074   -2.3818 H       1  UNL1        0.0838
     61 H          -6.0727    0.4351    1.0379 H       1  UNL1        0.0528
     62 H          -6.1480   -1.7272   -0.8219 H       1  UNL1        0.0285
     63 H          -7.3451   -1.3180    0.4822 H       1  UNL1        0.0285
     64 H          -4.9262   -3.1429    0.6948 H       1  UNL1        0.0266
     65 H          -6.7051   -3.4704    1.0976 H       1  UNL1        0.0266
     66 H          -4.9929   -2.8135    3.0000 H       1  UNL1        0.0266
     67 H          -6.4947   -1.7478    2.9257 H       1  UNL1        0.0266
     68 H          -4.8061   -0.1726    2.7925 H       1  UNL1        0.0285
     69 H          -3.7238   -1.3098    1.9040 H       1  UNL1        0.0285
@<TRIPOS>BOND
     1     1     2    1
     2     2     3    1
     3     2     4   am
     4     4     5    2
     5     4     6    1
     6     6     7   ar
     7     7     8   ar
     8     8     9   ar
     9     9    10   ar
    10    10    11   ar
    11    11    12    1
    12    12    13    1
    13    13    14   ar
    14    14    15   ar
    15    15    16   ar
    16    16    17    1
    17    17    18    2
    18    17    19   am
    19    19    20    1
    20    20    21    1
    21    21    22    1
    22    22    23    1
    23    23    24    1
    24    24    25    1
    25    25    26    1
    26    25    27    1
    27    16    28   ar
    28    28    29   ar
    29    11    30   ar
    30    30    31   ar
    31    31    32   ar
    32    32    33    1
    33    33    34    1
    34    34    35    1
    35    35    36    1
    36    36    37    1
    37    32     6   ar
    38    37    33    1
    39    31     8   ar
    40    29    13   ar
    41    26    19    1
    42    27    21    1
    43     1    38    1
    44     1    39    1
    45     1    40    1
    46     3    41    1
    47     3    42    1
    48     3    43    1
    49     7    44    1
    50     9    45    1
    51    12    46    1
    52    14    47    1
    53    15    48    1
    54    20    49    1
    55    20    50    1
    56    21    51    1
    57    22    52    1
    58    22    53    1
    59    24    54    1
    60    24    55    1
    61    25    56    1
    62    26    57    1
    63    26    58    1
    64    27    59    1
    65    28    60    1
    66    33    61    1
    67    34    62    1
    68    34    63    1
    69    35    64    1
    70    35    65    1
    71    36    66    1
    72    36    67    1
    73    37    68    1
    74    37    69    1
