@<TRIPOS>MOLECULE
*****
 41 43 0 0 0
SMALL
GASTEIGER

@<TRIPOS>ATOM
      1 C          -5.3155    2.3992    0.7391 C.3     1  UNL1        0.0196
      2 N          -4.3734    1.2761    0.6437 N.ar    1  UNL1       -0.2622
      3 C          -3.1020    1.5448    0.2968 C.ar    1  UNL1        0.2822
      4 O          -2.6967    2.7097    0.0543 O.2     1  UNL1       -0.2652
      5 C          -2.2055    0.5214    0.2002 C.ar    1  UNL1        0.1520
      6 C          -2.6464   -0.7655    0.4664 C.ar    1  UNL1        0.1690
      7 N          -1.5743   -1.5584    0.2985 N.ar    1  UNL1       -0.2036
      8 C          -0.5213   -0.7816   -0.0567 C.ar    1  UNL1        0.1714
      9 S           1.1493   -1.3167   -0.4037 S.3     1  UNL1       -0.0873
     10 C           2.1139   -1.3030    1.1408 C.3     1  UNL1        0.0051
     11 C           3.5428   -1.7586    0.8518 C.3     1  UNL1       -0.0182
     12 C           4.1992   -0.8564   -0.1290 C.ar    1  UNL1       -0.0465
     13 C           4.0861   -1.1501   -1.4718 C.ar    1  UNL1       -0.0575
     14 C           4.6805   -0.3390   -2.4234 C.ar    1  UNL1       -0.0475
     15 C           5.3932    0.7748   -2.0226 C.ar    1  UNL1        0.0179
     16 BR          6.1820    1.8416   -3.3880 Br      1  UNL1       -0.0503
     17 C           5.5161    1.0841   -0.6719 C.ar    1  UNL1       -0.0475
     18 C           4.9123    0.2571    0.2627 C.ar    1  UNL1       -0.0575
     19 N          -0.8966    0.5077   -0.1215 N.ar    1  UNL1       -0.3163
     20 C          -0.0737    1.6545   -0.4651 C.3     1  UNL1        0.0145
     21 N          -3.9186   -1.0218    0.8121 N.ar    1  UNL1       -0.2795
     22 C          -4.4186   -2.3462    1.0972 C.3     1  UNL1        0.0181
     23 C          -4.7576    0.0151    0.8928 C.ar    1  UNL1        0.3331
     24 O          -5.9530   -0.1768    1.2116 O.2     1  UNL1       -0.2462
     25 H          -6.3262    1.9923    0.9508 H       1  UNL1        0.0458
     26 H          -5.0559    3.0655    1.5821 H       1  UNL1        0.0458
     27 H          -5.3150    2.9509   -0.2272 H       1  UNL1        0.0458
     28 H           1.6701   -2.0356    1.8398 H       1  UNL1        0.0384
     29 H           2.1789   -0.3026    1.5891 H       1  UNL1        0.0384
     30 H           3.5192   -2.7740    0.4191 H       1  UNL1        0.0321
     31 H           4.1432   -1.7794    1.7798 H       1  UNL1        0.0321
     32 H           3.5300   -2.0214   -1.8065 H       1  UNL1        0.0621
     33 H           4.5603   -0.6152   -3.4589 H       1  UNL1        0.0629
     34 H           6.0814    1.9628   -0.4032 H       1  UNL1        0.0629
     35 H           4.9934    0.4759    1.3136 H       1  UNL1        0.0621
     36 H          -0.1648    1.9427   -1.5291 H       1  UNL1        0.0456
     37 H           0.9946    1.4024   -0.2857 H       1  UNL1        0.0456
     38 H          -0.3589    2.5366    0.1388 H       1  UNL1        0.0456
     39 H          -5.1870   -2.2423    1.8979 H       1  UNL1        0.0458
     40 H          -3.6237   -3.0713    1.3506 H       1  UNL1        0.0458
     41 H          -4.9619   -2.6995    0.1930 H       1  UNL1        0.0458
@<TRIPOS>BOND
     1     1     2    1
     2     2     3   ar
     3     3     4    2
     4     3     5   ar
     5     5     6   ar
     6     6     7   ar
     7     7     8   ar
     8     8     9    1
     9     9    10    1
    10    10    11    1
    11    11    12    1
    12    12    13   ar
    13    13    14   ar
    14    14    15   ar
    15    15    16    1
    16    15    17   ar
    17    17    18   ar
    18     8    19   ar
    19    19    20    1
    20     6    21   ar
    21    21    22    1
    22    21    23   ar
    23    23    24    2
    24    23     2   ar
    25    19     5   ar
    26    18    12   ar
    27     1    25    1
    28     1    26    1
    29     1    27    1
    30    10    28    1
    31    10    29    1
    32    11    30    1
    33    11    31    1
    34    13    32    1
    35    14    33    1
    36    17    34    1
    37    18    35    1
    38    20    36    1
    39    20    37    1
    40    20    38    1
    41    22    39    1
    42    22    40    1
    43    22    41    1
