
     RDKit          3D

 41 43  0  0  0  0  0  0  0  0999 V2000
   -5.3155    2.3992    0.7391 C   0  0  0  0  0  0  0  0  0  0  0  0
   -4.3734    1.2761    0.6437 N   0  0  0  0  0  0  0  0  0  0  0  0
   -3.1020    1.5448    0.2968 C   0  0  0  0  0  0  0  0  0  0  0  0
   -2.6967    2.7097    0.0543 O   0  0  0  0  0  0  0  0  0  0  0  0
   -2.2055    0.5214    0.2002 C   0  0  0  0  0  0  0  0  0  0  0  0
   -2.6464   -0.7655    0.4664 C   0  0  0  0  0  0  0  0  0  0  0  0
   -1.5743   -1.5584    0.2985 N   0  0  0  0  0  0  0  0  0  0  0  0
   -0.5213   -0.7816   -0.0567 C   0  0  0  0  0  0  0  0  0  0  0  0
    1.1493   -1.3167   -0.4037 S   0  0  0  0  0  0  0  0  0  0  0  0
    2.1139   -1.3030    1.1408 C   0  0  0  0  0  0  0  0  0  0  0  0
    3.5428   -1.7586    0.8518 C   0  0  0  0  0  0  0  0  0  0  0  0
    4.1992   -0.8564   -0.1290 C   0  0  0  0  0  0  0  0  0  0  0  0
    4.0861   -1.1501   -1.4718 C   0  0  0  0  0  0  0  0  0  0  0  0
    4.6805   -0.3390   -2.4234 C   0  0  0  0  0  0  0  0  0  0  0  0
    5.3932    0.7748   -2.0226 C   0  0  0  0  0  0  0  0  0  0  0  0
    6.1820    1.8416   -3.3880 Br  0  0  0  0  0  0  0  0  0  0  0  0
    5.5161    1.0841   -0.6719 C   0  0  0  0  0  0  0  0  0  0  0  0
    4.9123    0.2571    0.2627 C   0  0  0  0  0  0  0  0  0  0  0  0
   -0.8966    0.5077   -0.1215 N   0  0  0  0  0  0  0  0  0  0  0  0
   -0.0737    1.6545   -0.4651 C   0  0  0  0  0  0  0  0  0  0  0  0
   -3.9186   -1.0218    0.8121 N   0  0  0  0  0  0  0  0  0  0  0  0
   -4.4186   -2.3462    1.0972 C   0  0  0  0  0  0  0  0  0  0  0  0
   -4.7576    0.0151    0.8928 C   0  0  0  0  0  0  0  0  0  0  0  0
   -5.9530   -0.1768    1.2116 O   0  0  0  0  0  0  0  0  0  0  0  0
   -6.3262    1.9923    0.9508 H   0  0  0  0  0  0  0  0  0  0  0  0
   -5.0559    3.0655    1.5821 H   0  0  0  0  0  0  0  0  0  0  0  0
   -5.3150    2.9509   -0.2272 H   0  0  0  0  0  0  0  0  0  0  0  0
    1.6701   -2.0356    1.8398 H   0  0  0  0  0  0  0  0  0  0  0  0
    2.1789   -0.3026    1.5891 H   0  0  0  0  0  0  0  0  0  0  0  0
    3.5192   -2.7740    0.4191 H   0  0  0  0  0  0  0  0  0  0  0  0
    4.1432   -1.7794    1.7798 H   0  0  0  0  0  0  0  0  0  0  0  0
    3.5300   -2.0214   -1.8065 H   0  0  0  0  0  0  0  0  0  0  0  0
    4.5603   -0.6152   -3.4589 H   0  0  0  0  0  0  0  0  0  0  0  0
    6.0814    1.9628   -0.4032 H   0  0  0  0  0  0  0  0  0  0  0  0
    4.9934    0.4759    1.3136 H   0  0  0  0  0  0  0  0  0  0  0  0
   -0.1648    1.9427   -1.5291 H   0  0  0  0  0  0  0  0  0  0  0  0
    0.9946    1.4024   -0.2857 H   0  0  0  0  0  0  0  0  0  0  0  0
   -0.3589    2.5366    0.1388 H   0  0  0  0  0  0  0  0  0  0  0  0
   -5.1870   -2.2423    1.8979 H   0  0  0  0  0  0  0  0  0  0  0  0
   -3.6237   -3.0713    1.3506 H   0  0  0  0  0  0  0  0  0  0  0  0
   -4.9619   -2.6995    0.1930 H   0  0  0  0  0  0  0  0  0  0  0  0
  1  2  1  0
  2  3  1  0
  3  4  2  0
  3  5  1  0
  5  6  2  0
  6  7  1  0
  7  8  2  0
  8  9  1  0
  9 10  1  0
 10 11  1  0
 11 12  1  0
 12 13  2  0
 13 14  1  0
 14 15  2  0
 15 16  1  0
 15 17  1  0
 17 18  2  0
  8 19  1  0
 19 20  1  0
  6 21  1  0
 21 22  1  0
 21 23  1  0
 23 24  2  0
 23  2  1  0
 19  5  1  0
 18 12  1  0
  1 25  1  0
  1 26  1  0
  1 27  1  0
 10 28  1  0
 10 29  1  0
 11 30  1  0
 11 31  1  0
 13 32  1  0
 14 33  1  0
 17 34  1  0
 18 35  1  0
 20 36  1  0
 20 37  1  0
 20 38  1  0
 22 39  1  0
 22 40  1  0
 22 41  1  0
M  END
$$$$
