@<TRIPOS>MOLECULE
*****
 54 57 0 0 0
SMALL
GASTEIGER

@<TRIPOS>ATOM
      1 C           0.3946    2.2786   -3.4134 C.3     1  UNL1        0.0817
      2 O           0.4925    1.3586   -2.3407 O.3     1  UNL1       -0.4676
      3 C           1.6886    1.1676   -1.6614 C.2     1  UNL1        0.3140
      4 O           2.6645    1.8555   -2.0560 O.2     1  UNL1       -0.2504
      5 C           1.8034    0.1905   -0.5179 C.3     1  UNL1        0.0980
      6 C           3.2232    0.2612   -0.0467 C.3     1  UNL1        0.0258
      7 C           3.6250   -1.1126    0.4566 C.3     1  UNL1       -0.0351
      8 C           2.8880   -1.1667    1.7769 C.3     1  UNL1       -0.0358
      9 C           2.6522    0.2685    2.1108 C.3     1  UNL1        0.0128
     10 C           1.1794    0.5552    1.9098 C.3     1  UNL1       -0.0100
     11 C           0.7553    0.4680    0.4871 C.3     1  UNL1        0.0757
     12 O          -0.2451   -0.5223    0.3646 O.3     1  UNL1       -0.3632
     13 C          -1.4736    0.0035   -0.0083 C.3     1  UNL1        0.1090
     14 C          -1.9901   -0.5462   -1.2862 C.ar    1  UNL1       -0.0145
     15 C          -1.9138   -1.8957   -1.5521 C.ar    1  UNL1       -0.0558
     16 C          -2.4075   -2.3800   -2.7516 C.ar    1  UNL1       -0.0614
     17 C          -2.9744   -1.5398   -3.6869 C.ar    1  UNL1       -0.0617
     18 C          -3.0611   -0.1865   -3.4421 C.ar    1  UNL1       -0.0614
     19 C          -2.5667    0.2823   -2.2458 C.ar    1  UNL1       -0.0558
     20 C          -2.4244   -0.2296    1.1096 C.ar    1  UNL1       -0.0145
     21 C          -2.4740   -1.4408    1.7634 C.ar    1  UNL1       -0.0558
     22 C          -3.3435   -1.6745    2.7929 C.ar    1  UNL1       -0.0614
     23 C          -4.1998   -0.6739    3.1955 C.ar    1  UNL1       -0.0617
     24 C          -4.1815    0.5554    2.5656 C.ar    1  UNL1       -0.0614
     25 C          -3.3042    0.7553    1.5446 C.ar    1  UNL1       -0.0558
     26 N           3.3516    1.0670    1.1244 N.3     1  UNL1       -0.2985
     27 C           4.6912    1.3832    1.4846 C.3     1  UNL1       -0.0122
     28 H          -0.3779    1.8992   -4.1140 H       1  UNL1        0.0661
     29 H           0.1596    3.3074   -3.0488 H       1  UNL1        0.0661
     30 H           1.3462    2.3540   -3.9919 H       1  UNL1        0.0661
     31 H           1.6060   -0.8130   -0.9966 H       1  UNL1        0.0455
     32 H           3.9067    0.5947   -0.8577 H       1  UNL1        0.0471
     33 H           4.7358   -1.1792    0.6156 H       1  UNL1        0.0281
     34 H           3.2682   -1.8795   -0.2537 H       1  UNL1        0.0281
     35 H           3.4608   -1.7144    2.5514 H       1  UNL1        0.0281
     36 H           1.9489   -1.7448    1.5957 H       1  UNL1        0.0281
     37 H           2.9755    0.4827    3.1334 H       1  UNL1        0.0463
     38 H           1.0219    1.5912    2.3320 H       1  UNL1        0.0305
     39 H           0.6341   -0.1370    2.5836 H       1  UNL1        0.0305
     40 H           0.2434    1.4259    0.2322 H       1  UNL1        0.0605
     41 H          -1.4245    1.1113   -0.1410 H       1  UNL1        0.0697
     42 H          -1.4866   -2.6037   -0.8738 H       1  UNL1        0.0621
     43 H          -2.3538   -3.4350   -2.9721 H       1  UNL1        0.0618
     44 H          -3.3704   -1.8834   -4.6349 H       1  UNL1        0.0618
     45 H          -3.5018    0.5144   -4.1541 H       1  UNL1        0.0618
     46 H          -2.6137    1.3308   -2.0134 H       1  UNL1        0.0621
     47 H          -1.8024   -2.2624    1.4684 H       1  UNL1        0.0621
     48 H          -3.3791   -2.6443    3.3120 H       1  UNL1        0.0618
     49 H          -4.9045   -0.8291    4.0128 H       1  UNL1        0.0618
     50 H          -4.8685    1.3046    2.9150 H       1  UNL1        0.0618
     51 H          -3.2682    1.7042    1.0354 H       1  UNL1        0.0621
     52 H           4.8745    2.4582    1.2811 H       1  UNL1        0.0391
     53 H           4.9500    1.1362    2.5332 H       1  UNL1        0.0391
     54 H           5.3700    0.8291    0.7730 H       1  UNL1        0.0391
@<TRIPOS>BOND
     1     1     2    1
     2     2     3    1
     3     3     4    2
     4     3     5    1
     5     5     6    1
     6     6     7    1
     7     7     8    1
     8     8     9    1
     9     9    10    1
    10    10    11    1
    11    11    12    1
    12    12    13    1
    13    13    14    1
    14    14    15   ar
    15    15    16   ar
    16    16    17   ar
    17    17    18   ar
    18    18    19   ar
    19    13    20    1
    20    20    21   ar
    21    21    22   ar
    22    22    23   ar
    23    23    24   ar
    24    24    25   ar
    25     9    26    1
    26    26    27    1
    27    11     5    1
    28    19    14   ar
    29    25    20   ar
    30    26     6    1
    31     1    28    1
    32     1    29    1
    33     1    30    1
    34     5    31    1
    35     6    32    1
    36     7    33    1
    37     7    34    1
    38     8    35    1
    39     8    36    1
    40     9    37    1
    41    10    38    1
    42    10    39    1
    43    11    40    1
    44    13    41    1
    45    15    42    1
    46    16    43    1
    47    17    44    1
    48    18    45    1
    49    19    46    1
    50    21    47    1
    51    22    48    1
    52    23    49    1
    53    24    50    1
    54    25    51    1
    55    27    52    1
    56    27    53    1
    57    27    54    1
