@<TRIPOS>MOLECULE
*****
 32 33 0 0 0
SMALL
GASTEIGER

@<TRIPOS>ATOM
      1 C          -0.3290    2.4034    0.4991 C.3     1  UNL1       -0.0146
      2 N          -0.6732    1.3667   -0.4137 N.3     1  UNL1       -0.3039
      3 C          -0.2256    0.0322   -0.0012 C.3     1  UNL1        0.1045
      4 C          -0.8431   -0.1996    1.3214 C.3     1  UNL1       -0.0235
      5 C          -2.3407   -0.2905    1.2921 C.3     1  UNL1       -0.0503
      6 C          -2.9205   -1.1615    0.2287 C.3     1  UNL1       -0.0462
      7 C          -2.3901   -0.7933   -1.1449 C.3     1  UNL1        0.0080
      8 C          -0.9085   -0.8593   -1.0207 C.2     1  UNL1        0.1577
      9 O          -0.2924   -1.6437   -1.7590 O.2     1  UNL1       -0.2951
     10 C           1.1877   -0.1884   -0.1705 C.ar    1  UNL1       -0.0019
     11 C           1.9411    0.8761   -0.6913 C.ar    1  UNL1       -0.0550
     12 C           3.3042    0.7744   -0.8930 C.ar    1  UNL1       -0.0613
     13 C           3.9869   -0.3876   -0.5884 C.ar    1  UNL1       -0.0604
     14 C           3.2760   -1.4580   -0.0733 C.ar    1  UNL1       -0.0431
     15 C           1.9196   -1.3115    0.1107 C.ar    1  UNL1        0.0463
     16 CL          1.0684   -2.6751    0.7426 Cl      1  UNL1       -0.0832
     17 H           0.5563    2.1653    1.1281 H       1  UNL1        0.0388
     18 H          -1.1915    2.7303    1.1369 H       1  UNL1        0.0388
     19 H          -0.0743    3.3129   -0.0855 H       1  UNL1        0.0388
     20 H          -0.3967    1.6055   -1.3719 H       1  UNL1        0.1228
     21 H          -0.4880   -1.0661    1.8677 H       1  UNL1        0.0291
     22 H          -0.6978    0.7659    1.8980 H       1  UNL1        0.0291
     23 H          -2.8373    0.7173    1.2078 H       1  UNL1        0.0266
     24 H          -2.6687   -0.6719    2.2811 H       1  UNL1        0.0266
     25 H          -4.0107   -0.9337    0.2045 H       1  UNL1        0.0269
     26 H          -2.8044   -2.2231    0.4408 H       1  UNL1        0.0269
     27 H          -2.7558   -1.5750   -1.8187 H       1  UNL1        0.0342
     28 H          -2.7716    0.1714   -1.4891 H       1  UNL1        0.0342
     29 H           1.5906    1.8553   -0.9918 H       1  UNL1        0.0621
     30 H           3.9443    1.5452   -1.2865 H       1  UNL1        0.0618
     31 H           5.0523   -0.5076   -0.7310 H       1  UNL1        0.0618
     32 H           3.7928   -2.3760    0.1712 H       1  UNL1        0.0632
@<TRIPOS>BOND
     1     1     2    1
     2     2     3    1
     3     3     4    1
     4     4     5    1
     5     5     6    1
     6     6     7    1
     7     7     8    1
     8     8     9    2
     9     3    10    1
    10    10    11   ar
    11    11    12   ar
    12    12    13   ar
    13    13    14   ar
    14    14    15   ar
    15    15    16    1
    16     8     3    1
    17    15    10   ar
    18     1    17    1
    19     1    18    1
    20     1    19    1
    21     2    20    1
    22     4    21    1
    23     4    22    1
    24     5    23    1
    25     5    24    1
    26     6    25    1
    27     6    26    1
    28     7    27    1
    29     7    28    1
    30    11    29    1
    31    12    30    1
    32    13    31    1
    33    14    32    1
