
     RDKit          3D

 58 60  0  0  0  0  0  0  0  0999 V2000
    2.3516   -2.7404    1.8729 C   0  0  0  0  0  0  0  0  0  0  0  0
    2.6671   -2.4470    0.4337 C   0  0  0  0  0  0  0  0  0  0  0  0
    3.6177   -3.5832   -0.0084 C   0  0  0  0  0  0  0  0  0  0  0  0
    1.4854   -2.5380   -0.4352 C   0  0  0  0  0  0  0  0  0  0  0  0
    0.3272   -1.6533   -0.2474 C   0  0  0  0  0  0  0  0  0  0  0  0
   -0.4094   -1.6968    1.0540 C   0  0  0  0  0  0  0  0  0  0  0  0
   -1.5584   -0.7194    0.8995 C   0  0  0  0  0  0  0  0  0  0  0  0
   -2.8276   -0.9605    0.4370 C   0  0  0  0  0  0  0  0  0  0  0  0
   -3.5145    0.1756    0.4667 N   0  0  0  0  0  0  0  0  0  0  0  0
   -2.6985    1.1296    0.9405 C   0  0  0  0  0  0  0  0  0  0  0  0
   -1.4989    0.5701    1.2036 N   0  0  0  0  0  0  0  0  0  0  0  0
   -3.1694    2.5276    1.0984 C   0  0  0  0  0  0  0  0  0  0  0  0
   -3.7035    2.7324    2.3888 O   0  0  0  0  0  0  0  0  0  0  0  0
   -4.1487    2.9550    0.0514 C   0  0  0  0  0  0  0  0  0  0  0  0
   -5.0755    3.8652    0.6070 O   0  0  0  0  0  0  0  0  0  0  0  0
   -4.8362    1.8367   -0.6570 C   0  0  0  0  0  0  0  0  0  0  0  0
   -4.3190    1.5717   -1.9184 O   0  0  0  0  0  0  0  0  0  0  0  0
   -4.8665    0.5588    0.1157 C   0  0  0  0  0  0  0  0  0  0  0  0
   -5.5638   -0.4965   -0.6937 C   0  0  0  0  0  0  0  0  0  0  0  0
   -4.9010   -0.7566   -1.8801 O   0  0  0  0  0  0  0  0  0  0  0  0
    3.3731   -1.1421    0.3515 C   0  0  0  0  0  0  0  0  0  0  0  0
    3.5987   -0.4993    1.4053 O   0  0  0  0  0  0  0  0  0  0  0  0
    3.8165   -0.5660   -0.8645 N   0  0  0  0  0  0  0  0  0  0  0  0
    4.4898    0.6778   -0.9460 C   0  0  0  0  0  0  0  0  0  0  0  0
    5.8646    0.7090   -0.8668 C   0  0  0  0  0  0  0  0  0  0  0  0
    6.5413    1.9323   -0.9461 C   0  0  0  0  0  0  0  0  0  0  0  0
    5.8677    3.1240   -1.1031 C   0  0  0  0  0  0  0  0  0  0  0  0
    4.4928    3.0761   -1.1807 C   0  0  0  0  0  0  0  0  0  0  0  0
    3.8069    1.8622   -1.1028 C   0  0  0  0  0  0  0  0  0  0  0  0
    1.3902   -3.2441    1.9368 H   0  0  0  0  0  0  0  0  0  0  0  0
    3.1736   -3.3830    2.3322 H   0  0  0  0  0  0  0  0  0  0  0  0
    2.3413   -1.7963    2.4561 H   0  0  0  0  0  0  0  0  0  0  0  0
    4.4889   -3.4983    0.6701 H   0  0  0  0  0  0  0  0  0  0  0  0
    3.9482   -3.3524   -1.0489 H   0  0  0  0  0  0  0  0  0  0  0  0
    3.0659   -4.5188    0.0673 H   0  0  0  0  0  0  0  0  0  0  0  0
    1.8427   -2.5382   -1.5233 H   0  0  0  0  0  0  0  0  0  0  0  0
    1.0705   -3.6060   -0.3605 H   0  0  0  0  0  0  0  0  0  0  0  0
   -0.4478   -1.9811   -1.0208 H   0  0  0  0  0  0  0  0  0  0  0  0
    0.5550   -0.5782   -0.4964 H   0  0  0  0  0  0  0  0  0  0  0  0
   -0.8282   -2.7027    1.2538 H   0  0  0  0  0  0  0  0  0  0  0  0
    0.1688   -1.2777    1.9104 H   0  0  0  0  0  0  0  0  0  0  0  0
   -3.1985   -1.9307    0.1031 H   0  0  0  0  0  0  0  0  0  0  0  0
   -2.2806    3.1885    1.0415 H   0  0  0  0  0  0  0  0  0  0  0  0
   -3.3288    2.1061    3.0474 H   0  0  0  0  0  0  0  0  0  0  0  0
   -3.6133    3.5597   -0.7379 H   0  0  0  0  0  0  0  0  0  0  0  0
   -4.6630    4.4518    1.2618 H   0  0  0  0  0  0  0  0  0  0  0  0
   -5.9071    2.1458   -0.8229 H   0  0  0  0  0  0  0  0  0  0  0  0
   -5.0169    1.4928   -2.6110 H   0  0  0  0  0  0  0  0  0  0  0  0
   -5.4161    0.7218    1.0556 H   0  0  0  0  0  0  0  0  0  0  0  0
   -5.5981   -1.4317   -0.1050 H   0  0  0  0  0  0  0  0  0  0  0  0
   -6.6061   -0.1660   -0.8447 H   0  0  0  0  0  0  0  0  0  0  0  0
   -5.0811   -1.7041   -2.1430 H   0  0  0  0  0  0  0  0  0  0  0  0
    3.6228   -1.1110   -1.7377 H   0  0  0  0  0  0  0  0  0  0  0  0
    6.4346   -0.1933   -0.7443 H   0  0  0  0  0  0  0  0  0  0  0  0
    7.6221    1.9882   -0.8869 H   0  0  0  0  0  0  0  0  0  0  0  0
    6.4055    4.0779   -1.1644 H   0  0  0  0  0  0  0  0  0  0  0  0
    3.9166    3.9830   -1.3039 H   0  0  0  0  0  0  0  0  0  0  0  0
    2.7295    1.7932   -1.1605 H   0  0  0  0  0  0  0  0  0  0  0  0
  1  2  1  0
  2  3  1  0
  2  4  1  0
  4  5  1  0
  5  6  1  0
  6  7  1  0
  7  8  2  0
  8  9  1  0
  9 10  1  0
 10 11  2  0
 10 12  1  0
 12 13  1  0
 12 14  1  0
 14 15  1  0
 14 16  1  0
 16 17  1  0
 16 18  1  0
 18 19  1  0
 19 20  1  0
  2 21  1  0
 21 22  2  0
 21 23  1  0
 23 24  1  0
 24 25  2  0
 25 26  1  0
 26 27  2  0
 27 28  1  0
 28 29  2  0
 11  7  1  0
 29 24  1  0
 18  9  1  0
  1 30  1  0
  1 31  1  0
  1 32  1  0
  3 33  1  0
  3 34  1  0
  3 35  1  0
  4 36  1  0
  4 37  1  0
  5 38  1  0
  5 39  1  0
  6 40  1  0
  6 41  1  0
  8 42  1  0
 12 43  1  0
 13 44  1  0
 14 45  1  0
 15 46  1  0
 16 47  1  0
 17 48  1  0
 18 49  1  0
 19 50  1  0
 19 51  1  0
 20 52  1  0
 23 53  1  0
 25 54  1  0
 26 55  1  0
 27 56  1  0
 28 57  1  0
 29 58  1  0
M  END
$$$$
