@<TRIPOS>MOLECULE
*****
 58 60 0 0 0
SMALL
GASTEIGER

@<TRIPOS>ATOM
      1 C           2.3516   -2.7404    1.8729 C.3     1  UNL1       -0.0515
      2 C           2.6671   -2.4470    0.4337 C.3     1  UNL1        0.0417
      3 C           3.6177   -3.5832   -0.0084 C.3     1  UNL1       -0.0515
      4 C           1.4854   -2.5380   -0.4352 C.3     1  UNL1       -0.0392
      5 C           0.3272   -1.6533   -0.2474 C.3     1  UNL1       -0.0467
      6 C          -0.4094   -1.6968    1.0540 C.3     1  UNL1       -0.0089
      7 C          -1.5584   -0.7194    0.8995 C.ar    1  UNL1        0.0595
      8 C          -2.8276   -0.9605    0.4370 C.ar    1  UNL1        0.0280
      9 N          -3.5145    0.1756    0.4667 N.ar    1  UNL1       -0.3241
     10 C          -2.6985    1.1296    0.9405 C.ar    1  UNL1        0.1417
     11 N          -1.4989    0.5701    1.2036 N.ar    1  UNL1       -0.2345
     12 C          -3.1694    2.5276    1.0984 C.3     1  UNL1        0.1409
     13 O          -3.7035    2.7324    2.3888 O.3     1  UNL1       -0.3814
     14 C          -4.1487    2.9550    0.0514 C.3     1  UNL1        0.1158
     15 O          -5.0755    3.8652    0.6070 O.3     1  UNL1       -0.3861
     16 C          -4.8362    1.8367   -0.6570 C.3     1  UNL1        0.1067
     17 O          -4.3190    1.5717   -1.9184 O.3     1  UNL1       -0.3870
     18 C          -4.8665    0.5588    0.1157 C.3     1  UNL1        0.0871
     19 C          -5.5638   -0.4965   -0.6937 C.3     1  UNL1        0.0675
     20 O          -4.9010   -0.7566   -1.8801 O.3     1  UNL1       -0.3929
     21 C           3.3731   -1.1421    0.3515 C.2     1  UNL1        0.2228
     22 O           3.5987   -0.4993    1.4053 O.2     1  UNL1       -0.2749
     23 N           3.8165   -0.5660   -0.8645 N.am    1  UNL1       -0.2851
     24 C           4.4898    0.6778   -0.9460 C.ar    1  UNL1        0.0334
     25 C           5.8646    0.7090   -0.8668 C.ar    1  UNL1       -0.0405
     26 C           6.5413    1.9323   -0.9461 C.ar    1  UNL1       -0.0600
     27 C           5.8677    3.1240   -1.1031 C.ar    1  UNL1       -0.0616
     28 C           4.4928    3.0761   -1.1807 C.ar    1  UNL1       -0.0600
     29 C           3.8069    1.8622   -1.1028 C.ar    1  UNL1       -0.0405
     30 H           1.3902   -3.2441    1.9368 H       1  UNL1        0.0240
     31 H           3.1736   -3.3830    2.3322 H       1  UNL1        0.0240
     32 H           2.3413   -1.7963    2.4561 H       1  UNL1        0.0240
     33 H           4.4889   -3.4983    0.6701 H       1  UNL1        0.0240
     34 H           3.9482   -3.3524   -1.0489 H       1  UNL1        0.0240
     35 H           3.0659   -4.5188    0.0673 H       1  UNL1        0.0240
     36 H           1.8427   -2.5382   -1.5233 H       1  UNL1        0.0275
     37 H           1.0705   -3.6060   -0.3605 H       1  UNL1        0.0275
     38 H          -0.4478   -1.9811   -1.0208 H       1  UNL1        0.0269
     39 H           0.5550   -0.5782   -0.4964 H       1  UNL1        0.0269
     40 H          -0.8282   -2.7027    1.2538 H       1  UNL1        0.0329
     41 H           0.1688   -1.2777    1.9104 H       1  UNL1        0.0329
     42 H          -3.1985   -1.9307    0.1031 H       1  UNL1        0.0828
     43 H          -2.2806    3.1885    1.0415 H       1  UNL1        0.0702
     44 H          -3.3288    2.1061    3.0474 H       1  UNL1        0.2105
     45 H          -3.6133    3.5597   -0.7379 H       1  UNL1        0.0650
     46 H          -4.6630    4.4518    1.2618 H       1  UNL1        0.2100
     47 H          -5.9071    2.1458   -0.8229 H       1  UNL1        0.0642
     48 H          -5.0169    1.4928   -2.6110 H       1  UNL1        0.2100
     49 H          -5.4161    0.7218    1.0556 H       1  UNL1        0.0577
     50 H          -5.5981   -1.4317   -0.1050 H       1  UNL1        0.0579
     51 H          -6.6061   -0.1660   -0.8447 H       1  UNL1        0.0579
     52 H          -5.0811   -1.7041   -2.1430 H       1  UNL1        0.2095
     53 H           3.6228   -1.1110   -1.7377 H       1  UNL1        0.1548
     54 H           6.4346   -0.1933   -0.7443 H       1  UNL1        0.0636
     55 H           7.6221    1.9882   -0.8869 H       1  UNL1        0.0618
     56 H           6.4055    4.0779   -1.1644 H       1  UNL1        0.0618
     57 H           3.9166    3.9830   -1.3039 H       1  UNL1        0.0618
     58 H           2.7295    1.7932   -1.1605 H       1  UNL1        0.0636
@<TRIPOS>BOND
     1     1     2    1
     2     2     3    1
     3     2     4    1
     4     4     5    1
     5     5     6    1
     6     6     7    1
     7     7     8   ar
     8     8     9   ar
     9     9    10   ar
    10    10    11   ar
    11    10    12    1
    12    12    13    1
    13    12    14    1
    14    14    15    1
    15    14    16    1
    16    16    17    1
    17    16    18    1
    18    18    19    1
    19    19    20    1
    20     2    21    1
    21    21    22    2
    22    21    23   am
    23    23    24    1
    24    24    25   ar
    25    25    26   ar
    26    26    27   ar
    27    27    28   ar
    28    28    29   ar
    29    11     7   ar
    30    29    24   ar
    31    18     9    1
    32     1    30    1
    33     1    31    1
    34     1    32    1
    35     3    33    1
    36     3    34    1
    37     3    35    1
    38     4    36    1
    39     4    37    1
    40     5    38    1
    41     5    39    1
    42     6    40    1
    43     6    41    1
    44     8    42    1
    45    12    43    1
    46    13    44    1
    47    14    45    1
    48    15    46    1
    49    16    47    1
    50    17    48    1
    51    18    49    1
    52    19    50    1
    53    19    51    1
    54    20    52    1
    55    23    53    1
    56    25    54    1
    57    26    55    1
    58    27    56    1
    59    28    57    1
    60    29    58    1
