
     RDKit          3D

 18 17  0  0  0  0  0  0  0  0999 V2000
    2.6466   -0.0608   -0.0635 N   0  0  0  0  0  4  0  0  0  0  0  0
    1.3397   -0.5921   -0.3422 C   0  0  0  0  0  0  0  0  0  0  0  0
    0.3111    0.3724    0.2619 C   0  0  0  0  0  0  0  0  0  0  0  0
   -1.0505   -0.2028   -0.0413 C   0  0  0  0  0  0  0  0  0  0  0  0
   -2.1911    0.6152    0.4787 C   0  0  0  0  0  0  0  0  0  0  0  0
   -3.3736   -0.0553    0.1137 O   0  0  0  0  0  0  0  0  0  0  0  0
    2.9125    0.5487   -0.8716 H   0  0  0  0  0  0  0  0  0  0  0  0
    2.6644    0.5114    0.8092 H   0  0  0  0  0  0  0  0  0  0  0  0
    3.3237   -0.8513    0.0628 H   0  0  0  0  0  0  0  0  0  0  0  0
    1.1338   -0.6696   -1.4375 H   0  0  0  0  0  0  0  0  0  0  0  0
    1.1746   -1.5936    0.1042 H   0  0  0  0  0  0  0  0  0  0  0  0
    0.5060    1.3543   -0.1821 H   0  0  0  0  0  0  0  0  0  0  0  0
    0.4720    0.4268    1.3580 H   0  0  0  0  0  0  0  0  0  0  0  0
   -1.1807   -0.3272   -1.1355 H   0  0  0  0  0  0  0  0  0  0  0  0
   -1.0578   -1.2188    0.4223 H   0  0  0  0  0  0  0  0  0  0  0  0
   -2.1669    1.5939   -0.0498 H   0  0  0  0  0  0  0  0  0  0  0  0
   -2.1710    0.7279    1.5732 H   0  0  0  0  0  0  0  0  0  0  0  0
   -3.2927   -0.5791   -0.7004 H   0  0  0  0  0  0  0  0  0  0  0  0
  1  2  1  0
  2  3  1  0
  3  4  1  0
  4  5  1  0
  5  6  1  0
  1  7  1  0
  1  8  1  0
  1  9  1  0
  2 10  1  0
  2 11  1  0
  3 12  1  0
  3 13  1  0
  4 14  1  0
  4 15  1  0
  5 16  1  0
  5 17  1  0
  6 18  1  0
M  CHG  1   1   1
M  END
$$$$
