@<TRIPOS>MOLECULE
*****
 18 17 0 0 0
SMALL
GASTEIGER

@<TRIPOS>ATOM
      1 N           2.6466   -0.0608   -0.0635 N.4     1  UNL1        0.2185
      2 C           1.3397   -0.5921   -0.3422 C.3     1  UNL1       -0.0353
      3 C           0.3111    0.3724    0.2619 C.3     1  UNL1       -0.0106
      4 C          -1.0505   -0.2028   -0.0413 C.3     1  UNL1       -0.0249
      5 C          -2.1911    0.6152    0.4787 C.3     1  UNL1        0.0444
      6 O          -3.3736   -0.0553    0.1137 O.3     1  UNL1       -0.3950
      7 H           2.9125    0.5487   -0.8716 H       1  UNL1        0.1994
      8 H           2.6644    0.5114    0.8092 H       1  UNL1        0.1994
      9 H           3.3237   -0.8513    0.0628 H       1  UNL1        0.1994
     10 H           1.1338   -0.6696   -1.4375 H       1  UNL1        0.0813
     11 H           1.1746   -1.5936    0.1042 H       1  UNL1        0.0813
     12 H           0.5060    1.3543   -0.1821 H       1  UNL1        0.0317
     13 H           0.4720    0.4268    1.3580 H       1  UNL1        0.0317
     14 H          -1.1807   -0.3272   -1.1355 H       1  UNL1        0.0289
     15 H          -1.0578   -1.2188    0.4223 H       1  UNL1        0.0289
     16 H          -2.1669    1.5939   -0.0498 H       1  UNL1        0.0557
     17 H          -2.1710    0.7279    1.5732 H       1  UNL1        0.0557
     18 H          -3.2927   -0.5791   -0.7004 H       1  UNL1        0.2094
@<TRIPOS>UNITY_ATOM_ATTR
1 1
charge 1
@<TRIPOS>BOND
     1     1     2    1
     2     2     3    1
     3     3     4    1
     4     4     5    1
     5     5     6    1
     6     1     7    1
     7     1     8    1
     8     1     9    1
     9     2    10    1
    10     2    11    1
    11     3    12    1
    12     3    13    1
    13     4    14    1
    14     4    15    1
    15     5    16    1
    16     5    17    1
    17     6    18    1
