
     RDKit          3D

 73 75  0  0  0  0  0  0  0  0999 V2000
    4.0270   -5.3838   -0.2391 C   0  0  0  0  0  0  0  0  0  0  0  0
    2.9433   -4.7446    0.5869 C   0  0  0  0  0  0  0  0  0  0  0  0
    1.9170   -4.0874   -0.3330 C   0  0  0  0  0  0  0  0  0  0  0  0
    2.6107   -3.0641   -1.1722 C   0  0  0  0  0  0  0  0  0  0  0  0
    3.2424   -1.9457   -0.3847 C   0  0  2  0  0  0  0  0  0  0  0  0
    2.2677   -1.2178    0.3643 N   0  0  0  0  0  0  0  0  0  0  0  0
    0.9033   -1.0986    0.0237 C   0  0  0  0  0  0  0  0  0  0  0  0
    0.3282   -1.5769   -0.9605 O   0  0  0  0  0  0  0  0  0  0  0  0
    0.0699   -0.3580    0.8780 O   0  0  0  0  0  0  0  0  0  0  0  0
   -1.3461   -0.2115    0.5615 C   0  0  2  0  0  0  0  0  0  0  0  0
   -1.5424    1.2298    0.4209 C   0  0  0  0  0  0  0  0  0  0  0  0
   -2.8584    1.7626    0.0745 C   0  0  0  0  0  0  0  0  0  0  0  0
   -3.0318    3.1156   -0.0397 N   0  0  0  0  0  0  0  0  0  0  0  0
   -4.2853    3.3459   -0.3569 N   0  0  0  0  0  0  0  0  0  0  0  0
   -4.9027    2.1578   -0.4440 C   0  0  0  0  0  0  0  0  0  0  0  0
   -6.3315    1.9315   -0.7803 C   0  0  0  0  0  0  0  0  0  0  0  0
   -6.8256    0.6501   -0.8506 C   0  0  0  0  0  0  0  0  0  0  0  0
   -8.1310    0.4060   -1.1565 C   0  0  0  0  0  0  0  0  0  0  0  0
   -8.9689    1.4852   -1.4000 C   0  0  0  0  0  0  0  0  0  0  0  0
  -10.2722    1.2135   -1.7041 F   0  0  0  0  0  0  0  0  0  0  0  0
   -8.4736    2.7739   -1.3296 C   0  0  0  0  0  0  0  0  0  0  0  0
   -7.1514    3.0047   -1.0193 C   0  0  0  0  0  0  0  0  0  0  0  0
   -4.0029    1.2575   -0.1770 O   0  0  0  0  0  0  0  0  0  0  0  0
   -2.0075   -0.9171    1.7135 C   0  0  0  0  0  0  0  0  0  0  0  0
   -1.4577   -2.3638    1.6544 C   0  0  0  0  0  0  0  0  0  0  0  0
   -1.6278   -0.4125    3.0627 C   0  0  0  0  0  0  0  0  0  0  0  0
   -3.5067   -1.1070    1.5458 C   0  0  0  0  0  0  0  0  0  0  0  0
    3.9758   -1.0414   -1.2702 C   0  0  0  0  0  0  0  0  0  0  0  0
    4.8694   -1.4560   -2.0526 O   0  0  0  0  0  0  0  0  0  0  0  0
    3.6737    0.3925   -1.2587 C   0  0  0  0  0  0  0  0  0  0  0  0
    2.8006    0.8429   -0.4780 O   0  0  0  0  0  0  0  0  0  0  0  0
    4.3452    1.3036   -2.1130 N   0  0  0  0  0  0  0  0  0  0  0  0
    4.1096    2.7197   -2.1559 C   0  0  0  0  0  0  0  0  0  0  0  0
    4.7401    3.4601   -1.0421 C   0  0  0  0  0  0  0  0  0  0  0  0
    4.1430    3.7374    0.1627 C   0  0  0  0  0  0  0  0  0  0  0  0
    4.8513    4.4346    1.1175 C   0  0  0  0  0  0  0  0  0  0  0  0
    6.1328    4.8493    0.8774 C   0  0  0  0  0  0  0  0  0  0  0  0
    6.6814    4.5650   -0.2988 N   0  0  0  0  0  0  0  0  0  0  0  0
    6.0394    3.8968   -1.2483 C   0  0  0  0  0  0  0  0  0  0  0  0
    4.8386   -4.6285   -0.3811 H   0  0  0  0  0  0  0  0  0  0  0  0
    3.5789   -5.6935   -1.2023 H   0  0  0  0  0  0  0  0  0  0  0  0
    4.4094   -6.2617    0.3421 H   0  0  0  0  0  0  0  0  0  0  0  0
    2.3785   -5.5404    1.1572 H   0  0  0  0  0  0  0  0  0  0  0  0
    3.3729   -4.0609    1.3155 H   0  0  0  0  0  0  0  0  0  0  0  0
    1.1110   -3.7087    0.3013 H   0  0  0  0  0  0  0  0  0  0  0  0
    1.5117   -4.8930   -1.0108 H   0  0  0  0  0  0  0  0  0  0  0  0
    1.9255   -2.6904   -1.9438 H   0  0  0  0  0  0  0  0  0  0  0  0
    3.4674   -3.5941   -1.7272 H   0  0  0  0  0  0  0  0  0  0  0  0
    3.9488   -2.4659    0.3549 H   0  0  0  0  0  0  0  0  0  0  0  0
    2.6425   -0.7398    1.2444 H   0  0  0  0  0  0  0  0  0  0  0  0
   -1.5342   -0.7522   -0.3664 H   0  0  0  0  0  0  0  0  0  0  0  0
   -1.1708    1.7302    1.3648 H   0  0  0  0  0  0  0  0  0  0  0  0
   -0.8257    1.5942   -0.3643 H   0  0  0  0  0  0  0  0  0  0  0  0
   -6.1750   -0.2146   -0.6606 H   0  0  0  0  0  0  0  0  0  0  0  0
   -8.4887   -0.6171   -1.2045 H   0  0  0  0  0  0  0  0  0  0  0  0
   -9.1464    3.5739   -1.5225 H   0  0  0  0  0  0  0  0  0  0  0  0
   -6.8043    4.0368   -0.9746 H   0  0  0  0  0  0  0  0  0  0  0  0
   -0.3860   -2.3444    1.8942 H   0  0  0  0  0  0  0  0  0  0  0  0
   -1.6008   -2.7251    0.6192 H   0  0  0  0  0  0  0  0  0  0  0  0
   -2.0641   -2.9464    2.3883 H   0  0  0  0  0  0  0  0  0  0  0  0
   -2.4726   -0.6480    3.7676 H   0  0  0  0  0  0  0  0  0  0  0  0
   -0.7294   -0.9512    3.4808 H   0  0  0  0  0  0  0  0  0  0  0  0
   -1.3648    0.6607    3.0954 H   0  0  0  0  0  0  0  0  0  0  0  0
   -3.7852   -1.3438    0.5183 H   0  0  0  0  0  0  0  0  0  0  0  0
   -4.0922   -0.3042    2.0384 H   0  0  0  0  0  0  0  0  0  0  0  0
   -3.8440   -2.0313    2.1223 H   0  0  0  0  0  0  0  0  0  0  0  0
    5.0669    0.8701   -2.7530 H   0  0  0  0  0  0  0  0  0  0  0  0
    3.0018    2.8560   -2.0427 H   0  0  0  0  0  0  0  0  0  0  0  0
    4.4580    3.0986   -3.1403 H   0  0  0  0  0  0  0  0  0  0  0  0
    3.1343    3.4151    0.3516 H   0  0  0  0  0  0  0  0  0  0  0  0
    4.4171    4.6729    2.0795 H   0  0  0  0  0  0  0  0  0  0  0  0
    6.7337    5.4016    1.5957 H   0  0  0  0  0  0  0  0  0  0  0  0
    6.5390    3.6954   -2.1853 H   0  0  0  0  0  0  0  0  0  0  0  0
  1  2  1  0
  2  3  1  0
  3  4  1  0
  4  5  1  0
  5  6  1  0
  6  7  1  0
  7  8  2  0
  7  9  1  0
  9 10  1  0
 10 11  1  0
 11 12  1  0
 12 13  2  0
 13 14  1  0
 14 15  2  0
 15 16  1  0
 16 17  2  0
 17 18  1  0
 18 19  2  0
 19 20  1  0
 19 21  1  0
 21 22  2  0
 15 23  1  0
 10 24  1  0
 24 25  1  0
 24 26  1  0
 24 27  1  0
  5 28  1  0
 28 29  2  0
 28 30  1  0
 30 31  2  0
 30 32  1  0
 32 33  1  0
 33 34  1  0
 34 35  2  0
 35 36  1  0
 36 37  2  0
 37 38  1  0
 38 39  2  0
 23 12  1  0
 39 34  1  0
 22 16  1  0
  1 40  1  0
  1 41  1  0
  1 42  1  0
  2 43  1  0
  2 44  1  0
  3 45  1  0
  3 46  1  0
  4 47  1  0
  4 48  1  0
  5 49  1  1
  6 50  1  0
 10 51  1  6
 11 52  1  0
 11 53  1  0
 17 54  1  0
 18 55  1  0
 21 56  1  0
 22 57  1  0
 25 58  1  0
 25 59  1  0
 25 60  1  0
 26 61  1  0
 26 62  1  0
 26 63  1  0
 27 64  1  0
 27 65  1  0
 27 66  1  0
 32 67  1  0
 33 68  1  0
 33 69  1  0
 35 70  1  0
 36 71  1  0
 37 72  1  0
 39 73  1  0
M  END
$$$$
