@<TRIPOS>MOLECULE
*****
 73 75 0 0 0
SMALL
GASTEIGER

@<TRIPOS>ATOM
      1 C           4.0270   -5.3838   -0.2391 C.3     1  UNL1       -0.0653
      2 C           2.9433   -4.7446    0.5869 C.3     1  UNL1       -0.0558
      3 C           1.9170   -4.0874   -0.3330 C.3     1  UNL1       -0.0512
      4 C           2.6107   -3.0641   -1.1722 C.3     1  UNL1       -0.0270
      5 C           3.2424   -1.9457   -0.3847 C.3     1  UNL1        0.0937
      6 N           2.2677   -1.2178    0.3643 N.am    1  UNL1       -0.2710
      7 C           0.9033   -1.0986    0.0237 C.2     1  UNL1        0.4011
      8 O           0.3282   -1.5769   -0.9605 O.2     1  UNL1       -0.2265
      9 O           0.0699   -0.3580    0.8780 O.3     1  UNL1       -0.4461
     10 C          -1.3461   -0.2115    0.5615 C.3     1  UNL1        0.1179
     11 C          -1.5424    1.2298    0.4209 C.3     1  UNL1        0.0632
     12 C          -2.8584    1.7626    0.0745 C.ar    1  UNL1        0.2212
     13 N          -3.0318    3.1156   -0.0397 N.ar    1  UNL1       -0.1119
     14 N          -4.2853    3.3459   -0.3569 N.ar    1  UNL1       -0.1073
     15 C          -4.9027    2.1578   -0.4440 C.ar    1  UNL1        0.2483
     16 C          -6.3315    1.9315   -0.7803 C.ar    1  UNL1        0.0386
     17 C          -6.8256    0.6501   -0.8506 C.ar    1  UNL1       -0.0467
     18 C          -8.1310    0.4060   -1.1565 C.ar    1  UNL1       -0.0257
     19 C          -8.9689    1.4852   -1.4000 C.ar    1  UNL1        0.1234
     20 F         -10.2722    1.2135   -1.7041 F       1  UNL1       -0.2055
     21 C          -8.4736    2.7739   -1.3296 C.ar    1  UNL1       -0.0257
     22 C          -7.1514    3.0047   -1.0193 C.ar    1  UNL1       -0.0467
     23 O          -4.0029    1.2575   -0.1770 O.2     1  UNL1       -0.4201
     24 C          -2.0075   -0.9171    1.7135 C.3     1  UNL1       -0.0001
     25 C          -1.4577   -2.3638    1.6544 C.3     1  UNL1       -0.0567
     26 C          -1.6278   -0.4125    3.0627 C.3     1  UNL1       -0.0567
     27 C          -3.5067   -1.1070    1.5458 C.3     1  UNL1       -0.0567
     28 C           3.9758   -1.0414   -1.2702 C.2     1  UNL1        0.2372
     29 O           4.8694   -1.4560   -2.0526 O.2     1  UNL1       -0.2852
     30 C           3.6737    0.3925   -1.2587 C.2     1  UNL1        0.2817
     31 O           2.8006    0.8429   -0.4780 O.2     1  UNL1       -0.2670
     32 N           4.3452    1.3036   -2.1130 N.am    1  UNL1       -0.3048
     33 C           4.1096    2.7197   -2.1559 C.3     1  UNL1        0.0387
     34 C           4.7401    3.4601   -1.0421 C.ar    1  UNL1       -0.0122
     35 C           4.1430    3.7374    0.1627 C.ar    1  UNL1       -0.0542
     36 C           4.8513    4.4346    1.1175 C.ar    1  UNL1       -0.0433
     37 C           6.1328    4.8493    0.8774 C.ar    1  UNL1        0.0276
     38 N           6.6814    4.5650   -0.2988 N.ar    1  UNL1       -0.2629
     39 C           6.0394    3.8968   -1.2483 C.ar    1  UNL1        0.0322
     40 H           4.8386   -4.6285   -0.3811 H       1  UNL1        0.0230
     41 H           3.5789   -5.6935   -1.2023 H       1  UNL1        0.0230
     42 H           4.4094   -6.2617    0.3421 H       1  UNL1        0.0230
     43 H           2.3785   -5.5404    1.1572 H       1  UNL1        0.0263
     44 H           3.3729   -4.0609    1.3155 H       1  UNL1        0.0263
     45 H           1.1110   -3.7087    0.3013 H       1  UNL1        0.0266
     46 H           1.5117   -4.8930   -1.0108 H       1  UNL1        0.0266
     47 H           1.9255   -2.6904   -1.9438 H       1  UNL1        0.0287
     48 H           3.4674   -3.5941   -1.7272 H       1  UNL1        0.0287
     49 H           3.9488   -2.4659    0.3549 H       1  UNL1        0.0583
     50 H           2.6425   -0.7398    1.2444 H       1  UNL1        0.1527
     51 H          -1.5342   -0.7522   -0.3664 H       1  UNL1        0.0744
     52 H          -1.1708    1.7302    1.3648 H       1  UNL1        0.0397
     53 H          -0.8257    1.5942   -0.3643 H       1  UNL1        0.0397
     54 H          -6.1750   -0.2146   -0.6606 H       1  UNL1        0.0626
     55 H          -8.4887   -0.6171   -1.2045 H       1  UNL1        0.0646
     56 H          -9.1464    3.5739   -1.5225 H       1  UNL1        0.0646
     57 H          -6.8043    4.0368   -0.9746 H       1  UNL1        0.0626
     58 H          -0.3860   -2.3444    1.8942 H       1  UNL1        0.0236
     59 H          -1.6008   -2.7251    0.6192 H       1  UNL1        0.0236
     60 H          -2.0641   -2.9464    2.3883 H       1  UNL1        0.0236
     61 H          -2.4726   -0.6480    3.7676 H       1  UNL1        0.0236
     62 H          -0.7294   -0.9512    3.4808 H       1  UNL1        0.0236
     63 H          -1.3648    0.6607    3.0954 H       1  UNL1        0.0236
     64 H          -3.7852   -1.3438    0.5183 H       1  UNL1        0.0236
     65 H          -4.0922   -0.3042    2.0384 H       1  UNL1        0.0236
     66 H          -3.8440   -2.0313    2.1223 H       1  UNL1        0.0236
     67 H           5.0669    0.8701   -2.7530 H       1  UNL1        0.1494
     68 H           3.0018    2.8560   -2.0427 H       1  UNL1        0.0512
     69 H           4.4580    3.0986   -3.1403 H       1  UNL1        0.0512
     70 H           3.1343    3.4151    0.3516 H       1  UNL1        0.0622
     71 H           4.4171    4.6729    2.0795 H       1  UNL1        0.0633
     72 H           6.7337    5.4016    1.5957 H       1  UNL1        0.0829
     73 H           6.5390    3.6954   -2.1853 H       1  UNL1        0.0833
@<TRIPOS>BOND
     1     1     2    1
     2     2     3    1
     3     3     4    1
     4     4     5    1
     5     5     6    1
     6     6     7   am
     7     7     8    2
     8     7     9    1
     9     9    10    1
    10    10    11    1
    11    11    12    1
    12    12    13   ar
    13    13    14   ar
    14    14    15   ar
    15    15    16    1
    16    16    17   ar
    17    17    18   ar
    18    18    19   ar
    19    19    20    1
    20    19    21   ar
    21    21    22   ar
    22    15    23   ar
    23    10    24    1
    24    24    25    1
    25    24    26    1
    26    24    27    1
    27     5    28    1
    28    28    29    2
    29    28    30    1
    30    30    31    2
    31    30    32   am
    32    32    33    1
    33    33    34    1
    34    34    35   ar
    35    35    36   ar
    36    36    37   ar
    37    37    38   ar
    38    38    39   ar
    39    23    12   ar
    40    39    34   ar
    41    22    16   ar
    42     1    40    1
    43     1    41    1
    44     1    42    1
    45     2    43    1
    46     2    44    1
    47     3    45    1
    48     3    46    1
    49     4    47    1
    50     4    48    1
    51     5    49    1
    52     6    50    1
    53    10    51    1
    54    11    52    1
    55    11    53    1
    56    17    54    1
    57    18    55    1
    58    21    56    1
    59    22    57    1
    60    25    58    1
    61    25    59    1
    62    25    60    1
    63    26    61    1
    64    26    62    1
    65    26    63    1
    66    27    64    1
    67    27    65    1
    68    27    66    1
    69    32    67    1
    70    33    68    1
    71    33    69    1
    72    35    70    1
    73    36    71    1
    74    37    72    1
    75    39    73    1
