
     RDKit          3D

 58 63  0  0  0  0  0  0  0  0999 V2000
    4.3430   -3.4139    2.2646 C   0  0  0  0  0  0  0  0  0  0  0  0
    3.9714   -2.2404    1.6057 O   0  0  0  0  0  0  0  0  0  0  0  0
    4.4527   -1.9173    0.3367 C   0  0  0  0  0  0  0  0  0  0  0  0
    5.2947   -2.7417   -0.2830 N   0  0  0  0  0  0  0  0  0  0  0  0
    5.8070   -2.4979   -1.5183 C   0  0  0  0  0  0  0  0  0  0  0  0
    5.4301   -1.3299   -2.1611 C   0  0  0  0  0  0  0  0  0  0  0  0
    4.5621   -0.4796   -1.5227 C   0  0  0  0  0  0  0  0  0  0  0  0
    4.0614   -0.7534   -0.2744 C   0  0  0  0  0  0  0  0  0  0  0  0
    3.1548    0.1483    0.3767 N   0  0  0  0  0  0  0  0  0  0  0  0
    3.4348    1.1389    1.1969 N   0  0  0  0  0  0  0  0  0  0  0  0
    2.2996    1.7578    1.6016 C   0  0  0  0  0  0  0  0  0  0  0  0
    2.3442    2.9188    2.5501 C   0  0  0  0  0  0  0  0  0  0  0  0
    1.2460    1.1330    1.0118 C   0  0  0  0  0  0  0  0  0  0  0  0
    1.8116    0.1130    0.2378 C   0  0  0  0  0  0  0  0  0  0  0  0
    0.7219   -0.5841   -0.4118 C   0  0  0  0  0  0  0  0  0  0  0  0
    0.8397   -1.5620   -1.1873 O   0  0  0  0  0  0  0  0  0  0  0  0
   -0.5254    0.0285   -0.0223 N   0  0  0  0  0  0  0  0  0  0  0  0
   -1.7805   -0.4133   -0.4847 C   0  0  0  0  0  0  0  0  0  0  0  0
   -2.3566    0.0374   -1.6749 C   0  0  0  0  0  0  0  0  0  0  0  0
   -3.5913   -0.4227   -2.0916 C   0  0  0  0  0  0  0  0  0  0  0  0
   -4.2366    0.0335   -3.3521 C   0  0  0  0  0  0  0  0  0  0  0  0
   -4.2265   -1.3452   -1.2796 C   0  0  0  0  0  0  0  0  0  0  0  0
   -5.4036   -1.9769   -1.3879 N   0  0  0  0  0  0  0  0  0  0  0  0
   -5.5577   -2.7721   -0.3356 N   0  0  0  0  0  0  0  0  0  0  0  0
   -4.4845   -2.6725    0.4760 C   0  0  0  0  0  0  0  0  0  0  0  0
   -4.2610   -3.3935    1.7550 C   0  0  0  0  0  0  0  0  0  0  0  0
   -3.6726   -1.7843   -0.1265 N   0  0  0  0  0  0  0  0  0  0  0  0
   -2.4766   -1.3370    0.2746 C   0  0  0  0  0  0  0  0  0  0  0  0
   -0.2081    1.1057    0.8794 C   0  0  0  0  0  0  0  0  0  0  0  0
   -0.8236    2.3573    0.4234 C   0  0  0  0  0  0  0  0  0  0  0  0
   -2.2211    2.3726    0.3809 C   0  0  0  0  0  0  0  0  0  0  0  0
   -2.8240    3.5292   -0.0650 C   0  0  0  0  0  0  0  0  0  0  0  0
   -2.1337    4.6489   -0.4625 C   0  0  0  0  0  0  0  0  0  0  0  0
   -2.9589    6.1021   -1.0243 Cl  0  0  0  0  0  0  0  0  0  0  0  0
   -0.7586    4.5930   -0.4050 C   0  0  0  0  0  0  0  0  0  0  0  0
   -0.1016    3.4674    0.0304 C   0  0  0  0  0  0  0  0  0  0  0  0
    4.6424   -4.2264    1.5692 H   0  0  0  0  0  0  0  0  0  0  0  0
    3.5143   -3.7054    2.9404 H   0  0  0  0  0  0  0  0  0  0  0  0
    5.2216   -3.1786    2.9124 H   0  0  0  0  0  0  0  0  0  0  0  0
    6.4924   -3.1839   -2.0057 H   0  0  0  0  0  0  0  0  0  0  0  0
    5.8093   -1.0894   -3.1448 H   0  0  0  0  0  0  0  0  0  0  0  0
    4.2714    0.4260   -2.0238 H   0  0  0  0  0  0  0  0  0  0  0  0
    2.7680    2.5429    3.5024 H   0  0  0  0  0  0  0  0  0  0  0  0
    3.0018    3.6832    2.0863 H   0  0  0  0  0  0  0  0  0  0  0  0
    1.3278    3.2832    2.7498 H   0  0  0  0  0  0  0  0  0  0  0  0
   -1.8346    0.7472   -2.2699 H   0  0  0  0  0  0  0  0  0  0  0  0
   -5.1814    0.6061   -3.1318 H   0  0  0  0  0  0  0  0  0  0  0  0
   -3.5602    0.7326   -3.8734 H   0  0  0  0  0  0  0  0  0  0  0  0
   -4.5347   -0.8280   -3.9689 H   0  0  0  0  0  0  0  0  0  0  0  0
   -3.6538   -2.7832    2.4780 H   0  0  0  0  0  0  0  0  0  0  0  0
   -5.2089   -3.6188    2.2865 H   0  0  0  0  0  0  0  0  0  0  0  0
   -3.7047   -4.3346    1.5157 H   0  0  0  0  0  0  0  0  0  0  0  0
   -2.0297   -1.6881    1.2002 H   0  0  0  0  0  0  0  0  0  0  0  0
   -0.6342    0.8042    1.8979 H   0  0  0  0  0  0  0  0  0  0  0  0
   -2.8294    1.5326    0.6891 H   0  0  0  0  0  0  0  0  0  0  0  0
   -3.9023    3.5772   -0.1117 H   0  0  0  0  0  0  0  0  0  0  0  0
   -0.1393    5.4396   -0.7027 H   0  0  0  0  0  0  0  0  0  0  0  0
    0.9915    3.4135    0.0738 H   0  0  0  0  0  0  0  0  0  0  0  0
  1  2  1  0
  2  3  1  0
  3  4  2  0
  4  5  1  0
  5  6  2  0
  6  7  1  0
  7  8  2  0
  8  9  1  0
  9 10  1  0
 10 11  2  0
 11 12  1  0
 11 13  1  0
 13 14  2  0
 14 15  1  0
 15 16  2  0
 15 17  1  0
 17 18  1  0
 18 19  1  0
 19 20  2  0
 20 21  1  0
 20 22  1  0
 22 23  2  0
 23 24  1  0
 24 25  2  0
 25 26  1  0
 25 27  1  0
 27 28  1  0
 17 29  1  0
 29 30  1  0
 30 31  2  0
 31 32  1  0
 32 33  2  0
 33 34  1  0
 33 35  1  0
 35 36  2  0
  8  3  1  0
 14  9  1  0
 28 18  2  0
 36 30  1  0
 29 13  1  0
 27 22  1  0
  1 37  1  0
  1 38  1  0
  1 39  1  0
  5 40  1  0
  6 41  1  0
  7 42  1  0
 12 43  1  0
 12 44  1  0
 12 45  1  0
 19 46  1  0
 21 47  1  0
 21 48  1  0
 21 49  1  0
 26 50  1  0
 26 51  1  0
 26 52  1  0
 28 53  1  0
 29 54  1  0
 31 55  1  0
 32 56  1  0
 35 57  1  0
 36 58  1  0
M  END
$$$$
