@<TRIPOS>MOLECULE
*****
 58 63 0 0 0
SMALL
GASTEIGER

@<TRIPOS>ATOM
      1 C           4.3430   -3.4139    2.2646 C.3     1  UNL1        0.0805
      2 O           3.9714   -2.2404    1.6057 O.3     1  UNL1       -0.4782
      3 C           4.4527   -1.9173    0.3367 C.ar    1  UNL1        0.2408
      4 N           5.2947   -2.7417   -0.2830 N.ar    1  UNL1       -0.2195
      5 C           5.8070   -2.4979   -1.5183 C.ar    1  UNL1        0.0315
      6 C           5.4301   -1.3299   -2.1611 C.ar    1  UNL1       -0.0413
      7 C           4.5621   -0.4796   -1.5227 C.ar    1  UNL1       -0.0296
      8 C           4.0614   -0.7534   -0.2744 C.ar    1  UNL1        0.1275
      9 N           3.1548    0.1483    0.3767 N.ar    1  UNL1       -0.2219
     10 N           3.4348    1.1389    1.1969 N.ar    1  UNL1       -0.1704
     11 C           2.2996    1.7578    1.6016 C.ar    1  UNL1        0.0664
     12 C           2.3442    2.9188    2.5501 C.3     1  UNL1       -0.0202
     13 C           1.2460    1.1330    1.0118 C.ar    1  UNL1        0.0309
     14 C           1.8116    0.1130    0.2378 C.ar    1  UNL1        0.1353
     15 C           0.7219   -0.5841   -0.4118 C.2     1  UNL1        0.2705
     16 O           0.8397   -1.5620   -1.1873 O.2     1  UNL1       -0.2679
     17 N          -0.5254    0.0285   -0.0223 N.am    1  UNL1       -0.2531
     18 C          -1.7805   -0.4133   -0.4847 C.ar    1  UNL1        0.0545
     19 C          -2.3566    0.0374   -1.6749 C.ar    1  UNL1       -0.0324
     20 C          -3.5913   -0.4227   -2.0916 C.ar    1  UNL1       -0.0041
     21 C          -4.2366    0.0335   -3.3521 C.3     1  UNL1       -0.0361
     22 C          -4.2265   -1.3452   -1.2796 C.ar    1  UNL1        0.1641
     23 N          -5.4036   -1.9769   -1.3879 N.ar    1  UNL1       -0.1292
     24 N          -5.5577   -2.7721   -0.3356 N.ar    1  UNL1       -0.1340
     25 C          -4.4845   -2.6725    0.4760 C.ar    1  UNL1        0.1347
     26 C          -4.2610   -3.3935    1.7550 C.3     1  UNL1       -0.0041
     27 N          -3.6726   -1.7843   -0.1265 N.ar    1  UNL1       -0.2846
     28 C          -2.4766   -1.3370    0.2746 C.ar    1  UNL1        0.0344
     29 C          -0.2081    1.1057    0.8794 C.3     1  UNL1        0.0854
     30 C          -0.8236    2.3573    0.4234 C.ar    1  UNL1       -0.0221
     31 C          -2.2211    2.3726    0.3809 C.ar    1  UNL1       -0.0551
     32 C          -2.8240    3.5292   -0.0650 C.ar    1  UNL1       -0.0431
     33 C          -2.1337    4.6489   -0.4625 C.ar    1  UNL1        0.0410
     34 CL         -2.9589    6.1021   -1.0243 Cl      1  UNL1       -0.0835
     35 C          -0.7586    4.5930   -0.4050 C.ar    1  UNL1       -0.0431
     36 C          -0.1016    3.4674    0.0304 C.ar    1  UNL1       -0.0551
     37 H           4.6424   -4.2264    1.5692 H       1  UNL1        0.0660
     38 H           3.5143   -3.7054    2.9404 H       1  UNL1        0.0660
     39 H           5.2216   -3.1786    2.9124 H       1  UNL1        0.0660
     40 H           6.4924   -3.1839   -2.0057 H       1  UNL1        0.0831
     41 H           5.8093   -1.0894   -3.1448 H       1  UNL1        0.0633
     42 H           4.2714    0.4260   -2.0238 H       1  UNL1        0.0641
     43 H           2.7680    2.5429    3.5024 H       1  UNL1        0.0293
     44 H           3.0018    3.6832    2.0863 H       1  UNL1        0.0293
     45 H           1.3278    3.2832    2.7498 H       1  UNL1        0.0293
     46 H          -1.8346    0.7472   -2.2699 H       1  UNL1        0.0640
     47 H          -5.1814    0.6061   -3.1318 H       1  UNL1        0.0279
     48 H          -3.5602    0.7326   -3.8734 H       1  UNL1        0.0279
     49 H          -4.5347   -0.8280   -3.9689 H       1  UNL1        0.0279
     50 H          -3.6538   -2.7832    2.4780 H       1  UNL1        0.0308
     51 H          -5.2089   -3.6188    2.2865 H       1  UNL1        0.0308
     52 H          -3.7047   -4.3346    1.5157 H       1  UNL1        0.0308
     53 H          -2.0297   -1.6881    1.2002 H       1  UNL1        0.0833
     54 H          -0.6342    0.8042    1.8979 H       1  UNL1        0.0606
     55 H          -2.8294    1.5326    0.6891 H       1  UNL1        0.0621
     56 H          -3.9023    3.5772   -0.1117 H       1  UNL1        0.0632
     57 H          -0.1393    5.4396   -0.7027 H       1  UNL1        0.0632
     58 H           0.9915    3.4135    0.0738 H       1  UNL1        0.0621
@<TRIPOS>BOND
     1     1     2    1
     2     2     3    1
     3     3     4   ar
     4     4     5   ar
     5     5     6   ar
     6     6     7   ar
     7     7     8   ar
     8     8     9    1
     9     9    10   ar
    10    10    11   ar
    11    11    12    1
    12    11    13   ar
    13    13    14   ar
    14    14    15    1
    15    15    16    2
    16    15    17   am
    17    17    18    1
    18    18    19   ar
    19    19    20   ar
    20    20    21    1
    21    20    22   ar
    22    22    23   ar
    23    23    24   ar
    24    24    25   ar
    25    25    26    1
    26    25    27   ar
    27    27    28   ar
    28    17    29    1
    29    29    30    1
    30    30    31   ar
    31    31    32   ar
    32    32    33   ar
    33    33    34    1
    34    33    35   ar
    35    35    36   ar
    36     8     3   ar
    37    14     9   ar
    38    28    18   ar
    39    36    30   ar
    40    29    13    1
    41    27    22   ar
    42     1    37    1
    43     1    38    1
    44     1    39    1
    45     5    40    1
    46     6    41    1
    47     7    42    1
    48    12    43    1
    49    12    44    1
    50    12    45    1
    51    19    46    1
    52    21    47    1
    53    21    48    1
    54    21    49    1
    55    26    50    1
    56    26    51    1
    57    26    52    1
    58    28    53    1
    59    29    54    1
    60    31    55    1
    61    32    56    1
    62    35    57    1
    63    36    58    1
