
     RDKit          3D

 21 21  0  0  0  0  0  0  0  0999 V2000
   -1.8723    0.8577    1.6898 O   0  0  0  0  0  0  0  0  0  0  0  0
   -1.8858    1.1964    0.3574 C   0  0  0  0  0  0  0  0  0  0  0  0
   -2.4290    2.2829    0.0273 O   0  0  0  0  0  0  0  0  0  0  0  0
   -1.2722    0.3036   -0.6932 C   0  0  0  0  0  0  0  0  0  0  0  0
   -1.9452   -0.9993   -0.6730 C   0  0  0  0  0  0  0  0  0  0  0  0
   -1.5622   -2.0462   -1.4640 O   0  0  0  0  0  0  0  0  0  0  0  0
   -2.9260   -1.2058    0.0941 O   0  0  0  0  0  0  0  0  0  0  0  0
    0.1732    0.1817   -0.3244 C   0  0  0  0  0  0  0  0  0  0  0  0
    0.5270   -0.3929    0.8795 C   0  0  0  0  0  0  0  0  0  0  0  0
    1.8586   -0.5171    1.2434 C   0  0  0  0  0  0  0  0  0  0  0  0
    2.8498   -0.0623    0.3959 C   0  0  0  0  0  0  0  0  0  0  0  0
    2.5256    0.5216   -0.8247 C   0  0  0  0  0  0  0  0  0  0  0  0
    1.1869    0.6273   -1.1514 C   0  0  0  0  0  0  0  0  0  0  0  0
   -2.3292    1.4429    2.3501 H   0  0  0  0  0  0  0  0  0  0  0  0
   -1.3954    0.7754   -1.6682 H   0  0  0  0  0  0  0  0  0  0  0  0
   -1.5780   -3.0201   -1.1242 H   0  0  0  0  0  0  0  0  0  0  0  0
   -0.1992   -0.7719    1.5941 H   0  0  0  0  0  0  0  0  0  0  0  0
    2.1280   -0.9604    2.1720 H   0  0  0  0  0  0  0  0  0  0  0  0
    3.8779   -0.1760    0.7133 H   0  0  0  0  0  0  0  0  0  0  0  0
    3.3156    0.8815   -1.4952 H   0  0  0  0  0  0  0  0  0  0  0  0
    0.9518    1.0811   -2.0987 H   0  0  0  0  0  0  0  0  0  0  0  0
  1  2  1  0
  2  3  2  0
  2  4  1  0
  4  5  1  0
  5  6  1  0
  5  7  2  0
  4  8  1  0
  8  9  2  0
  9 10  1  0
 10 11  2  0
 11 12  1  0
 12 13  2  0
 13  8  1  0
  1 14  1  0
  4 15  1  0
  6 16  1  0
  9 17  1  0
 10 18  1  0
 11 19  1  0
 12 20  1  0
 13 21  1  0
M  END
$$$$
