@<TRIPOS>MOLECULE
*****
 21 21 0 0 0
SMALL
GASTEIGER

@<TRIPOS>ATOM
      1 O          -1.8723    0.8577    1.6898 O.3     1  UNL1       -0.4798
      2 C          -1.8858    1.1964    0.3574 C.2     1  UNL1        0.3232
      3 O          -2.4290    2.2829    0.0273 O.2     1  UNL1       -0.2497
      4 C          -1.2722    0.3036   -0.6932 C.3     1  UNL1        0.1775
      5 C          -1.9452   -0.9993   -0.6730 C.2     1  UNL1        0.3232
      6 O          -1.5622   -2.0462   -1.4640 O.3     1  UNL1       -0.4798
      7 O          -2.9260   -1.2058    0.0941 O.2     1  UNL1       -0.2497
      8 C           0.1732    0.1817   -0.3244 C.ar    1  UNL1       -0.0230
      9 C           0.5270   -0.3929    0.8795 C.ar    1  UNL1       -0.0573
     10 C           1.8586   -0.5171    1.2434 C.ar    1  UNL1       -0.0615
     11 C           2.8498   -0.0623    0.3959 C.ar    1  UNL1       -0.0617
     12 C           2.5256    0.5216   -0.8247 C.ar    1  UNL1       -0.0615
     13 C           1.1869    0.6273   -1.1514 C.ar    1  UNL1       -0.0573
     14 H          -2.3292    1.4429    2.3501 H       1  UNL1        0.2951
     15 H          -1.3954    0.7754   -1.6682 H       1  UNL1        0.0579
     16 H          -1.5780   -3.0201   -1.1242 H       1  UNL1        0.2951
     17 H          -0.1992   -0.7719    1.5941 H       1  UNL1        0.0621
     18 H           2.1280   -0.9604    2.1720 H       1  UNL1        0.0618
     19 H           3.8779   -0.1760    0.7133 H       1  UNL1        0.0618
     20 H           3.3156    0.8815   -1.4952 H       1  UNL1        0.0618
     21 H           0.9518    1.0811   -2.0987 H       1  UNL1        0.0621
@<TRIPOS>BOND
     1     1     2    1
     2     2     3    2
     3     2     4    1
     4     4     5    1
     5     5     6    1
     6     5     7    2
     7     4     8    1
     8     8     9   ar
     9     9    10   ar
    10    10    11   ar
    11    11    12   ar
    12    12    13   ar
    13    13     8   ar
    14     1    14    1
    15     4    15    1
    16     6    16    1
    17     9    17    1
    18    10    18    1
    19    11    19    1
    20    12    20    1
    21    13    21    1
