@<TRIPOS>MOLECULE
*****
 33 35 0 0 0
SMALL
GASTEIGER

@<TRIPOS>ATOM
      1 N           2.9026   -2.2203    0.5751 N.pl3   1  UNL1       -0.3402
      2 C           2.6830   -0.9858    1.2256 C.ar    1  UNL1        0.1583
      3 C           2.0468    0.1211    0.6434 C.ar    1  UNL1        0.1603
      4 O           1.6623   -0.1331   -0.6256 O.3     1  UNL1       -0.4839
      5 C           1.0181    0.5986   -1.5890 C.3     1  UNL1        0.1154
      6 C          -0.3336    0.9997   -1.1360 C.ar    1  UNL1       -0.0027
      7 C          -0.7842    2.2517   -0.7328 C.ar    1  UNL1       -0.0548
      8 C          -2.0882    2.4764   -0.3502 C.ar    1  UNL1       -0.0608
      9 C          -3.0263    1.4766   -0.3430 C.ar    1  UNL1       -0.0540
     10 C          -2.6058    0.2180   -0.7400 C.ar    1  UNL1       -0.0175
     11 C          -3.5740   -0.7632   -0.7203 C.ar    1  UNL1       -0.0540
     12 C          -3.2433   -2.0405   -1.0980 C.ar    1  UNL1       -0.0612
     13 C          -1.9357   -2.3367   -1.4977 C.ar    1  UNL1       -0.0612
     14 C          -1.0139   -1.2823   -1.4888 C.ar    1  UNL1       -0.0537
     15 C          -1.3021    0.0020   -1.1204 C.ar    1  UNL1       -0.0115
     16 C           1.9532    1.2131    1.4786 C.ar    1  UNL1       -0.0151
     17 C           2.4306    1.2435    2.7698 C.ar    1  UNL1       -0.0400
     18 C           3.0481    0.1054    3.2725 C.ar    1  UNL1        0.0299
     19 N           3.1560   -0.9688    2.4916 N.ar    1  UNL1       -0.2370
     20 H           3.1659   -2.5984   -0.3543 H       1  UNL1        0.1438
     21 H           2.8197   -3.1588    1.0153 H       1  UNL1        0.1438
     22 H           0.9895   -0.0117   -2.5185 H       1  UNL1        0.0748
     23 H           1.5827    1.5577   -1.7619 H       1  UNL1        0.0748
     24 H           0.0026    3.0121   -0.7575 H       1  UNL1        0.0622
     25 H          -2.3500    3.4889   -0.0503 H       1  UNL1        0.0618
     26 H          -4.0304    1.6649   -0.0453 H       1  UNL1        0.0624
     27 H          -4.5901   -0.6031   -0.4260 H       1  UNL1        0.0624
     28 H          -3.9777   -2.8363   -1.0952 H       1  UNL1        0.0618
     29 H          -1.6866   -3.3398   -1.7918 H       1  UNL1        0.0618
     30 H          -0.0496   -1.5910   -1.8026 H       1  UNL1        0.0624
     31 H           1.4649    2.0508    1.0038 H       1  UNL1        0.0656
     32 H           2.2741    2.1804    3.2858 H       1  UNL1        0.0634
     33 H           3.3915    0.2089    4.2837 H       1  UNL1        0.0830
@<TRIPOS>BOND
     1     1     2    1
     2     2     3   ar
     3     3     4    1
     4     4     5    1
     5     5     6    1
     6     6     7   ar
     7     7     8   ar
     8     8     9   ar
     9     9    10   ar
    10    10    11   ar
    11    11    12   ar
    12    12    13   ar
    13    13    14   ar
    14    14    15   ar
    15     3    16   ar
    16    16    17   ar
    17    17    18   ar
    18    18    19   ar
    19    19     2   ar
    20    15     6   ar
    21    15    10   ar
    22     1    20    1
    23     1    21    1
    24     5    22    1
    25     5    23    1
    26     7    24    1
    27     8    25    1
    28     9    26    1
    29    11    27    1
    30    12    28    1
    31    13    29    1
    32    14    30    1
    33    16    31    1
    34    17    32    1
    35    18    33    1
