@<TRIPOS>MOLECULE
*****
 41 44 0 0 0
SMALL
GASTEIGER

@<TRIPOS>ATOM
      1 N           5.9115    0.3504    1.5173 N.1     1  UNL1       -0.1892
      2 C           4.7277   -0.6415    2.0526 C.1     1  UNL1        0.1208
      3 C           3.6247   -1.5461    2.5448 C.ar    1  UNL1        0.1618
      4 C           3.6984   -2.5739    3.1319 C.ar    1  UNL1        0.0659
      5 N           2.5131   -3.2512    2.7563 N.ar    1  UNL1       -0.2333
      6 C           1.8437   -2.5277    1.9823 C.ar    1  UNL1        0.1555
      7 C           0.5691   -2.5597    1.3061 C.ar    1  UNL1       -0.0153
      8 C           0.0932   -1.4567    0.5600 C.ar    1  UNL1       -0.0290
      9 C           0.8839   -0.2282    0.4187 C.ar    1  UNL1        0.1103
     10 C           0.4321    0.8968   -0.3402 C.ar    1  UNL1        0.0968
     11 C          -0.4987    1.0005   -1.3037 C.ar    1  UNL1        0.0982
     12 C          -1.5541    0.1403   -1.6965 C.ar    1  UNL1        0.0032
     13 C          -1.2900   -1.0492   -2.4615 C.ar    1  UNL1       -0.0498
     14 C          -2.3268   -1.7927   -2.8930 C.ar    1  UNL1       -0.0253
     15 C          -3.6976   -1.4850   -2.6589 C.ar    1  UNL1        0.1351
     16 F          -4.7020   -2.1307   -3.1996 F       1  UNL1       -0.2049
     17 C          -3.9738   -0.3326   -1.8909 C.ar    1  UNL1        0.0905
     18 C          -5.3432    0.0668   -1.5408 C.3     1  UNL1        0.4201
     19 F          -6.1789    0.0756   -2.5872 F       1  UNL1       -0.1658
     20 F          -5.7321   -0.7065   -0.4426 F       1  UNL1       -0.1658
     21 F          -5.2017    1.4267   -1.1156 F       1  UNL1       -0.1658
     22 C          -2.8935    0.3875   -1.4656 C.ar    1  UNL1       -0.0381
     23 N          -0.2933    2.2802   -1.8876 N.ar    1  UNL1       -0.2351
     24 C           0.6909    2.8888   -1.2881 C.ar    1  UNL1        0.0973
     25 N           1.1880    2.1180   -0.3010 N.ar    1  UNL1       -0.3229
     26 C           2.1005    2.3638    0.7237 C.3     1  UNL1        0.0852
     27 C           1.5508    2.9592    2.0377 C.3     1  UNL1        0.2569
     28 F           0.6263    2.1962    2.6137 F       1  UNL1       -0.2073
     29 F           2.6236    3.1945    2.9366 F       1  UNL1       -0.2073
     30 N           1.8694   -0.5579    1.0875 N.ar    1  UNL1       -0.1623
     31 N           2.5630   -1.2401    1.7666 N.ar    1  UNL1       -0.2023
     32 H           4.4633   -2.9591    3.8339 H       1  UNL1        0.0859
     33 H           0.0636   -3.4907    1.1873 H       1  UNL1        0.0655
     34 H          -0.8643   -1.5881    0.1098 H       1  UNL1        0.0641
     35 H          -0.2185   -1.2365   -2.6570 H       1  UNL1        0.0625
     36 H          -2.1910   -2.6763   -3.5299 H       1  UNL1        0.0646
     37 H          -3.0651    1.2871   -0.8262 H       1  UNL1        0.0630
     38 H           1.1697    3.8307   -1.5195 H       1  UNL1        0.1029
     39 H           2.8692    3.1065    0.3146 H       1  UNL1        0.0548
     40 H           2.7816    1.4691    0.9585 H       1  UNL1        0.0548
     41 H           1.1674    3.9917    1.7655 H       1  UNL1        0.1037
@<TRIPOS>BOND
     1     1     2    3
     2     2     3    1
     3     3     4   ar
     4     4     5   ar
     5     5     6   ar
     6     6     7   ar
     7     7     8   ar
     8     8     9   ar
     9     9    10    1
    10    10    11   ar
    11    11    12    1
    12    12    13   ar
    13    13    14   ar
    14    14    15   ar
    15    15    16    1
    16    15    17   ar
    17    17    18    1
    18    18    19    1
    19    18    20    1
    20    18    21    1
    21    17    22   ar
    22    11    23   ar
    23    23    24   ar
    24    24    25   ar
    25    25    26    1
    26    26    27    1
    27    27    28    1
    28    27    29    1
    29     9    30   ar
    30    30    31   ar
    31    31     3   ar
    32    31     6   ar
    33    25    10   ar
    34    22    12   ar
    35     4    32    1
    36     7    33    1
    37     8    34    1
    38    13    35    1
    39    14    36    1
    40    22    37    1
    41    24    38    1
    42    26    39    1
    43    26    40    1
    44    27    41    1
