
     RDKit          3D

 41 44  0  0  0  0  0  0  0  0999 V2000
    5.9115    0.3504    1.5173 N   0  0  0  0  0  0  0  0  0  0  0  0
    4.7277   -0.6415    2.0526 C   0  0  0  0  0  0  0  0  0  0  0  0
    3.6247   -1.5461    2.5448 C   0  0  0  0  0  0  0  0  0  0  0  0
    3.6984   -2.5739    3.1319 C   0  0  0  0  0  0  0  0  0  0  0  0
    2.5131   -3.2512    2.7563 N   0  0  0  0  0  0  0  0  0  0  0  0
    1.8437   -2.5277    1.9823 C   0  0  0  0  0  0  0  0  0  0  0  0
    0.5691   -2.5597    1.3061 C   0  0  0  0  0  0  0  0  0  0  0  0
    0.0932   -1.4567    0.5600 C   0  0  0  0  0  0  0  0  0  0  0  0
    0.8839   -0.2282    0.4187 C   0  0  0  0  0  0  0  0  0  0  0  0
    0.4321    0.8968   -0.3402 C   0  0  0  0  0  0  0  0  0  0  0  0
   -0.4987    1.0005   -1.3037 C   0  0  0  0  0  0  0  0  0  0  0  0
   -1.5541    0.1403   -1.6965 C   0  0  0  0  0  0  0  0  0  0  0  0
   -1.2900   -1.0492   -2.4615 C   0  0  0  0  0  0  0  0  0  0  0  0
   -2.3268   -1.7927   -2.8930 C   0  0  0  0  0  0  0  0  0  0  0  0
   -3.6976   -1.4850   -2.6589 C   0  0  0  0  0  0  0  0  0  0  0  0
   -4.7020   -2.1307   -3.1996 F   0  0  0  0  0  0  0  0  0  0  0  0
   -3.9738   -0.3326   -1.8909 C   0  0  0  0  0  0  0  0  0  0  0  0
   -5.3432    0.0668   -1.5408 C   0  0  0  0  0  0  0  0  0  0  0  0
   -6.1789    0.0756   -2.5872 F   0  0  0  0  0  0  0  0  0  0  0  0
   -5.7321   -0.7065   -0.4426 F   0  0  0  0  0  0  0  0  0  0  0  0
   -5.2017    1.4267   -1.1156 F   0  0  0  0  0  0  0  0  0  0  0  0
   -2.8935    0.3875   -1.4656 C   0  0  0  0  0  0  0  0  0  0  0  0
   -0.2933    2.2802   -1.8876 N   0  0  0  0  0  0  0  0  0  0  0  0
    0.6909    2.8888   -1.2881 C   0  0  0  0  0  0  0  0  0  0  0  0
    1.1880    2.1180   -0.3010 N   0  0  0  0  0  0  0  0  0  0  0  0
    2.1005    2.3638    0.7237 C   0  0  0  0  0  0  0  0  0  0  0  0
    1.5508    2.9592    2.0377 C   0  0  0  0  0  0  0  0  0  0  0  0
    0.6263    2.1962    2.6137 F   0  0  0  0  0  0  0  0  0  0  0  0
    2.6236    3.1945    2.9366 F   0  0  0  0  0  0  0  0  0  0  0  0
    1.8694   -0.5579    1.0875 N   0  0  0  0  0  0  0  0  0  0  0  0
    2.5630   -1.2401    1.7666 N   0  0  0  0  0  0  0  0  0  0  0  0
    4.4633   -2.9591    3.8339 H   0  0  0  0  0  0  0  0  0  0  0  0
    0.0636   -3.4907    1.1873 H   0  0  0  0  0  0  0  0  0  0  0  0
   -0.8643   -1.5881    0.1098 H   0  0  0  0  0  0  0  0  0  0  0  0
   -0.2185   -1.2365   -2.6570 H   0  0  0  0  0  0  0  0  0  0  0  0
   -2.1910   -2.6763   -3.5299 H   0  0  0  0  0  0  0  0  0  0  0  0
   -3.0651    1.2871   -0.8262 H   0  0  0  0  0  0  0  0  0  0  0  0
    1.1697    3.8307   -1.5195 H   0  0  0  0  0  0  0  0  0  0  0  0
    2.8692    3.1065    0.3146 H   0  0  0  0  0  0  0  0  0  0  0  0
    2.7816    1.4691    0.9585 H   0  0  0  0  0  0  0  0  0  0  0  0
    1.1674    3.9917    1.7655 H   0  0  0  0  0  0  0  0  0  0  0  0
  1  2  3  0
  2  3  1  0
  3  4  2  0
  4  5  1  0
  5  6  2  0
  6  7  1  0
  7  8  2  0
  8  9  1  0
  9 10  1  0
 10 11  2  0
 11 12  1  0
 12 13  2  0
 13 14  1  0
 14 15  2  0
 15 16  1  0
 15 17  1  0
 17 18  1  0
 18 19  1  0
 18 20  1  0
 18 21  1  0
 17 22  2  0
 11 23  1  0
 23 24  2  0
 24 25  1  0
 25 26  1  0
 26 27  1  0
 27 28  1  0
 27 29  1  0
  9 30  2  0
 30 31  1  0
 31  3  1  0
 31  6  1  0
 25 10  1  0
 22 12  1  0
  4 32  1  0
  7 33  1  0
  8 34  1  0
 13 35  1  0
 14 36  1  0
 22 37  1  0
 24 38  1  0
 26 39  1  0
 26 40  1  0
 27 41  1  0
M  END
$$$$
