@<TRIPOS>MOLECULE
*****
 60 64 0 0 0
SMALL
GASTEIGER

@<TRIPOS>ATOM
      1 O          -1.4214   -2.0995    1.8835 O.2     1  UNL1       -0.2755
      2 C          -0.9073   -1.1429    1.2846 C.2     1  UNL1        0.2165
      3 N          -1.5455    0.1233    1.4030 N.am    1  UNL1       -0.3098
      4 C          -2.7160    0.3070    2.1711 C.3     1  UNL1        0.0493
      5 C          -2.5140    1.2274    3.3698 C.3     1  UNL1       -0.0320
      6 C          -3.9147    1.6323    3.7669 C.3     1  UNL1       -0.0489
      7 C          -4.8441    0.9514    2.7699 C.3     1  UNL1       -0.0248
      8 C          -3.9046    0.9095    1.5238 C.3     1  UNL1        0.0774
      9 O          -4.4816    0.2546    0.5019 O.3     1  UNL1       -0.3702
     10 C          -4.9138    0.8823   -0.6026 C.3     1  UNL1        0.0731
     11 C          -3.8338    1.5727   -1.3181 C.ar    1  UNL1       -0.0219
     12 C          -3.5020    2.8924   -1.1583 C.ar    1  UNL1       -0.0564
     13 C          -2.4612    3.4724   -1.8768 C.ar    1  UNL1       -0.0614
     14 C          -1.7285    2.7414   -2.7737 C.ar    1  UNL1       -0.0617
     15 C          -2.0470    1.4134   -2.9486 C.ar    1  UNL1       -0.0614
     16 C          -3.0741    0.8582   -2.2332 C.ar    1  UNL1       -0.0564
     17 C           0.3235   -1.3797    0.4954 C.3     1  UNL1        0.0384
     18 C           0.7637   -2.8080    0.5287 C.3     1  UNL1       -0.0259
     19 C           1.8404   -3.0121   -0.5071 C.3     1  UNL1        0.0170
     20 N           2.3152   -1.7899   -1.0935 N.pl3   1  UNL1       -0.2850
     21 C           3.7129   -1.5240   -1.1460 C.ar    1  UNL1        0.2911
     22 N           4.7209   -2.2981   -0.6944 N.ar    1  UNL1       -0.1953
     23 C           5.9095   -1.7197   -0.9176 C.ar    1  UNL1        0.1126
     24 C           7.2339   -2.0363   -0.6790 C.ar    1  UNL1       -0.0142
     25 C           8.2801   -1.2130   -1.0350 C.ar    1  UNL1        0.0432
     26 CL          9.9560   -1.6216   -0.7292 Cl      1  UNL1       -0.0835
     27 C           7.9677   -0.0091   -1.6638 C.ar    1  UNL1       -0.0398
     28 C           6.6487    0.3111   -1.9037 C.ar    1  UNL1       -0.0157
     29 C           5.6071   -0.5255   -1.5409 C.ar    1  UNL1        0.1571
     30 O           4.3051   -0.4539   -1.6538 O.2     1  UNL1       -0.4244
     31 C           1.3649   -0.8405   -1.6239 C.3     1  UNL1        0.0170
     32 C           0.0212   -1.0060   -0.9426 C.3     1  UNL1       -0.0259
     33 H          -1.1053    0.9197    0.8912 H       1  UNL1        0.1491
     34 H          -3.0330   -0.6655    2.6250 H       1  UNL1        0.0524
     35 H          -1.9727    2.1344    2.9811 H       1  UNL1        0.0284
     36 H          -1.9585    0.7323    4.1768 H       1  UNL1        0.0284
     37 H          -4.1503    1.3315    4.8156 H       1  UNL1        0.0267
     38 H          -4.0784    2.7364    3.6132 H       1  UNL1        0.0267
     39 H          -5.0939   -0.0519    3.1031 H       1  UNL1        0.0291
     40 H          -5.7476    1.5181    2.5597 H       1  UNL1        0.0291
     41 H          -3.8221    1.9898    1.2832 H       1  UNL1        0.0614
     42 H          -5.7327    1.6233   -0.4362 H       1  UNL1        0.0610
     43 H          -5.3160    0.0837   -1.3036 H       1  UNL1        0.0610
     44 H          -4.0721    3.4944   -0.4665 H       1  UNL1        0.0621
     45 H          -2.2680    4.5155   -1.6886 H       1  UNL1        0.0618
     46 H          -0.9094    3.2169   -3.3326 H       1  UNL1        0.0618
     47 H          -1.4816    0.8260   -3.6497 H       1  UNL1        0.0618
     48 H          -3.3111   -0.1908   -2.3835 H       1  UNL1        0.0621
     49 H           1.1639   -0.7335    0.8309 H       1  UNL1        0.0395
     50 H           1.1015   -3.1128    1.5415 H       1  UNL1        0.0288
     51 H          -0.1032   -3.4579    0.2224 H       1  UNL1        0.0288
     52 H           1.5002   -3.6739   -1.3465 H       1  UNL1        0.0465
     53 H           2.6839   -3.5628   -0.0024 H       1  UNL1        0.0465
     54 H           7.4647   -2.9734   -0.1900 H       1  UNL1        0.0654
     55 H           8.7808    0.6533   -1.9517 H       1  UNL1        0.0633
     56 H           6.4247    1.2601   -2.3980 H       1  UNL1        0.0655
     57 H           1.2530   -0.9305   -2.7371 H       1  UNL1        0.0465
     58 H           1.7224    0.1785   -1.3662 H       1  UNL1        0.0465
     59 H          -0.5248   -1.8565   -1.3952 H       1  UNL1        0.0288
     60 H          -0.5757   -0.0741   -0.9761 H       1  UNL1        0.0288
@<TRIPOS>BOND
     1     1     2    2
     2     2     3   am
     3     3     4    1
     4     4     5    1
     5     5     6    1
     6     6     7    1
     7     7     8    1
     8     8     9    1
     9     9    10    1
    10    10    11    1
    11    11    12   ar
    12    12    13   ar
    13    13    14   ar
    14    14    15   ar
    15    15    16   ar
    16     2    17    1
    17    17    18    1
    18    18    19    1
    19    19    20    1
    20    20    21    1
    21    21    22   ar
    22    22    23   ar
    23    23    24   ar
    24    24    25   ar
    25    25    26    1
    26    25    27   ar
    27    27    28   ar
    28    28    29   ar
    29    29    30   ar
    30    20    31    1
    31    31    32    1
    32     8     4    1
    33    16    11   ar
    34    32    17    1
    35    30    21   ar
    36    29    23   ar
    37     3    33    1
    38     4    34    1
    39     5    35    1
    40     5    36    1
    41     6    37    1
    42     6    38    1
    43     7    39    1
    44     7    40    1
    45     8    41    1
    46    10    42    1
    47    10    43    1
    48    12    44    1
    49    13    45    1
    50    14    46    1
    51    15    47    1
    52    16    48    1
    53    17    49    1
    54    18    50    1
    55    18    51    1
    56    19    52    1
    57    19    53    1
    58    24    54    1
    59    27    55    1
    60    28    56    1
    61    31    57    1
    62    31    58    1
    63    32    59    1
    64    32    60    1
