
     RDKit          3D

 60 64  0  0  0  0  0  0  0  0999 V2000
   -1.4214   -2.0995    1.8835 O   0  0  0  0  0  0  0  0  0  0  0  0
   -0.9073   -1.1429    1.2846 C   0  0  0  0  0  0  0  0  0  0  0  0
   -1.5455    0.1233    1.4030 N   0  0  0  0  0  0  0  0  0  0  0  0
   -2.7160    0.3070    2.1711 C   0  0  1  0  0  0  0  0  0  0  0  0
   -2.5140    1.2274    3.3698 C   0  0  0  0  0  0  0  0  0  0  0  0
   -3.9147    1.6323    3.7669 C   0  0  0  0  0  0  0  0  0  0  0  0
   -4.8441    0.9514    2.7699 C   0  0  0  0  0  0  0  0  0  0  0  0
   -3.9046    0.9095    1.5238 C   0  0  2  0  0  0  0  0  0  0  0  0
   -4.4816    0.2546    0.5019 O   0  0  0  0  0  0  0  0  0  0  0  0
   -4.9138    0.8823   -0.6026 C   0  0  0  0  0  0  0  0  0  0  0  0
   -3.8338    1.5727   -1.3181 C   0  0  0  0  0  0  0  0  0  0  0  0
   -3.5020    2.8924   -1.1583 C   0  0  0  0  0  0  0  0  0  0  0  0
   -2.4612    3.4724   -1.8768 C   0  0  0  0  0  0  0  0  0  0  0  0
   -1.7285    2.7414   -2.7737 C   0  0  0  0  0  0  0  0  0  0  0  0
   -2.0470    1.4134   -2.9486 C   0  0  0  0  0  0  0  0  0  0  0  0
   -3.0741    0.8582   -2.2332 C   0  0  0  0  0  0  0  0  0  0  0  0
    0.3235   -1.3797    0.4954 C   0  0  0  0  0  0  0  0  0  0  0  0
    0.7637   -2.8080    0.5287 C   0  0  0  0  0  0  0  0  0  0  0  0
    1.8404   -3.0121   -0.5071 C   0  0  0  0  0  0  0  0  0  0  0  0
    2.3152   -1.7899   -1.0935 N   0  0  0  0  0  0  0  0  0  0  0  0
    3.7129   -1.5240   -1.1460 C   0  0  0  0  0  0  0  0  0  0  0  0
    4.7209   -2.2981   -0.6944 N   0  0  0  0  0  0  0  0  0  0  0  0
    5.9095   -1.7197   -0.9176 C   0  0  0  0  0  0  0  0  0  0  0  0
    7.2339   -2.0363   -0.6790 C   0  0  0  0  0  0  0  0  0  0  0  0
    8.2801   -1.2130   -1.0350 C   0  0  0  0  0  0  0  0  0  0  0  0
    9.9560   -1.6216   -0.7292 Cl  0  0  0  0  0  0  0  0  0  0  0  0
    7.9677   -0.0091   -1.6638 C   0  0  0  0  0  0  0  0  0  0  0  0
    6.6487    0.3111   -1.9037 C   0  0  0  0  0  0  0  0  0  0  0  0
    5.6071   -0.5255   -1.5409 C   0  0  0  0  0  0  0  0  0  0  0  0
    4.3051   -0.4539   -1.6538 O   0  0  0  0  0  0  0  0  0  0  0  0
    1.3649   -0.8405   -1.6239 C   0  0  0  0  0  0  0  0  0  0  0  0
    0.0212   -1.0060   -0.9426 C   0  0  0  0  0  0  0  0  0  0  0  0
   -1.1053    0.9197    0.8912 H   0  0  0  0  0  0  0  0  0  0  0  0
   -3.0330   -0.6655    2.6250 H   0  0  0  0  0  0  0  0  0  0  0  0
   -1.9727    2.1344    2.9811 H   0  0  0  0  0  0  0  0  0  0  0  0
   -1.9585    0.7323    4.1768 H   0  0  0  0  0  0  0  0  0  0  0  0
   -4.1503    1.3315    4.8156 H   0  0  0  0  0  0  0  0  0  0  0  0
   -4.0784    2.7364    3.6132 H   0  0  0  0  0  0  0  0  0  0  0  0
   -5.0939   -0.0519    3.1031 H   0  0  0  0  0  0  0  0  0  0  0  0
   -5.7476    1.5181    2.5597 H   0  0  0  0  0  0  0  0  0  0  0  0
   -3.8221    1.9898    1.2832 H   0  0  0  0  0  0  0  0  0  0  0  0
   -5.7327    1.6233   -0.4362 H   0  0  0  0  0  0  0  0  0  0  0  0
   -5.3160    0.0837   -1.3036 H   0  0  0  0  0  0  0  0  0  0  0  0
   -4.0721    3.4944   -0.4665 H   0  0  0  0  0  0  0  0  0  0  0  0
   -2.2680    4.5155   -1.6886 H   0  0  0  0  0  0  0  0  0  0  0  0
   -0.9094    3.2169   -3.3326 H   0  0  0  0  0  0  0  0  0  0  0  0
   -1.4816    0.8260   -3.6497 H   0  0  0  0  0  0  0  0  0  0  0  0
   -3.3111   -0.1908   -2.3835 H   0  0  0  0  0  0  0  0  0  0  0  0
    1.1639   -0.7335    0.8309 H   0  0  0  0  0  0  0  0  0  0  0  0
    1.1015   -3.1128    1.5415 H   0  0  0  0  0  0  0  0  0  0  0  0
   -0.1032   -3.4579    0.2224 H   0  0  0  0  0  0  0  0  0  0  0  0
    1.5002   -3.6739   -1.3465 H   0  0  0  0  0  0  0  0  0  0  0  0
    2.6839   -3.5628   -0.0024 H   0  0  0  0  0  0  0  0  0  0  0  0
    7.4647   -2.9734   -0.1900 H   0  0  0  0  0  0  0  0  0  0  0  0
    8.7808    0.6533   -1.9517 H   0  0  0  0  0  0  0  0  0  0  0  0
    6.4247    1.2601   -2.3980 H   0  0  0  0  0  0  0  0  0  0  0  0
    1.2530   -0.9305   -2.7371 H   0  0  0  0  0  0  0  0  0  0  0  0
    1.7224    0.1785   -1.3662 H   0  0  0  0  0  0  0  0  0  0  0  0
   -0.5248   -1.8565   -1.3952 H   0  0  0  0  0  0  0  0  0  0  0  0
   -0.5757   -0.0741   -0.9761 H   0  0  0  0  0  0  0  0  0  0  0  0
  1  2  2  0
  2  3  1  0
  3  4  1  0
  4  5  1  0
  5  6  1  0
  6  7  1  0
  7  8  1  0
  8  9  1  0
  9 10  1  0
 10 11  1  0
 11 12  2  0
 12 13  1  0
 13 14  2  0
 14 15  1  0
 15 16  2  0
  2 17  1  0
 17 18  1  0
 18 19  1  0
 19 20  1  0
 20 21  1  0
 21 22  2  0
 22 23  1  0
 23 24  2  0
 24 25  1  0
 25 26  1  0
 25 27  2  0
 27 28  1  0
 28 29  2  0
 29 30  1  0
 20 31  1  0
 31 32  1  0
  8  4  1  0
 16 11  1  0
 32 17  1  0
 30 21  1  0
 29 23  1  0
  3 33  1  0
  4 34  1  1
  5 35  1  0
  5 36  1  0
  6 37  1  0
  6 38  1  0
  7 39  1  0
  7 40  1  0
  8 41  1  6
 10 42  1  0
 10 43  1  0
 12 44  1  0
 13 45  1  0
 14 46  1  0
 15 47  1  0
 16 48  1  0
 17 49  1  0
 18 50  1  0
 18 51  1  0
 19 52  1  0
 19 53  1  0
 24 54  1  0
 27 55  1  0
 28 56  1  0
 31 57  1  0
 31 58  1  0
 32 59  1  0
 32 60  1  0
M  END
$$$$
