@<TRIPOS>MOLECULE
*****
 28 28 0 0 0
SMALL
GASTEIGER

@<TRIPOS>ATOM
      1 O          -1.1923   -2.1864    1.6112 O.3     1  UNL1       -0.3669
      2 C          -1.8756   -1.5651    0.5423 C.3     1  UNL1        0.1591
      3 C          -2.5165   -0.3242    1.0260 C.3     1  UNL1        0.0268
      4 C          -2.1612    0.9072    0.2392 C.3     1  UNL1        0.0882
      5 O          -2.3504    2.0108    1.0704 O.3     1  UNL1       -0.3890
      6 C          -0.7614    0.8828   -0.3040 C.3     1  UNL1        0.1095
      7 O          -0.7212    1.8664   -1.3153 O.3     1  UNL1       -0.3866
      8 C          -0.2834   -0.4476   -0.7655 C.3     1  UNL1        0.1136
      9 C           1.1644   -0.6952   -0.3227 C.3     1  UNL1        0.0879
     10 O           1.9514    0.4338   -0.5606 O.3     1  UNL1       -0.2841
     11 P           3.5526    0.2175   -0.0926 P.3     1  UNL1        0.4724
     12 O           3.7220   -0.6940    1.3093 O.3     1  UNL1       -0.3026
     13 O           4.2205    1.7459    0.1933 O.3     1  UNL1       -0.3026
     14 O           4.3794   -0.4140   -1.1869 O.2     1  UNL1       -0.2275
     15 O          -1.0947   -1.5118   -0.5581 O.3     1  UNL1       -0.3433
     16 H          -0.4441   -2.7142    1.2100 H       1  UNL1        0.2125
     17 H          -2.7041   -2.2983    0.3095 H       1  UNL1        0.0908
     18 H          -3.6366   -0.3792    1.0382 H       1  UNL1        0.0340
     19 H          -2.2402   -0.1193    2.0919 H       1  UNL1        0.0340
     20 H          -2.8659    0.9943   -0.6069 H       1  UNL1        0.0621
     21 H          -2.5206    2.8370    0.5345 H       1  UNL1        0.2099
     22 H          -0.0972    1.2768    0.4973 H       1  UNL1        0.0646
     23 H          -1.6358    2.1178   -1.6248 H       1  UNL1        0.2100
     24 H          -0.1810   -0.3631   -1.8894 H       1  UNL1        0.0647
     25 H           1.1057   -0.8062    0.7832 H       1  UNL1        0.0592
     26 H           1.5683   -1.6046   -0.7584 H       1  UNL1        0.0592
     27 H           4.0522   -1.6105    1.1151 H       1  UNL1        0.2220
     28 H           3.5655    2.4434    0.3915 H       1  UNL1        0.2220
@<TRIPOS>BOND
     1     1     2    1
     2     2     3    1
     3     3     4    1
     4     4     5    1
     5     4     6    1
     6     6     7    1
     7     6     8    1
     8     8     9    1
     9     9    10    1
    10    10    11    1
    11    11    12    1
    12    11    13    1
    13    11    14    2
    14     8    15    1
    15    15     2    1
    16     1    16    1
    17     2    17    1
    18     3    18    1
    19     3    19    1
    20     4    20    1
    21     5    21    1
    22     6    22    1
    23     7    23    1
    24     8    24    1
    25     9    25    1
    26     9    26    1
    27    12    27    1
    28    13    28    1
