
     RDKit          3D

 28 28  0  0  0  0  0  0  0  0999 V2000
   -1.1923   -2.1864    1.6112 O   0  0  0  0  0  0  0  0  0  0  0  0
   -1.8756   -1.5651    0.5423 C   0  0  1  0  0  0  0  0  0  0  0  0
   -2.5165   -0.3242    1.0260 C   0  0  0  0  0  0  0  0  0  0  0  0
   -2.1612    0.9072    0.2392 C   0  0  1  0  0  0  0  0  0  0  0  0
   -2.3504    2.0108    1.0704 O   0  0  0  0  0  0  0  0  0  0  0  0
   -0.7614    0.8828   -0.3040 C   0  0  2  0  0  0  0  0  0  0  0  0
   -0.7212    1.8664   -1.3153 O   0  0  0  0  0  0  0  0  0  0  0  0
   -0.2834   -0.4476   -0.7655 C   0  0  1  0  0  0  0  0  0  0  0  0
    1.1644   -0.6952   -0.3227 C   0  0  0  0  0  0  0  0  0  0  0  0
    1.9514    0.4338   -0.5606 O   0  0  0  0  0  0  0  0  0  0  0  0
    3.5526    0.2175   -0.0926 P   0  0  0  0  0  0  0  0  0  0  0  0
    3.7220   -0.6940    1.3093 O   0  0  0  0  0  0  0  0  0  0  0  0
    4.2205    1.7459    0.1933 O   0  0  0  0  0  0  0  0  0  0  0  0
    4.3794   -0.4140   -1.1869 O   0  0  0  0  0  0  0  0  0  0  0  0
   -1.0947   -1.5118   -0.5581 O   0  0  0  0  0  0  0  0  0  0  0  0
   -0.4441   -2.7142    1.2100 H   0  0  0  0  0  0  0  0  0  0  0  0
   -2.7041   -2.2983    0.3095 H   0  0  0  0  0  0  0  0  0  0  0  0
   -3.6366   -0.3792    1.0382 H   0  0  0  0  0  0  0  0  0  0  0  0
   -2.2402   -0.1193    2.0919 H   0  0  0  0  0  0  0  0  0  0  0  0
   -2.8659    0.9943   -0.6069 H   0  0  0  0  0  0  0  0  0  0  0  0
   -2.5206    2.8370    0.5345 H   0  0  0  0  0  0  0  0  0  0  0  0
   -0.0972    1.2768    0.4973 H   0  0  0  0  0  0  0  0  0  0  0  0
   -1.6358    2.1178   -1.6248 H   0  0  0  0  0  0  0  0  0  0  0  0
   -0.1810   -0.3631   -1.8894 H   0  0  0  0  0  0  0  0  0  0  0  0
    1.1057   -0.8062    0.7832 H   0  0  0  0  0  0  0  0  0  0  0  0
    1.5683   -1.6046   -0.7584 H   0  0  0  0  0  0  0  0  0  0  0  0
    4.0522   -1.6105    1.1151 H   0  0  0  0  0  0  0  0  0  0  0  0
    3.5655    2.4434    0.3915 H   0  0  0  0  0  0  0  0  0  0  0  0
  1  2  1  0
  2  3  1  0
  3  4  1  0
  4  5  1  0
  4  6  1  0
  6  7  1  0
  6  8  1  0
  8  9  1  0
  9 10  1  0
 10 11  1  0
 11 12  1  0
 11 13  1  0
 11 14  2  0
  8 15  1  0
 15  2  1  0
  1 16  1  0
  2 17  1  6
  3 18  1  0
  3 19  1  0
  4 20  1  6
  5 21  1  0
  6 22  1  1
  7 23  1  0
  8 24  1  6
  9 25  1  0
  9 26  1  0
 12 27  1  0
 13 28  1  0
M  END
$$$$
