@<TRIPOS>MOLECULE
*****
 54 59 0 0 0
SMALL
GASTEIGER

@<TRIPOS>ATOM
      1 C           4.9474    0.6111   -2.0005 C.3     1  UNL1       -0.0374
      2 C           4.0624   -0.1421   -1.0679 C.ar    1  UNL1       -0.0164
      3 C           2.6879    0.0735   -1.0760 C.ar    1  UNL1       -0.0161
      4 C           1.8338   -0.6057   -0.2262 C.ar    1  UNL1        0.1313
      5 N           0.4329   -0.3741   -0.2459 N.am    1  UNL1       -0.2388
      6 C          -0.4995   -1.0413    0.5953 C.2     1  UNL1        0.2548
      7 O          -0.2364   -1.9247    1.4780 O.2     1  UNL1       -0.2695
      8 C          -1.8460   -0.5874    0.3284 C.ar    1  UNL1        0.0636
      9 C          -3.1798   -0.7202    0.6698 C.ar    1  UNL1       -0.0119
     10 C          -3.7548   -1.6327    1.7114 C.3     1  UNL1        0.0113
     11 C          -4.1296   -3.0086    1.1840 C.3     1  UNL1        0.0040
     12 N          -5.3043   -2.9492    2.0326 N.3     1  UNL1       -0.3147
     13 C          -5.2509   -1.4908    1.8645 C.3     1  UNL1        0.0040
     14 C          -3.8397    0.1658   -0.1557 C.ar    1  UNL1        0.0089
     15 N          -2.9690    0.8076   -0.9585 N.ar    1  UNL1       -0.3508
     16 C          -3.3254    1.8104   -1.9524 C.3     1  UNL1        0.0117
     17 C          -1.7452    0.3560   -0.6724 C.ar    1  UNL1        0.0565
     18 C          -0.3063    0.5297   -1.0691 C.3     1  UNL1        0.0985
     19 C           0.0439    1.9410   -0.8751 C.ar    1  UNL1       -0.0207
     20 C           0.2231    2.5245    0.3610 C.ar    1  UNL1       -0.0550
     21 C           0.5486    3.8608    0.4518 C.ar    1  UNL1       -0.0431
     22 C           0.7092    4.6669   -0.6465 C.ar    1  UNL1        0.0410
     23 CL          1.1247    6.3673   -0.4912 Cl      1  UNL1       -0.0835
     24 C           0.5307    4.0861   -1.8812 C.ar    1  UNL1       -0.0431
     25 C           0.2045    2.7479   -1.9807 C.ar    1  UNL1       -0.0550
     26 N           2.3921   -1.4919    0.6165 N.ar    1  UNL1       -0.2108
     27 C           3.6971   -1.7532    0.6836 C.ar    1  UNL1        0.1803
     28 C           4.5410   -1.0699   -0.1688 C.ar    1  UNL1        0.1345
     29 N           5.7974   -1.5050    0.0888 N.ar    1  UNL1       -0.1276
     30 N           5.7134   -2.4108    1.0543 N.ar    1  UNL1       -0.0635
     31 N           4.4519   -2.5757    1.4282 N.ar    1  UNL1       -0.2297
     32 C           3.9975   -3.4933    2.4650 C.3     1  UNL1        0.0341
     33 H           5.1230    1.6527   -1.6535 H       1  UNL1        0.0278
     34 H           4.5387    0.5899   -3.0345 H       1  UNL1        0.0278
     35 H           5.9352    0.1127   -2.0537 H       1  UNL1        0.0278
     36 H           2.3371    0.8044   -1.7895 H       1  UNL1        0.0655
     37 H          -3.1976   -1.6212    2.6553 H       1  UNL1        0.0374
     38 H          -4.3080   -2.9559    0.1081 H       1  UNL1        0.0430
     39 H          -3.3983   -3.7742    1.4634 H       1  UNL1        0.0430
     40 H          -5.0252   -3.1761    3.0226 H       1  UNL1        0.1220
     41 H          -5.7659   -1.1821    0.9331 H       1  UNL1        0.0430
     42 H          -5.5794   -0.9390    2.7648 H       1  UNL1        0.0430
     43 H          -4.9168    0.3165   -0.1493 H       1  UNL1        0.0812
     44 H          -2.5428    1.8743   -2.7294 H       1  UNL1        0.0456
     45 H          -4.2674    1.5074   -2.4890 H       1  UNL1        0.0456
     46 H          -3.5324    2.7589   -1.4409 H       1  UNL1        0.0456
     47 H          -0.2605    0.2914   -2.1462 H       1  UNL1        0.0620
     48 H           0.0945    1.8811    1.2260 H       1  UNL1        0.0621
     49 H           0.6901    4.3218    1.4264 H       1  UNL1        0.0632
     50 H           0.6425    4.6664   -2.7947 H       1  UNL1        0.0632
     51 H           0.0723    2.3299   -2.9887 H       1  UNL1        0.0621
     52 H           2.9124   -3.4273    2.5757 H       1  UNL1        0.0474
     53 H           4.3440   -4.5091    2.1322 H       1  UNL1        0.0474
     54 H           4.5520   -3.2948    3.4172 H       1  UNL1        0.0474
@<TRIPOS>BOND
     1     1     2    1
     2     2     3   ar
     3     3     4   ar
     4     4     5    1
     5     5     6   am
     6     6     7    2
     7     6     8    1
     8     8     9   ar
     9     9    10    1
    10    10    11    1
    11    11    12    1
    12    12    13    1
    13     9    14   ar
    14    14    15   ar
    15    15    16    1
    16    15    17   ar
    17    17    18    1
    18    18    19    1
    19    19    20   ar
    20    20    21   ar
    21    21    22   ar
    22    22    23    1
    23    22    24   ar
    24    24    25   ar
    25     4    26   ar
    26    26    27   ar
    27    27    28   ar
    28    28    29   ar
    29    29    30   ar
    30    30    31   ar
    31    31    32    1
    32    28     2   ar
    33    18     5    1
    34    25    19   ar
    35    31    27   ar
    36    17     8   ar
    37    13    10    1
    38     1    33    1
    39     1    34    1
    40     1    35    1
    41     3    36    1
    42    10    37    1
    43    11    38    1
    44    11    39    1
    45    12    40    1
    46    13    41    1
    47    13    42    1
    48    14    43    1
    49    16    44    1
    50    16    45    1
    51    16    46    1
    52    18    47    1
    53    20    48    1
    54    21    49    1
    55    24    50    1
    56    25    51    1
    57    32    52    1
    58    32    53    1
    59    32    54    1
