@<TRIPOS>MOLECULE
*****
 43 46 0 0 0
SMALL
GASTEIGER

@<TRIPOS>ATOM
      1 C          -0.6183    2.9015   -0.0687 C.3     1  UNL1       -0.0460
      2 C          -0.6710    1.4798    0.3697 C.3     1  UNL1        0.0293
      3 C          -1.7791    0.6866   -0.2763 C.3     1  UNL1        0.0101
      4 C          -1.7814   -0.6456    0.4126 C.ar    1  UNL1        0.0745
      5 C          -0.6196   -1.1733    0.9372 C.ar    1  UNL1        0.1038
      6 N          -1.0104   -2.3614    1.4675 N.ar    1  UNL1       -0.1322
      7 N          -2.3103   -2.5156    1.2660 N.ar    1  UNL1       -0.0576
      8 N          -2.8166   -1.4793    0.6201 N.ar    1  UNL1       -0.1820
      9 C          -4.1875   -1.2781    0.2193 C.ar    1  UNL1        0.2530
     10 N          -4.8738   -2.2647   -0.3213 N.ar    1  UNL1       -0.2161
     11 C          -6.1504   -2.0609   -0.6895 C.ar    1  UNL1        0.0681
     12 C          -6.7770   -0.8334   -0.5176 C.ar    1  UNL1        0.1595
     13 F          -8.0512   -0.5961   -0.8744 F       1  UNL1       -0.2023
     14 C          -6.0313    0.1787    0.0512 C.ar    1  UNL1        0.0681
     15 N          -4.7697   -0.0819    0.3964 N.ar    1  UNL1       -0.2161
     16 C           0.7027   -0.4984    0.8740 C.3     1  UNL1        0.0610
     17 N           0.5580    0.7518    0.1584 N.am    1  UNL1       -0.2884
     18 C           1.5853    1.2188   -0.7022 C.2     1  UNL1        0.2500
     19 O           1.4972    2.2958   -1.3386 O.2     1  UNL1       -0.2699
     20 C           2.8001    0.4315   -0.8681 C.ar    1  UNL1        0.0726
     21 C           2.9098   -0.5409   -1.8601 C.ar    1  UNL1       -0.0468
     22 C           4.0640   -1.2792   -2.0071 C.ar    1  UNL1       -0.0603
     23 C           5.1221   -1.0458   -1.1552 C.ar    1  UNL1       -0.0473
     24 C           5.0516   -0.0909   -0.1600 C.ar    1  UNL1        0.0906
     25 C           6.2091    0.1419    0.7475 C.3     1  UNL1        0.4201
     26 F           6.5927    1.4719    0.5816 F       1  UNL1       -0.1658
     27 F           5.8845   -0.0898    2.0720 F       1  UNL1       -0.1658
     28 F           7.2988   -0.6183    0.3816 F       1  UNL1       -0.1658
     29 C           3.8903    0.6362   -0.0291 C.ar    1  UNL1        0.1471
     30 F           3.8111    1.5874    0.9572 F       1  UNL1       -0.2041
     31 H          -0.7323    3.0288   -1.1635 H       1  UNL1        0.0248
     32 H           0.2821    3.3681    0.3459 H       1  UNL1        0.0248
     33 H          -1.4871    3.4305    0.4224 H       1  UNL1        0.0248
     34 H          -0.8911    1.4764    1.4732 H       1  UNL1        0.0502
     35 H          -2.7383    1.1937   -0.1590 H       1  UNL1        0.0347
     36 H          -1.5949    0.5343   -1.3687 H       1  UNL1        0.0347
     37 H          -6.7360   -2.8408   -1.1314 H       1  UNL1        0.0860
     38 H          -6.4605    1.1791    0.2188 H       1  UNL1        0.0860
     39 H           1.4948   -1.1466    0.4636 H       1  UNL1        0.0530
     40 H           1.0539   -0.2202    1.9099 H       1  UNL1        0.0530
     41 H           2.0607   -0.6877   -2.4999 H       1  UNL1        0.0626
     42 H           4.1581   -2.0349   -2.7731 H       1  UNL1        0.0618
     43 H           6.0609   -1.6091   -1.2344 H       1  UNL1        0.0624
@<TRIPOS>BOND
     1     1     2    1
     2     2     3    1
     3     3     4    1
     4     4     5   ar
     5     5     6   ar
     6     6     7   ar
     7     7     8   ar
     8     8     9    1
     9     9    10   ar
    10    10    11   ar
    11    11    12   ar
    12    12    13    1
    13    12    14   ar
    14    14    15   ar
    15     5    16    1
    16    16    17    1
    17    17    18   am
    18    18    19    2
    19    18    20    1
    20    20    21   ar
    21    21    22   ar
    22    22    23   ar
    23    23    24   ar
    24    24    25    1
    25    25    26    1
    26    25    27    1
    27    25    28    1
    28    24    29   ar
    29    29    30    1
    30    17     2    1
    31    29    20   ar
    32     8     4   ar
    33    15     9   ar
    34     1    31    1
    35     1    32    1
    36     1    33    1
    37     2    34    1
    38     3    35    1
    39     3    36    1
    40    11    37    1
    41    14    38    1
    42    16    39    1
    43    16    40    1
    44    21    41    1
    45    22    42    1
    46    23    43    1
