@<TRIPOS>MOLECULE
*****
 52 55 0 0 0
SMALL
GASTEIGER

@<TRIPOS>ATOM
      1 C           7.0170    5.3383    1.9212 C.1     1  UNL1       -0.1158
      2 C           7.6423    4.3490    1.6052 C.1     1  UNL1       -0.0647
      3 C           8.3756    3.1940    1.2537 C.3     1  UNL1        0.1513
      4 O           7.7697    2.0863    1.9776 O.3     1  UNL1       -0.4624
      5 C           6.6053    1.5516    1.4678 C.ar    1  UNL1        0.2344
      6 C           5.9530    0.5347    2.2266 C.ar    1  UNL1        0.0899
      7 N           4.8541    0.0567    1.6493 N.ar    1  UNL1       -0.2459
      8 C           4.2580    0.3451    0.5315 C.ar    1  UNL1        0.1172
      9 C           3.0474    0.0211   -0.1099 C.2     1  UNL1        0.1507
     10 F           3.2613   -0.2296   -1.5515 F       1  UNL1       -0.2032
     11 C           1.8223   -0.2407    0.1878 C.2     1  UNL1       -0.0157
     12 C           0.8198   -0.5282   -0.8880 C.ar    1  UNL1       -0.0036
     13 C           1.0404   -0.2378   -2.2027 C.ar    1  UNL1        0.0379
     14 N           0.0434   -0.4467   -3.1474 N.ar    1  UNL1       -0.2267
     15 C          -1.1324   -0.9177   -2.7784 C.ar    1  UNL1        0.2187
     16 F          -2.1539   -1.1785   -3.6434 F       1  UNL1       -0.1835
     17 C          -1.3977   -1.2220   -1.4361 C.ar    1  UNL1        0.0349
     18 C          -2.8154   -1.4197   -1.0296 C.3     1  UNL1        0.0951
     19 C          -3.4584   -0.0532   -1.4883 C.3     1  UNL1       -0.0351
     20 N          -3.4733   -2.4049   -1.8158 N.2     1  UNL1       -0.2520
     21 C          -4.7093   -2.7476   -1.6575 C.2     1  UNL1        0.1485
     22 N          -5.3959   -3.7280   -2.4434 N.pl3   1  UNL1       -0.3380
     23 S          -5.5907   -1.9433   -0.3368 S.3     1  UNL1       -0.0726
     24 C          -4.3241   -1.6841    0.9596 C.3     1  UNL1        0.1259
     25 C          -4.7050   -0.6952    1.9705 C.2     1  UNL1        0.3238
     26 O          -4.1727   -0.6837    3.0783 O.2     1  UNL1       -0.2493
     27 O          -5.6819    0.2290    1.6531 O.3     1  UNL1       -0.4670
     28 C          -6.1506    1.2541    2.4624 C.3     1  UNL1        0.0817
     29 C          -3.3190   -2.7062    1.1685 C.3     1  UNL1       -0.0201
     30 C          -2.9757   -1.4327    0.4032 C.3     1  UNL1        0.0154
     31 C          -0.4288   -1.0370   -0.4951 C.ar    1  UNL1       -0.0433
     32 C           4.9785    1.4082   -0.1992 C.ar    1  UNL1        0.0596
     33 N           6.0721    1.9021    0.3272 N.ar    1  UNL1       -0.2178
     34 H           6.3904    6.3186    2.2551 H       1  UNL1        0.1229
     35 H           8.1700    2.9678    0.1621 H       1  UNL1        0.0837
     36 H           9.4132    3.2293    1.5592 H       1  UNL1        0.0837
     37 H           6.3700    0.2585    3.1726 H       1  UNL1        0.0884
     38 H           1.5298   -0.2523    1.2228 H       1  UNL1        0.0653
     39 H           1.9510    0.2089   -2.6148 H       1  UNL1        0.0836
     40 H          -3.3753    0.5942   -0.5600 H       1  UNL1        0.0256
     41 H          -2.9050    0.3533   -2.3470 H       1  UNL1        0.0256
     42 H          -4.5006   -0.2746   -1.6886 H       1  UNL1        0.0256
     43 H          -5.3894   -4.7116   -2.1918 H       1  UNL1        0.1442
     44 H          -5.8902   -3.3372   -3.3023 H       1  UNL1        0.1442
     45 H          -7.0647    0.9663    3.0160 H       1  UNL1        0.0661
     46 H          -5.3397    1.5867    3.1732 H       1  UNL1        0.0661
     47 H          -6.4250    2.1477    1.7888 H       1  UNL1        0.0661
     48 H          -3.3387   -3.6685    0.6590 H       1  UNL1        0.0288
     49 H          -2.8990   -2.7968    2.1925 H       1  UNL1        0.0288
     50 H          -2.3792   -0.7105    1.0664 H       1  UNL1        0.0347
     51 H          -0.5411   -1.2976    0.5466 H       1  UNL1        0.0629
     52 H           4.5477    1.6842   -1.1240 H       1  UNL1        0.0853
@<TRIPOS>BOND
     1     1     2    3
     2     2     3    1
     3     3     4    1
     4     4     5    1
     5     5     6   ar
     6     6     7   ar
     7     7     8   ar
     8     8     9    1
     9     9    10    1
    10     9    11    2
    11    11    12    1
    12    12    13   ar
    13    13    14   ar
    14    14    15   ar
    15    15    16    1
    16    15    17   ar
    17    17    18    1
    18    18    19    1
    19    18    20    1
    20    20    21    2
    21    21    22    1
    22    21    23    1
    23    23    24    1
    24    24    25    1
    25    25    26    2
    26    25    27    1
    27    27    28    1
    28    24    29    1
    29    29    30    1
    30    17    31   ar
    31     8    32   ar
    32    32    33   ar
    33    33     5   ar
    34    31    12   ar
    35    30    18    1
    36    30    24    1
    37     1    34    1
    38     3    35    1
    39     3    36    1
    40     6    37    1
    41    11    38    1
    42    13    39    1
    43    19    40    1
    44    19    41    1
    45    19    42    1
    46    22    43    1
    47    22    44    1
    48    28    45    1
    49    28    46    1
    50    28    47    1
    51    29    48    1
    52    29    49    1
    53    30    50    1
    54    31    51    1
    55    32    52    1
