@<TRIPOS>MOLECULE
*****
 50 53 0 0 0
SMALL
GASTEIGER

@<TRIPOS>ATOM
      1 C          -1.4223    1.6528   -1.7525 C.3     1  UNL1       -0.0236
      2 C          -1.7767    0.4218   -0.9852 C.ar    1  UNL1        0.0251
      3 C          -0.9081   -0.3040   -0.1956 C.ar    1  UNL1        0.0124
      4 C           0.5025   -0.0068    0.0338 C.ar    1  UNL1        0.0085
      5 C           1.5027   -0.5180   -0.7770 C.ar    1  UNL1        0.0166
      6 N           2.8067   -0.2532   -0.5784 N.ar    1  UNL1       -0.3116
      7 C           3.8472   -0.7972   -1.4383 C.3     1  UNL1        0.0318
      8 C           4.3703    0.2131   -2.4202 C.3     1  UNL1       -0.0444
      9 C           4.9836   -1.3847   -0.6021 C.3     1  UNL1       -0.0444
     10 C           3.1243    0.5420    0.4554 C.ar    1  UNL1        0.2593
     11 O           4.3229    0.8095    0.6705 O.2     1  UNL1       -0.2670
     12 C           2.1717    1.0827    1.3003 C.ar    1  UNL1        0.0473
     13 C           2.5019    1.8998    2.3619 C.ar    1  UNL1       -0.0488
     14 C           1.5153    2.4171    3.1794 C.ar    1  UNL1       -0.0610
     15 C           0.1756    2.1390    2.9672 C.ar    1  UNL1       -0.0611
     16 C          -0.1647    1.3262    1.9124 C.ar    1  UNL1       -0.0532
     17 C           0.8287    0.8104    1.0962 C.ar    1  UNL1       -0.0035
     18 C          -1.5695   -1.3729    0.3600 C.ar    1  UNL1        0.0106
     19 C          -1.2113   -2.4049    1.2083 C.ar    1  UNL1       -0.0167
     20 C          -2.1583   -3.3316    1.5730 C.ar    1  UNL1        0.1241
     21 F          -1.8140   -4.3312    2.3939 F       1  UNL1       -0.2055
     22 C          -3.4633   -3.2229    1.0871 C.ar    1  UNL1       -0.0245
     23 C          -3.8184   -2.2000    0.2463 C.ar    1  UNL1       -0.0349
     24 C          -2.8772   -1.2702   -0.1225 C.ar    1  UNL1        0.0505
     25 N          -2.9832   -0.1928   -0.9242 N.ar    1  UNL1       -0.3327
     26 C          -4.1607    0.2591   -1.6149 C.3     1  UNL1        0.1204
     27 C          -4.8826    1.1902   -0.7350 C.2     1  UNL1        0.3247
     28 O          -5.7531    0.7404    0.0536 O.2     1  UNL1       -0.2490
     29 O          -4.6259    2.5531   -0.7542 O.3     1  UNL1       -0.4794
     30 H          -2.0701    1.8111   -2.6238 H       1  UNL1        0.0292
     31 H          -1.4534    2.4906   -1.0251 H       1  UNL1        0.0292
     32 H          -0.3717    1.5993   -2.1457 H       1  UNL1        0.0292
     33 H           1.2224   -1.1622   -1.6116 H       1  UNL1        0.0816
     34 H           3.4446   -1.6578   -2.0270 H       1  UNL1        0.0523
     35 H           5.2112    0.8054   -2.0237 H       1  UNL1        0.0249
     36 H           4.7549   -0.2906   -3.3402 H       1  UNL1        0.0249
     37 H           3.5944    0.9155   -2.7454 H       1  UNL1        0.0249
     38 H           5.3541   -2.3324   -1.0360 H       1  UNL1        0.0249
     39 H           5.8028   -0.6557   -0.4527 H       1  UNL1        0.0249
     40 H           4.5388   -1.5690    0.4168 H       1  UNL1        0.0249
     41 H           3.5542    2.1059    2.5120 H       1  UNL1        0.0625
     42 H           1.7876    3.0535    4.0046 H       1  UNL1        0.0618
     43 H          -0.6055    2.5306    3.5901 H       1  UNL1        0.0618
     44 H          -1.2052    1.0630    1.6840 H       1  UNL1        0.0624
     45 H          -0.1833   -2.4266    1.5454 H       1  UNL1        0.0653
     46 H          -4.1592   -3.9842    1.4125 H       1  UNL1        0.0647
     47 H          -4.8184   -2.1071   -0.1329 H       1  UNL1        0.0639
     48 H          -4.7935   -0.5780   -1.9743 H       1  UNL1        0.0607
     49 H          -3.8475    0.8149   -2.5219 H       1  UNL1        0.0607
     50 H          -4.8214    3.1067    0.0697 H       1  UNL1        0.2951
@<TRIPOS>BOND
     1     1     2    1
     2     2     3   ar
     3     3     4    1
     4     4     5   ar
     5     5     6   ar
     6     6     7    1
     7     7     8    1
     8     7     9    1
     9     6    10   ar
    10    10    11    2
    11    10    12   ar
    12    12    13   ar
    13    13    14   ar
    14    14    15   ar
    15    15    16   ar
    16    16    17   ar
    17     3    18   ar
    18    18    19   ar
    19    19    20   ar
    20    20    21    1
    21    20    22   ar
    22    22    23   ar
    23    23    24   ar
    24    24    25   ar
    25    25    26    1
    26    26    27    1
    27    27    28    2
    28    27    29    1
    29    25     2   ar
    30    17     4   ar
    31    24    18   ar
    32    17    12   ar
    33     1    30    1
    34     1    31    1
    35     1    32    1
    36     5    33    1
    37     7    34    1
    38     8    35    1
    39     8    36    1
    40     8    37    1
    41     9    38    1
    42     9    39    1
    43     9    40    1
    44    13    41    1
    45    14    42    1
    46    15    43    1
    47    16    44    1
    48    19    45    1
    49    22    46    1
    50    23    47    1
    51    26    48    1
    52    26    49    1
    53    29    50    1
