
     RDKit          3D

 50 53  0  0  0  0  0  0  0  0999 V2000
   -1.4223    1.6528   -1.7525 C   0  0  0  0  0  0  0  0  0  0  0  0
   -1.7767    0.4218   -0.9852 C   0  0  0  0  0  0  0  0  0  0  0  0
   -0.9081   -0.3040   -0.1956 C   0  0  0  0  0  0  0  0  0  0  0  0
    0.5025   -0.0068    0.0338 C   0  0  0  0  0  0  0  0  0  0  0  0
    1.5027   -0.5180   -0.7770 C   0  0  0  0  0  0  0  0  0  0  0  0
    2.8067   -0.2532   -0.5784 N   0  0  0  0  0  0  0  0  0  0  0  0
    3.8472   -0.7972   -1.4383 C   0  0  0  0  0  0  0  0  0  0  0  0
    4.3703    0.2131   -2.4202 C   0  0  0  0  0  0  0  0  0  0  0  0
    4.9836   -1.3847   -0.6021 C   0  0  0  0  0  0  0  0  0  0  0  0
    3.1243    0.5420    0.4554 C   0  0  0  0  0  0  0  0  0  0  0  0
    4.3229    0.8095    0.6705 O   0  0  0  0  0  0  0  0  0  0  0  0
    2.1717    1.0827    1.3003 C   0  0  0  0  0  0  0  0  0  0  0  0
    2.5019    1.8998    2.3619 C   0  0  0  0  0  0  0  0  0  0  0  0
    1.5153    2.4171    3.1794 C   0  0  0  0  0  0  0  0  0  0  0  0
    0.1756    2.1390    2.9672 C   0  0  0  0  0  0  0  0  0  0  0  0
   -0.1647    1.3262    1.9124 C   0  0  0  0  0  0  0  0  0  0  0  0
    0.8287    0.8104    1.0962 C   0  0  0  0  0  0  0  0  0  0  0  0
   -1.5695   -1.3729    0.3600 C   0  0  0  0  0  0  0  0  0  0  0  0
   -1.2113   -2.4049    1.2083 C   0  0  0  0  0  0  0  0  0  0  0  0
   -2.1583   -3.3316    1.5730 C   0  0  0  0  0  0  0  0  0  0  0  0
   -1.8140   -4.3312    2.3939 F   0  0  0  0  0  0  0  0  0  0  0  0
   -3.4633   -3.2229    1.0871 C   0  0  0  0  0  0  0  0  0  0  0  0
   -3.8184   -2.2000    0.2463 C   0  0  0  0  0  0  0  0  0  0  0  0
   -2.8772   -1.2702   -0.1225 C   0  0  0  0  0  0  0  0  0  0  0  0
   -2.9832   -0.1928   -0.9242 N   0  0  0  0  0  0  0  0  0  0  0  0
   -4.1607    0.2591   -1.6149 C   0  0  0  0  0  0  0  0  0  0  0  0
   -4.8826    1.1902   -0.7350 C   0  0  0  0  0  0  0  0  0  0  0  0
   -5.7531    0.7404    0.0536 O   0  0  0  0  0  0  0  0  0  0  0  0
   -4.6259    2.5531   -0.7542 O   0  0  0  0  0  0  0  0  0  0  0  0
   -2.0701    1.8111   -2.6238 H   0  0  0  0  0  0  0  0  0  0  0  0
   -1.4534    2.4906   -1.0251 H   0  0  0  0  0  0  0  0  0  0  0  0
   -0.3717    1.5993   -2.1457 H   0  0  0  0  0  0  0  0  0  0  0  0
    1.2224   -1.1622   -1.6116 H   0  0  0  0  0  0  0  0  0  0  0  0
    3.4446   -1.6578   -2.0270 H   0  0  0  0  0  0  0  0  0  0  0  0
    5.2112    0.8054   -2.0237 H   0  0  0  0  0  0  0  0  0  0  0  0
    4.7549   -0.2906   -3.3402 H   0  0  0  0  0  0  0  0  0  0  0  0
    3.5944    0.9155   -2.7454 H   0  0  0  0  0  0  0  0  0  0  0  0
    5.3541   -2.3324   -1.0360 H   0  0  0  0  0  0  0  0  0  0  0  0
    5.8028   -0.6557   -0.4527 H   0  0  0  0  0  0  0  0  0  0  0  0
    4.5388   -1.5690    0.4168 H   0  0  0  0  0  0  0  0  0  0  0  0
    3.5542    2.1059    2.5120 H   0  0  0  0  0  0  0  0  0  0  0  0
    1.7876    3.0535    4.0046 H   0  0  0  0  0  0  0  0  0  0  0  0
   -0.6055    2.5306    3.5901 H   0  0  0  0  0  0  0  0  0  0  0  0
   -1.2052    1.0630    1.6840 H   0  0  0  0  0  0  0  0  0  0  0  0
   -0.1833   -2.4266    1.5454 H   0  0  0  0  0  0  0  0  0  0  0  0
   -4.1592   -3.9842    1.4125 H   0  0  0  0  0  0  0  0  0  0  0  0
   -4.8184   -2.1071   -0.1329 H   0  0  0  0  0  0  0  0  0  0  0  0
   -4.7935   -0.5780   -1.9743 H   0  0  0  0  0  0  0  0  0  0  0  0
   -3.8475    0.8149   -2.5219 H   0  0  0  0  0  0  0  0  0  0  0  0
   -4.8214    3.1067    0.0697 H   0  0  0  0  0  0  0  0  0  0  0  0
  1  2  1  0
  2  3  2  0
  3  4  1  0
  4  5  2  0
  5  6  1  0
  6  7  1  0
  7  8  1  0
  7  9  1  0
  6 10  1  0
 10 11  2  0
 10 12  1  0
 12 13  2  0
 13 14  1  0
 14 15  2  0
 15 16  1  0
 16 17  2  0
  3 18  1  0
 18 19  2  0
 19 20  1  0
 20 21  1  0
 20 22  2  0
 22 23  1  0
 23 24  2  0
 24 25  1  0
 25 26  1  0
 26 27  1  0
 27 28  2  0
 27 29  1  0
 25  2  1  0
 17  4  1  0
 24 18  1  0
 17 12  1  0
  1 30  1  0
  1 31  1  0
  1 32  1  0
  5 33  1  0
  7 34  1  0
  8 35  1  0
  8 36  1  0
  8 37  1  0
  9 38  1  0
  9 39  1  0
  9 40  1  0
 13 41  1  0
 14 42  1  0
 15 43  1  0
 16 44  1  0
 19 45  1  0
 22 46  1  0
 23 47  1  0
 26 48  1  0
 26 49  1  0
 29 50  1  0
M  END
$$$$
