@<TRIPOS>MOLECULE
*****
 52 55 0 0 0
SMALL
GASTEIGER

@<TRIPOS>ATOM
      1 C          -5.0138    1.6026    1.9000 C.3     1  UNL1       -0.0234
      2 C          -4.4434    1.1452    0.5619 C.3     1  UNL1        0.1253
      3 O          -3.1068    0.8119    0.7016 O.3     1  UNL1       -0.4810
      4 C          -2.0292    1.3886    0.0992 C.ar    1  UNL1        0.1613
      5 C          -0.8938    0.7051    0.5557 C.ar    1  UNL1       -0.0072
      6 C           0.3959    1.0367    0.1377 C.ar    1  UNL1        0.0068
      7 C           0.5740    2.0875   -0.7692 C.ar    1  UNL1        0.0377
      8 N          -0.5214    2.7190   -1.1861 N.ar    1  UNL1       -0.2364
      9 C          -1.7403    2.3987   -0.7853 C.ar    1  UNL1        0.1583
     10 N          -2.9121    3.0647   -1.2232 N.pl3   1  UNL1       -0.3402
     11 C           1.6376    0.3936    0.5486 C.ar    1  UNL1        0.0211
     12 C           2.8112    0.2238   -0.1572 C.ar    1  UNL1        0.0336
     13 N           3.6261   -0.4339    0.7002 N.ar    1  UNL1       -0.2677
     14 N           3.0232   -0.6660    1.8598 N.ar    1  UNL1       -0.1788
     15 C           1.7586   -0.1620    1.8189 C.ar    1  UNL1        0.0571
     16 C           4.9934   -0.8479    0.4169 C.3     1  UNL1        0.0550
     17 C           5.6273    0.2346   -0.4236 C.3     1  UNL1       -0.0179
     18 C           7.0158   -0.1944   -0.7778 C.3     1  UNL1       -0.0022
     19 N           7.0686   -1.4636   -1.4299 N.3     1  UNL1       -0.3158
     20 C           5.8253   -2.1477   -1.5762 C.3     1  UNL1       -0.0022
     21 C           4.9753   -2.1457   -0.3279 C.3     1  UNL1       -0.0179
     22 C          -5.2574   -0.0338    0.0765 C.ar    1  UNL1        0.0318
     23 C          -6.3768    0.1412   -0.7265 C.ar    1  UNL1        0.0492
     24 CL         -6.8076    1.7622   -1.1538 Cl      1  UNL1       -0.0831
     25 C          -7.0708   -1.0015   -1.1291 C.ar    1  UNL1       -0.0402
     26 C          -6.6687   -2.2751   -0.7485 C.ar    1  UNL1       -0.0236
     27 C          -5.5555   -2.4198    0.0478 C.ar    1  UNL1        0.1421
     28 F          -5.2360   -3.6996    0.3704 F       1  UNL1       -0.2039
     29 C          -4.8379   -1.3043    0.4692 C.ar    1  UNL1        0.0841
     30 CL         -3.4294   -1.5675    1.4827 Cl      1  UNL1       -0.0801
     31 H          -5.8951    2.2300    1.7027 H       1  UNL1        0.0269
     32 H          -5.3594    0.7031    2.4839 H       1  UNL1        0.0269
     33 H          -4.2392    2.1320    2.4609 H       1  UNL1        0.0269
     34 H          -4.6124    1.9826   -0.1297 H       1  UNL1        0.0782
     35 H          -0.8041   -0.1304    1.2525 H       1  UNL1        0.0662
     36 H           1.5475    2.3905   -1.1294 H       1  UNL1        0.0836
     37 H          -3.2652    2.5005   -2.0469 H       1  UNL1        0.1438
     38 H          -3.4354    3.9175   -0.9167 H       1  UNL1        0.1438
     39 H           2.9949    0.5546   -1.1601 H       1  UNL1        0.0832
     40 H           1.0735   -0.2314    2.6517 H       1  UNL1        0.0854
     41 H           5.5693   -0.9161    1.3685 H       1  UNL1        0.0545
     42 H           5.0527    0.4167   -1.3408 H       1  UNL1        0.0298
     43 H           5.6985    1.1560    0.2001 H       1  UNL1        0.0298
     44 H           7.6299   -0.2231    0.1595 H       1  UNL1        0.0425
     45 H           7.4339    0.5629   -1.4755 H       1  UNL1        0.0425
     46 H           7.8865   -2.0424   -1.1820 H       1  UNL1        0.1219
     47 H           5.2408   -1.7964   -2.4642 H       1  UNL1        0.0425
     48 H           6.0497   -3.2149   -1.7891 H       1  UNL1        0.0425
     49 H           5.2873   -2.9662    0.3597 H       1  UNL1        0.0298
     50 H           3.9408   -2.4170   -0.6663 H       1  UNL1        0.0298
     51 H          -7.9437   -0.8545   -1.7560 H       1  UNL1        0.0633
     52 H          -7.2823   -3.1066   -1.1184 H       1  UNL1        0.0647
@<TRIPOS>BOND
     1     1     2    1
     2     2     3    1
     3     3     4    1
     4     4     5   ar
     5     5     6   ar
     6     6     7   ar
     7     7     8   ar
     8     8     9   ar
     9     9    10    1
    10     6    11    1
    11    11    12   ar
    12    12    13   ar
    13    13    14   ar
    14    14    15   ar
    15    13    16    1
    16    16    17    1
    17    17    18    1
    18    18    19    1
    19    19    20    1
    20    20    21    1
    21     2    22    1
    22    22    23   ar
    23    23    24    1
    24    23    25   ar
    25    25    26   ar
    26    26    27   ar
    27    27    28    1
    28    27    29   ar
    29    29    30    1
    30     9     4   ar
    31    15    11   ar
    32    21    16    1
    33    29    22   ar
    34     1    31    1
    35     1    32    1
    36     1    33    1
    37     2    34    1
    38     5    35    1
    39     7    36    1
    40    10    37    1
    41    10    38    1
    42    12    39    1
    43    15    40    1
    44    16    41    1
    45    17    42    1
    46    17    43    1
    47    18    44    1
    48    18    45    1
    49    19    46    1
    50    20    47    1
    51    20    48    1
    52    21    49    1
    53    21    50    1
    54    25    51    1
    55    26    52    1
