
     RDKit          3D

 57 58  0  0  0  0  0  0  0  0999 V2000
    6.4231   -1.5377    0.4674 C   0  0  0  0  0  0  0  0  0  0  0  0
    5.6706   -0.6639   -0.5037 C   0  0  0  0  0  0  0  0  0  0  0  0
    4.9627    0.4119    0.0924 N   0  0  0  0  0  0  0  0  0  0  0  0
    5.7298    1.4570    0.6757 C   0  0  0  0  0  0  0  0  0  0  0  0
    6.5090    2.3077   -0.2741 C   0  0  0  0  0  0  0  0  0  0  0  0
    3.9935    0.9557   -0.8072 C   0  0  0  0  0  0  0  0  0  0  0  0
    2.9058    0.0038   -1.0512 C   0  0  0  0  0  0  0  0  0  0  0  0
    2.0294   -0.7814   -1.2338 C   0  0  0  0  0  0  0  0  0  0  0  0
    0.9682   -1.7565   -1.4395 C   0  0  0  0  0  0  0  0  0  0  0  0
   -0.3347   -1.2187   -1.1957 O   0  0  0  0  0  0  0  0  0  0  0  0
   -0.6216   -0.7002    0.0350 C   0  0  0  0  0  0  0  0  0  0  0  0
    0.3536   -0.7645    0.8328 O   0  0  0  0  0  0  0  0  0  0  0  0
   -1.7831   -0.0705    0.7046 C   0  0  0  0  0  0  0  0  0  0  0  0
   -1.3082    0.3219    1.9749 O   0  0  0  0  0  0  0  0  0  0  0  0
   -2.2394    1.1843    0.0054 C   0  0  0  0  0  0  0  0  0  0  0  0
   -2.6760    1.0212   -1.3972 C   0  0  0  0  0  0  0  0  0  0  0  0
   -4.1190    0.8188   -1.6620 C   0  0  0  0  0  0  0  0  0  0  0  0
   -5.0459    0.8915   -0.5121 C   0  0  0  0  0  0  0  0  0  0  0  0
   -4.6298    1.7289    0.6380 C   0  0  0  0  0  0  0  0  0  0  0  0
   -3.1889    2.0256    0.7836 C   0  0  0  0  0  0  0  0  0  0  0  0
   -2.8103   -1.1162    0.8333 C   0  0  0  0  0  0  0  0  0  0  0  0
   -3.4589   -1.1814    2.0729 C   0  0  0  0  0  0  0  0  0  0  0  0
   -4.4458   -2.1007    2.3869 C   0  0  0  0  0  0  0  0  0  0  0  0
   -4.7762   -2.9834    1.3889 C   0  0  0  0  0  0  0  0  0  0  0  0
   -4.1727   -2.9642    0.1547 C   0  0  0  0  0  0  0  0  0  0  0  0
   -3.1810   -2.0252   -0.1310 C   0  0  0  0  0  0  0  0  0  0  0  0
    6.6759   -2.4831   -0.0974 H   0  0  0  0  0  0  0  0  0  0  0  0
    7.3786   -1.1470    0.8094 H   0  0  0  0  0  0  0  0  0  0  0  0
    5.8035   -1.8229    1.3193 H   0  0  0  0  0  0  0  0  0  0  0  0
    6.3124   -0.3967   -1.3629 H   0  0  0  0  0  0  0  0  0  0  0  0
    4.8811   -1.3443   -0.9422 H   0  0  0  0  0  0  0  0  0  0  0  0
    6.3828    1.1341    1.5064 H   0  0  0  0  0  0  0  0  0  0  0  0
    4.9827    2.1500    1.1651 H   0  0  0  0  0  0  0  0  0  0  0  0
    6.8269    1.7580   -1.1830 H   0  0  0  0  0  0  0  0  0  0  0  0
    5.9758    3.2115   -0.6110 H   0  0  0  0  0  0  0  0  0  0  0  0
    7.4754    2.6671    0.1859 H   0  0  0  0  0  0  0  0  0  0  0  0
    4.4566    1.2896   -1.7490 H   0  0  0  0  0  0  0  0  0  0  0  0
    3.5388    1.8601   -0.3366 H   0  0  0  0  0  0  0  0  0  0  0  0
    0.9404   -2.1393   -2.4793 H   0  0  0  0  0  0  0  0  0  0  0  0
    1.1588   -2.6280   -0.7532 H   0  0  0  0  0  0  0  0  0  0  0  0
   -0.8062    1.1676    1.8782 H   0  0  0  0  0  0  0  0  0  0  0  0
   -1.2818    1.8104   -0.0411 H   0  0  0  0  0  0  0  0  0  0  0  0
   -2.3611    1.9387   -1.9800 H   0  0  0  0  0  0  0  0  0  0  0  0
   -2.0379    0.2160   -1.8662 H   0  0  0  0  0  0  0  0  0  0  0  0
   -4.4918    1.4890   -2.4945 H   0  0  0  0  0  0  0  0  0  0  0  0
   -4.2354   -0.2074   -2.1247 H   0  0  0  0  0  0  0  0  0  0  0  0
   -5.3722   -0.1428   -0.1858 H   0  0  0  0  0  0  0  0  0  0  0  0
   -6.0280    1.3182   -0.8864 H   0  0  0  0  0  0  0  0  0  0  0  0
   -5.2072    2.7041    0.6713 H   0  0  0  0  0  0  0  0  0  0  0  0
   -5.0011    1.2022    1.5693 H   0  0  0  0  0  0  0  0  0  0  0  0
   -3.0227    3.0853    0.4833 H   0  0  0  0  0  0  0  0  0  0  0  0
   -2.9090    1.9484    1.8747 H   0  0  0  0  0  0  0  0  0  0  0  0
   -3.1942   -0.4720    2.8744 H   0  0  0  0  0  0  0  0  0  0  0  0
   -4.9002   -2.0767    3.3861 H   0  0  0  0  0  0  0  0  0  0  0  0
   -5.5539   -3.7085    1.6327 H   0  0  0  0  0  0  0  0  0  0  0  0
   -4.4667   -3.6819   -0.6029 H   0  0  0  0  0  0  0  0  0  0  0  0
   -2.6748   -1.9637   -1.0781 H   0  0  0  0  0  0  0  0  0  0  0  0
  1  2  1  0
  2  3  1  0
  3  4  1  0
  4  5  1  0
  3  6  1  0
  6  7  1  0
  7  8  3  0
  8  9  1  0
  9 10  1  0
 10 11  1  0
 11 12  2  0
 11 13  1  0
 13 14  1  0
 13 15  1  0
 15 16  1  0
 16 17  1  0
 17 18  1  0
 18 19  1  0
 19 20  1  0
 13 21  1  0
 21 22  2  0
 22 23  1  0
 23 24  2  0
 24 25  1  0
 25 26  2  0
 20 15  1  0
 26 21  1  0
  1 27  1  0
  1 28  1  0
  1 29  1  0
  2 30  1  0
  2 31  1  0
  4 32  1  0
  4 33  1  0
  5 34  1  0
  5 35  1  0
  5 36  1  0
  6 37  1  0
  6 38  1  0
  9 39  1  0
  9 40  1  0
 14 41  1  0
 15 42  1  0
 16 43  1  0
 16 44  1  0
 17 45  1  0
 17 46  1  0
 18 47  1  0
 18 48  1  0
 19 49  1  0
 19 50  1  0
 20 51  1  0
 20 52  1  0
 22 53  1  0
 23 54  1  0
 24 55  1  0
 25 56  1  0
 26 57  1  0
M  END
$$$$
