@<TRIPOS>MOLECULE
*****
 34 36 0 0 0
SMALL
GASTEIGER

@<TRIPOS>ATOM
      1 C          -5.9177    1.0612    0.3093 C.3     1  UNL1       -0.0397
      2 C          -4.5226    0.5930    0.0365 C.ar    1  UNL1       -0.0504
      3 C          -3.7896    1.1667   -0.9685 C.ar    1  UNL1       -0.0578
      4 C          -2.4823    0.7590   -1.2567 C.ar    1  UNL1       -0.0477
      5 C          -1.8917   -0.2497   -0.5201 C.ar    1  UNL1        0.0128
      6 S          -0.2492   -0.8281   -0.8126 S.3     1  UNL1       -0.0887
      7 C           0.9734    0.0574    0.1305 C.ar    1  UNL1        0.0252
      8 C           0.7060    1.0910    1.0068 C.ar    1  UNL1       -0.0472
      9 C           1.7334    1.7127    1.6913 C.ar    1  UNL1       -0.0587
     10 C           3.0593    1.3360    1.5347 C.ar    1  UNL1       -0.0354
     11 C           3.3089    0.2982    0.6523 C.ar    1  UNL1        0.0789
     12 C           2.2888   -0.3281   -0.0353 C.ar    1  UNL1        0.0537
     13 C           2.6950   -1.3424   -0.8762 C.ar    1  UNL1        0.1301
     14 N           1.7140   -2.0468   -1.6275 N.pl3   1  UNL1       -0.3425
     15 N           3.9797   -1.7074   -1.0279 N.ar    1  UNL1       -0.1995
     16 C           4.9294   -1.0479   -0.3203 C.ar    1  UNL1        0.2148
     17 N           6.2794   -1.4960   -0.5368 N.pl3   1  UNL1       -0.3274
     18 N           4.6021   -0.0494    0.5171 N.ar    1  UNL1       -0.2145
     19 C          -2.6794   -0.8035    0.4941 C.ar    1  UNL1       -0.0477
     20 C          -3.9614   -0.4210    0.7949 C.ar    1  UNL1       -0.0578
     21 H          -5.9008    1.7237    1.2002 H       1  UNL1        0.0278
     22 H          -6.5154    0.1653    0.5604 H       1  UNL1        0.0278
     23 H          -6.2985    1.6007   -0.5763 H       1  UNL1        0.0278
     24 H          -4.1749    1.9569   -1.5880 H       1  UNL1        0.0621
     25 H          -1.8757    1.1940   -2.0467 H       1  UNL1        0.0629
     26 H          -0.3269    1.3752    1.1206 H       1  UNL1        0.0629
     27 H           1.5221    2.5192    2.3747 H       1  UNL1        0.0619
     28 H           3.8446    1.8305    2.0749 H       1  UNL1        0.0639
     29 H           1.0759   -2.8544   -1.6145 H       1  UNL1        0.1437
     30 H           1.4971   -1.6505   -2.5867 H       1  UNL1        0.1437
     31 H           6.5540   -0.7762   -1.2445 H       1  UNL1        0.1452
     32 H           6.5923   -2.3436    0.0217 H       1  UNL1        0.1452
     33 H          -2.2532   -1.6107    1.1091 H       1  UNL1        0.0629
     34 H          -4.5159   -0.8852    1.5870 H       1  UNL1        0.0621
@<TRIPOS>BOND
     1     1     2    1
     2     2     3   ar
     3     3     4   ar
     4     4     5   ar
     5     5     6    1
     6     6     7    1
     7     7     8   ar
     8     8     9   ar
     9     9    10   ar
    10    10    11   ar
    11    11    12   ar
    12    12    13   ar
    13    13    14    1
    14    13    15   ar
    15    15    16   ar
    16    16    17    1
    17    16    18   ar
    18     5    19   ar
    19    19    20   ar
    20    20     2   ar
    21    12     7   ar
    22    18    11   ar
    23     1    21    1
    24     1    22    1
    25     1    23    1
    26     3    24    1
    27     4    25    1
    28     8    26    1
    29     9    27    1
    30    10    28    1
    31    14    29    1
    32    14    30    1
    33    17    31    1
    34    17    32    1
    35    19    33    1
    36    20    34    1
