@<TRIPOS>MOLECULE
*****
 68 71 0 0 0
SMALL
GASTEIGER

@<TRIPOS>ATOM
      1 C           4.8780    5.4313   -0.2912 C.1     1  UNL1       -0.1179
      2 C           4.6241    4.5037   -1.0641 C.1     1  UNL1       -0.0902
      3 C           4.3019    3.4000   -1.9664 C.3     1  UNL1        0.0582
      4 N           3.0315    2.8303   -1.6381 N.3     1  UNL1       -0.3032
      5 C           2.6302    1.7493   -2.4695 C.3     1  UNL1        0.0245
      6 C           3.3792    0.4667   -2.3350 C.3     1  UNL1        0.0862
      7 O           4.7194    0.5887   -2.5947 O.3     1  UNL1       -0.3887
      8 C           3.0662   -0.2311   -1.0165 C.3     1  UNL1        0.0545
      9 C           3.6963   -1.6023   -1.0640 C.3     1  UNL1       -0.0067
     10 C           3.4338   -2.3694    0.1868 C.ar    1  UNL1       -0.0455
     11 C           4.2679   -2.3342    1.2698 C.ar    1  UNL1       -0.0585
     12 C           3.9980   -3.0594    2.4235 C.ar    1  UNL1       -0.0615
     13 C           2.8702   -3.8213    2.4642 C.ar    1  UNL1       -0.0617
     14 C           1.9996   -3.8896    1.4012 C.ar    1  UNL1       -0.0615
     15 C           2.3031   -3.1544    0.2726 C.ar    1  UNL1       -0.0585
     16 N           1.6239   -0.3242   -0.8404 N.am    1  UNL1       -0.3057
     17 C           0.9269    0.2721    0.2194 C.2     1  UNL1        0.2445
     18 O           1.5938    0.9293    1.0619 O.2     1  UNL1       -0.2702
     19 C          -0.5195    0.1541    0.3720 C.ar    1  UNL1        0.0405
     20 C          -1.2635   -0.6160   -0.4783 C.ar    1  UNL1       -0.0263
     21 C          -2.6439   -0.7439   -0.3418 C.ar    1  UNL1        0.0607
     22 C          -3.2584   -0.0534    0.7082 C.ar    1  UNL1        0.0257
     23 C          -4.5721   -0.0114    1.0757 C.ar    1  UNL1       -0.0187
     24 C          -4.5930    0.8496    2.2174 C.ar    1  UNL1        0.0090
     25 N          -3.3594    1.2586    2.4684 N.ar    1  UNL1       -0.3466
     26 C          -2.9157    2.1580    3.5398 C.3     1  UNL1        0.0205
     27 C          -2.9895    3.5686    2.9890 C.3     1  UNL1       -0.0471
     28 C          -2.5019    0.7372    1.5804 C.ar    1  UNL1        0.0519
     29 C          -1.1494    0.8201    1.3877 C.ar    1  UNL1       -0.0254
     30 C          -5.7851   -0.6365    0.5906 C.3     1  UNL1       -0.0045
     31 C          -5.9441   -1.0241   -0.8007 C.3     1  UNL1        0.0890
     32 S          -4.7822   -2.2012   -1.4053 S.O2    1  UNL1        0.0455
     33 O          -4.7915   -3.3989   -0.4885 O.2     1  UNL1       -0.1550
     34 O          -5.1988   -2.6721   -2.7631 O.2     1  UNL1       -0.1550
     35 N          -3.1846   -1.5689   -1.3659 N.pl3   1  UNL1       -0.2098
     36 C          -2.3291   -1.8786   -2.4697 C.3     1  UNL1        0.0232
     37 H           5.1066    6.2376    0.3629 H       1  UNL1        0.1228
     38 H           5.1648    2.6894   -1.9073 H       1  UNL1        0.0560
     39 H           4.2723    3.8290   -2.9963 H       1  UNL1        0.0560
     40 H           3.0283    2.5168   -0.6312 H       1  UNL1        0.1229
     41 H           2.7112    2.0599   -3.5540 H       1  UNL1        0.0450
     42 H           1.5397    1.5247   -2.3484 H       1  UNL1        0.0450
     43 H           2.9810   -0.2259   -3.1497 H       1  UNL1        0.0624
     44 H           5.2728    0.3351   -1.8179 H       1  UNL1        0.2099
     45 H           3.4726    0.3222   -0.1692 H       1  UNL1        0.0527
     46 H           3.3744   -2.2153   -1.9064 H       1  UNL1        0.0332
     47 H           4.7918   -1.4660   -1.1345 H       1  UNL1        0.0332
     48 H           5.1596   -1.7194    1.2132 H       1  UNL1        0.0620
     49 H           4.6514   -3.0355    3.2774 H       1  UNL1        0.0618
     50 H           2.6643   -4.3853    3.3683 H       1  UNL1        0.0618
     51 H           1.1035   -4.5019    1.4519 H       1  UNL1        0.0618
     52 H           1.6510   -3.1821   -0.5766 H       1  UNL1        0.0620
     53 H           1.1379   -0.8873   -1.5915 H       1  UNL1        0.1494
     54 H          -0.8226   -1.1719   -1.2986 H       1  UNL1        0.0644
     55 H          -5.4995    1.0924    2.7512 H       1  UNL1        0.0812
     56 H          -1.9138    1.8559    3.8428 H       1  UNL1        0.0489
     57 H          -3.6427    2.1166    4.3956 H       1  UNL1        0.0489
     58 H          -3.8188    3.5895    2.2255 H       1  UNL1        0.0247
     59 H          -3.2185    4.3044    3.7565 H       1  UNL1        0.0247
     60 H          -2.0646    3.8496    2.4395 H       1  UNL1        0.0247
     61 H          -0.5913    1.4407    2.0792 H       1  UNL1        0.0646
     62 H          -6.0863   -1.5370    1.2305 H       1  UNL1        0.0330
     63 H          -6.6383    0.0824    0.8376 H       1  UNL1        0.0330
     64 H          -6.9659   -1.4950   -0.9265 H       1  UNL1        0.0522
     65 H          -5.9417   -0.1517   -1.4820 H       1  UNL1        0.0522
     66 H          -2.9588   -2.3055   -3.3251 H       1  UNL1        0.0446
     67 H          -1.6086   -2.7088   -2.2914 H       1  UNL1        0.0446
     68 H          -1.8743   -0.9840   -2.9611 H       1  UNL1        0.0446
@<TRIPOS>BOND
     1     1     2    3
     2     2     3    1
     3     3     4    1
     4     4     5    1
     5     5     6    1
     6     6     7    1
     7     6     8    1
     8     8     9    1
     9     9    10    1
    10    10    11   ar
    11    11    12   ar
    12    12    13   ar
    13    13    14   ar
    14    14    15   ar
    15     8    16    1
    16    16    17   am
    17    17    18    2
    18    17    19    1
    19    19    20   ar
    20    20    21   ar
    21    21    22   ar
    22    22    23   ar
    23    23    24   ar
    24    24    25   ar
    25    25    26    1
    26    26    27    1
    27    25    28   ar
    28    28    29   ar
    29    23    30    1
    30    30    31    1
    31    31    32    1
    32    32    33    2
    33    32    34    2
    34    32    35    1
    35    35    36    1
    36    15    10   ar
    37    29    19   ar
    38    35    21    1
    39    28    22   ar
    40     1    37    1
    41     3    38    1
    42     3    39    1
    43     4    40    1
    44     5    41    1
    45     5    42    1
    46     6    43    1
    47     7    44    1
    48     8    45    1
    49     9    46    1
    50     9    47    1
    51    11    48    1
    52    12    49    1
    53    13    50    1
    54    14    51    1
    55    15    52    1
    56    16    53    1
    57    20    54    1
    58    24    55    1
    59    26    56    1
    60    26    57    1
    61    27    58    1
    62    27    59    1
    63    27    60    1
    64    29    61    1
    65    30    62    1
    66    30    63    1
    67    31    64    1
    68    31    65    1
    69    36    66    1
    70    36    67    1
    71    36    68    1
