@<TRIPOS>MOLECULE
*****
 63 67 0 0 0
SMALL
GASTEIGER

@<TRIPOS>ATOM
      1 N           2.6105   -0.9584    4.9577 N.1     1  UNL1       -0.1908
      2 C           1.8526   -1.3633    4.1839 C.1     1  UNL1        0.1026
      3 C           0.9013   -1.8463    3.2191 C.ar    1  UNL1        0.0915
      4 C           0.4845   -3.1581    3.1967 C.ar    1  UNL1        0.0475
      5 N          -0.4247   -3.5874    2.2741 N.ar    1  UNL1       -0.2521
      6 C          -0.9386   -2.7436    1.3618 C.ar    1  UNL1        0.0910
      7 C          -1.8700   -3.1729    0.4082 C.ar    1  UNL1        0.0556
      8 N          -2.3793   -2.3214   -0.5063 N.ar    1  UNL1       -0.2384
      9 C          -2.0170   -1.0294   -0.5425 C.ar    1  UNL1        0.1195
     10 N          -2.5907   -0.1901   -1.5322 N.pl3   1  UNL1       -0.3278
     11 C          -3.5653   -0.6336   -2.4812 C.3     1  UNL1        0.0232
     12 C          -4.8546   -1.1013   -1.8481 C.3     1  UNL1        0.0146
     13 N          -5.4990   -0.0626   -1.0848 N.3     1  UNL1       -0.2965
     14 C          -6.0143    1.0120   -1.8825 C.3     1  UNL1        0.0225
     15 C          -7.2519    0.6364   -2.6462 C.3     1  UNL1        0.0604
     16 O          -8.2304    0.2678   -1.7068 O.3     1  UNL1       -0.3772
     17 C          -7.7844   -0.9431   -1.1582 C.3     1  UNL1        0.0604
     18 C          -6.5635   -0.6211   -0.3126 C.3     1  UNL1        0.0225
     19 C          -1.0950   -0.5678    0.3891 C.ar    1  UNL1       -0.0109
     20 C          -0.5569   -1.4185    1.3375 C.ar    1  UNL1        0.0275
     21 C           0.3580   -0.9893    2.2675 C.ar    1  UNL1        0.0598
     22 N           0.7999    0.3493    2.3098 N.pl3   1  UNL1       -0.3129
     23 C           1.8674    0.8059    1.4879 C.ar    1  UNL1        0.0314
     24 C           2.4492    2.0616    1.6906 C.ar    1  UNL1       -0.0403
     25 C           3.4785    2.5260    0.8967 C.ar    1  UNL1       -0.0565
     26 C           3.9766    1.7639   -0.1364 C.ar    1  UNL1       -0.0429
     27 C           5.0934    2.2946   -0.9763 C.3     1  UNL1       -0.0024
     28 C           6.4045    1.8308   -0.5525 C.ar    1  UNL1       -0.0431
     29 C           7.1415    2.5395    0.3596 C.ar    1  UNL1       -0.0583
     30 C           8.4060    2.0957    0.7679 C.ar    1  UNL1       -0.0615
     31 C           8.9044    0.9084    0.2231 C.ar    1  UNL1       -0.0617
     32 C           8.1734    0.1876   -0.6937 C.ar    1  UNL1       -0.0615
     33 C           6.9294    0.6691   -1.0640 C.ar    1  UNL1       -0.0583
     34 C           3.4159    0.5299   -0.3479 C.ar    1  UNL1       -0.0565
     35 C           2.3857    0.0627    0.4461 C.ar    1  UNL1       -0.0403
     36 H           0.9101   -3.8181    3.9399 H       1  UNL1        0.0843
     37 H          -2.1415   -4.2105    0.4593 H       1  UNL1        0.0852
     38 H          -2.2752    0.8049   -1.5592 H       1  UNL1        0.1475
     39 H          -3.1276   -1.5579   -2.9673 H       1  UNL1        0.0474
     40 H          -3.7406    0.0706   -3.3008 H       1  UNL1        0.0474
     41 H          -4.6164   -1.9316   -1.1701 H       1  UNL1        0.0442
     42 H          -5.4989   -1.4977   -2.6572 H       1  UNL1        0.0442
     43 H          -6.3259    1.8205   -1.1591 H       1  UNL1        0.0449
     44 H          -5.2492    1.4916   -2.5231 H       1  UNL1        0.0449
     45 H          -7.5674    1.5330   -3.2308 H       1  UNL1        0.0572
     46 H          -7.0726   -0.2560   -3.2896 H       1  UNL1        0.0572
     47 H          -8.5360   -1.3959   -0.4691 H       1  UNL1        0.0572
     48 H          -7.5102   -1.6065   -1.9885 H       1  UNL1        0.0572
     49 H          -6.2629   -1.5670    0.1786 H       1  UNL1        0.0449
     50 H          -6.8572    0.0808    0.4829 H       1  UNL1        0.0449
     51 H          -0.7888    0.4491    0.3846 H       1  UNL1        0.0659
     52 H           0.3614    1.0722    2.9503 H       1  UNL1        0.1522
     53 H           2.0439    2.6606    2.5171 H       1  UNL1        0.0636
     54 H           3.8885    3.5056    1.1028 H       1  UNL1        0.0621
     55 H           5.1047    3.4223   -0.8958 H       1  UNL1        0.0361
     56 H           4.8309    2.0858   -2.0274 H       1  UNL1        0.0361
     57 H           6.8072    3.4667    0.8146 H       1  UNL1        0.0620
     58 H           9.0070    2.6277    1.4833 H       1  UNL1        0.0618
     59 H           9.8955    0.5787    0.5547 H       1  UNL1        0.0618
     60 H           8.5574   -0.7375   -1.1191 H       1  UNL1        0.0618
     61 H           6.3909    0.0509   -1.7962 H       1  UNL1        0.0620
     62 H           3.8171   -0.0622   -1.1671 H       1  UNL1        0.0621
     63 H           1.9585   -0.9133    0.2627 H       1  UNL1        0.0636
@<TRIPOS>BOND
     1     1     2    3
     2     2     3    1
     3     3     4   ar
     4     4     5   ar
     5     5     6   ar
     6     6     7   ar
     7     7     8   ar
     8     8     9   ar
     9     9    10    1
    10    10    11    1
    11    11    12    1
    12    12    13    1
    13    13    14    1
    14    14    15    1
    15    15    16    1
    16    16    17    1
    17    17    18    1
    18     9    19   ar
    19    19    20   ar
    20    20    21   ar
    21    21    22    1
    22    22    23    1
    23    23    24   ar
    24    24    25   ar
    25    25    26   ar
    26    26    27    1
    27    27    28    1
    28    28    29   ar
    29    29    30   ar
    30    30    31   ar
    31    31    32   ar
    32    32    33   ar
    33    26    34   ar
    34    34    35   ar
    35    21     3   ar
    36    35    23   ar
    37    20     6   ar
    38    33    28   ar
    39    18    13    1
    40     4    36    1
    41     7    37    1
    42    10    38    1
    43    11    39    1
    44    11    40    1
    45    12    41    1
    46    12    42    1
    47    14    43    1
    48    14    44    1
    49    15    45    1
    50    15    46    1
    51    17    47    1
    52    17    48    1
    53    18    49    1
    54    18    50    1
    55    19    51    1
    56    22    52    1
    57    24    53    1
    58    25    54    1
    59    27    55    1
    60    27    56    1
    61    29    57    1
    62    30    58    1
    63    31    59    1
    64    32    60    1
    65    33    61    1
    66    34    62    1
    67    35    63    1
