
     RDKit          3D

 63 67  0  0  0  0  0  0  0  0999 V2000
    2.6105   -0.9584    4.9577 N   0  0  0  0  0  0  0  0  0  0  0  0
    1.8526   -1.3633    4.1839 C   0  0  0  0  0  0  0  0  0  0  0  0
    0.9013   -1.8463    3.2191 C   0  0  0  0  0  0  0  0  0  0  0  0
    0.4845   -3.1581    3.1967 C   0  0  0  0  0  0  0  0  0  0  0  0
   -0.4247   -3.5874    2.2741 N   0  0  0  0  0  0  0  0  0  0  0  0
   -0.9386   -2.7436    1.3618 C   0  0  0  0  0  0  0  0  0  0  0  0
   -1.8700   -3.1729    0.4082 C   0  0  0  0  0  0  0  0  0  0  0  0
   -2.3793   -2.3214   -0.5063 N   0  0  0  0  0  0  0  0  0  0  0  0
   -2.0170   -1.0294   -0.5425 C   0  0  0  0  0  0  0  0  0  0  0  0
   -2.5907   -0.1901   -1.5322 N   0  0  0  0  0  0  0  0  0  0  0  0
   -3.5653   -0.6336   -2.4812 C   0  0  0  0  0  0  0  0  0  0  0  0
   -4.8546   -1.1013   -1.8481 C   0  0  0  0  0  0  0  0  0  0  0  0
   -5.4990   -0.0626   -1.0848 N   0  0  0  0  0  0  0  0  0  0  0  0
   -6.0143    1.0120   -1.8825 C   0  0  0  0  0  0  0  0  0  0  0  0
   -7.2519    0.6364   -2.6462 C   0  0  0  0  0  0  0  0  0  0  0  0
   -8.2304    0.2678   -1.7068 O   0  0  0  0  0  0  0  0  0  0  0  0
   -7.7844   -0.9431   -1.1582 C   0  0  0  0  0  0  0  0  0  0  0  0
   -6.5635   -0.6211   -0.3126 C   0  0  0  0  0  0  0  0  0  0  0  0
   -1.0950   -0.5678    0.3891 C   0  0  0  0  0  0  0  0  0  0  0  0
   -0.5569   -1.4185    1.3375 C   0  0  0  0  0  0  0  0  0  0  0  0
    0.3580   -0.9893    2.2675 C   0  0  0  0  0  0  0  0  0  0  0  0
    0.7999    0.3493    2.3098 N   0  0  0  0  0  0  0  0  0  0  0  0
    1.8674    0.8059    1.4879 C   0  0  0  0  0  0  0  0  0  0  0  0
    2.4492    2.0616    1.6906 C   0  0  0  0  0  0  0  0  0  0  0  0
    3.4785    2.5260    0.8967 C   0  0  0  0  0  0  0  0  0  0  0  0
    3.9766    1.7639   -0.1364 C   0  0  0  0  0  0  0  0  0  0  0  0
    5.0934    2.2946   -0.9763 C   0  0  0  0  0  0  0  0  0  0  0  0
    6.4045    1.8308   -0.5525 C   0  0  0  0  0  0  0  0  0  0  0  0
    7.1415    2.5395    0.3596 C   0  0  0  0  0  0  0  0  0  0  0  0
    8.4060    2.0957    0.7679 C   0  0  0  0  0  0  0  0  0  0  0  0
    8.9044    0.9084    0.2231 C   0  0  0  0  0  0  0  0  0  0  0  0
    8.1734    0.1876   -0.6937 C   0  0  0  0  0  0  0  0  0  0  0  0
    6.9294    0.6691   -1.0640 C   0  0  0  0  0  0  0  0  0  0  0  0
    3.4159    0.5299   -0.3479 C   0  0  0  0  0  0  0  0  0  0  0  0
    2.3857    0.0627    0.4461 C   0  0  0  0  0  0  0  0  0  0  0  0
    0.9101   -3.8181    3.9399 H   0  0  0  0  0  0  0  0  0  0  0  0
   -2.1415   -4.2105    0.4593 H   0  0  0  0  0  0  0  0  0  0  0  0
   -2.2752    0.8049   -1.5592 H   0  0  0  0  0  0  0  0  0  0  0  0
   -3.1276   -1.5579   -2.9673 H   0  0  0  0  0  0  0  0  0  0  0  0
   -3.7406    0.0706   -3.3008 H   0  0  0  0  0  0  0  0  0  0  0  0
   -4.6164   -1.9316   -1.1701 H   0  0  0  0  0  0  0  0  0  0  0  0
   -5.4989   -1.4977   -2.6572 H   0  0  0  0  0  0  0  0  0  0  0  0
   -6.3259    1.8205   -1.1591 H   0  0  0  0  0  0  0  0  0  0  0  0
   -5.2492    1.4916   -2.5231 H   0  0  0  0  0  0  0  0  0  0  0  0
   -7.5674    1.5330   -3.2308 H   0  0  0  0  0  0  0  0  0  0  0  0
   -7.0726   -0.2560   -3.2896 H   0  0  0  0  0  0  0  0  0  0  0  0
   -8.5360   -1.3959   -0.4691 H   0  0  0  0  0  0  0  0  0  0  0  0
   -7.5102   -1.6065   -1.9885 H   0  0  0  0  0  0  0  0  0  0  0  0
   -6.2629   -1.5670    0.1786 H   0  0  0  0  0  0  0  0  0  0  0  0
   -6.8572    0.0808    0.4829 H   0  0  0  0  0  0  0  0  0  0  0  0
   -0.7888    0.4491    0.3846 H   0  0  0  0  0  0  0  0  0  0  0  0
    0.3614    1.0722    2.9503 H   0  0  0  0  0  0  0  0  0  0  0  0
    2.0439    2.6606    2.5171 H   0  0  0  0  0  0  0  0  0  0  0  0
    3.8885    3.5056    1.1028 H   0  0  0  0  0  0  0  0  0  0  0  0
    5.1047    3.4223   -0.8958 H   0  0  0  0  0  0  0  0  0  0  0  0
    4.8309    2.0858   -2.0274 H   0  0  0  0  0  0  0  0  0  0  0  0
    6.8072    3.4667    0.8146 H   0  0  0  0  0  0  0  0  0  0  0  0
    9.0070    2.6277    1.4833 H   0  0  0  0  0  0  0  0  0  0  0  0
    9.8955    0.5787    0.5547 H   0  0  0  0  0  0  0  0  0  0  0  0
    8.5574   -0.7375   -1.1191 H   0  0  0  0  0  0  0  0  0  0  0  0
    6.3909    0.0509   -1.7962 H   0  0  0  0  0  0  0  0  0  0  0  0
    3.8171   -0.0622   -1.1671 H   0  0  0  0  0  0  0  0  0  0  0  0
    1.9585   -0.9133    0.2627 H   0  0  0  0  0  0  0  0  0  0  0  0
  1  2  3  0
  2  3  1  0
  3  4  2  0
  4  5  1  0
  5  6  2  0
  6  7  1  0
  7  8  2  0
  8  9  1  0
  9 10  1  0
 10 11  1  0
 11 12  1  0
 12 13  1  0
 13 14  1  0
 14 15  1  0
 15 16  1  0
 16 17  1  0
 17 18  1  0
  9 19  2  0
 19 20  1  0
 20 21  2  0
 21 22  1  0
 22 23  1  0
 23 24  2  0
 24 25  1  0
 25 26  2  0
 26 27  1  0
 27 28  1  0
 28 29  2  0
 29 30  1  0
 30 31  2  0
 31 32  1  0
 32 33  2  0
 26 34  1  0
 34 35  2  0
 21  3  1  0
 35 23  1  0
 20  6  1  0
 33 28  1  0
 18 13  1  0
  4 36  1  0
  7 37  1  0
 10 38  1  0
 11 39  1  0
 11 40  1  0
 12 41  1  0
 12 42  1  0
 14 43  1  0
 14 44  1  0
 15 45  1  0
 15 46  1  0
 17 47  1  0
 17 48  1  0
 18 49  1  0
 18 50  1  0
 19 51  1  0
 22 52  1  0
 24 53  1  0
 25 54  1  0
 27 55  1  0
 27 56  1  0
 29 57  1  0
 30 58  1  0
 31 59  1  0
 32 60  1  0
 33 61  1  0
 34 62  1  0
 35 63  1  0
M  END
$$$$
