@<TRIPOS>MOLECULE
*****
 57 60 0 0 0
SMALL
GASTEIGER

@<TRIPOS>ATOM
      1 C           0.8169    0.8595    0.0296 C.3     1  UNL1       -0.0292
      2 C           1.5876    2.1232    0.0097 C.3     1  UNL1       -0.0463
      3 C           2.9591    1.6142    0.4766 C.3     1  UNL1       -0.0162
      4 C           2.9225    0.1061    0.3194 C.3     1  UNL1        0.1315
      5 O           2.6376   -0.4369    1.5552 O.3     1  UNL1       -0.3804
      6 C           4.2043   -0.3503   -0.2579 C.2     1  UNL1        0.1902
      7 O           4.8659   -0.1594   -1.2886 O.2     1  UNL1       -0.2919
      8 C           5.0324   -1.3240    0.5361 C.3     1  UNL1        0.1052
      9 O           6.1904   -1.6194   -0.1863 O.3     1  UNL1       -0.3874
     10 C           1.7595   -0.0880   -0.6319 C.3     1  UNL1        0.0091
     11 C           2.1851    0.3178   -2.0018 C.3     1  UNL1       -0.0562
     12 C           1.1949   -1.4707   -0.5915 C.3     1  UNL1       -0.0178
     13 C          -0.2362   -1.5130   -1.0678 C.3     1  UNL1        0.0600
     14 O          -0.3882   -1.4550   -2.4290 O.3     1  UNL1       -0.3914
     15 C          -1.0470   -0.5470   -0.2800 C.3     1  UNL1        0.0007
     16 C          -0.5749    0.8798   -0.4942 C.3     1  UNL1       -0.0308
     17 C          -1.3540    1.8978    0.2196 C.3     1  UNL1       -0.0432
     18 C          -2.7196    1.5947    0.6673 C.3     1  UNL1       -0.0212
     19 C          -3.0023    2.0912    2.0712 C.3     1  UNL1       -0.0587
     20 C          -3.1081    0.1668    0.6072 C.2     1  UNL1       -0.0531
     21 C          -3.9348   -0.3442    1.5079 C.2     1  UNL1       -0.0146
     22 C          -4.3136   -1.7507    1.4433 C.2     1  UNL1        0.1787
     23 O          -5.1002   -2.1865    2.3207 O.2     1  UNL1       -0.2879
     24 C          -3.7922   -2.6051    0.3964 C.2     1  UNL1       -0.0180
     25 C          -2.9807   -2.0431   -0.4631 C.2     1  UNL1       -0.0701
     26 C          -2.5246   -0.6399   -0.5037 C.3     1  UNL1        0.0133
     27 C          -3.0080   -0.0402   -1.7888 C.3     1  UNL1       -0.0520
     28 H           0.7449    0.5356    1.1061 H       1  UNL1        0.0310
     29 H           1.1553    2.8246    0.7335 H       1  UNL1        0.0269
     30 H           1.6406    2.6252   -0.9584 H       1  UNL1        0.0269
     31 H           3.7901    2.0903   -0.0529 H       1  UNL1        0.0297
     32 H           3.0489    1.9034    1.5644 H       1  UNL1        0.0297
     33 H           2.8138   -1.3957    1.6513 H       1  UNL1        0.2108
     34 H           4.4302   -2.2503    0.6551 H       1  UNL1        0.0637
     35 H           5.2613   -0.9667    1.5423 H       1  UNL1        0.0637
     36 H           6.9166   -0.9511   -0.0031 H       1  UNL1        0.2100
     37 H           2.8974    1.1667   -1.9813 H       1  UNL1        0.0236
     38 H           1.3624    0.5898   -2.6871 H       1  UNL1        0.0236
     39 H           2.7376   -0.5179   -2.4655 H       1  UNL1        0.0236
     40 H           1.8373   -2.1703   -1.1986 H       1  UNL1        0.0297
     41 H           1.2244   -1.8761    0.4305 H       1  UNL1        0.0297
     42 H          -0.5953   -2.5438   -0.7723 H       1  UNL1        0.0596
     43 H          -0.7035   -0.6253   -2.8127 H       1  UNL1        0.2098
     44 H          -0.8614   -0.7664    0.7944 H       1  UNL1        0.0340
     45 H          -0.5081    1.0307   -1.6007 H       1  UNL1        0.0308
     46 H          -1.4004    2.8032   -0.4571 H       1  UNL1        0.0274
     47 H          -0.7919    2.3075    1.1110 H       1  UNL1        0.0274
     48 H          -3.4921    2.1165    0.0286 H       1  UNL1        0.0343
     49 H          -2.6091    1.3339    2.7805 H       1  UNL1        0.0235
     50 H          -4.0922    2.2960    2.1989 H       1  UNL1        0.0235
     51 H          -2.4203    3.0345    2.2882 H       1  UNL1        0.0235
     52 H          -4.3399    0.2717    2.3018 H       1  UNL1        0.0656
     53 H          -4.0792   -3.6383    0.3607 H       1  UNL1        0.0653
     54 H          -2.5761   -2.6704   -1.2611 H       1  UNL1        0.0582
     55 H          -3.0947   -0.7912   -2.6178 H       1  UNL1        0.0241
     56 H          -4.0763    0.2816   -1.6222 H       1  UNL1        0.0241
     57 H          -2.4925    0.8748   -2.1068 H       1  UNL1        0.0241
@<TRIPOS>BOND
     1     1     2    1
     2     2     3    1
     3     3     4    1
     4     4     5    1
     5     4     6    1
     6     6     7    2
     7     6     8    1
     8     8     9    1
     9     4    10    1
    10    10    11    1
    11    10    12    1
    12    12    13    1
    13    13    14    1
    14    13    15    1
    15    15    16    1
    16    16    17    1
    17    17    18    1
    18    18    19    1
    19    18    20    1
    20    20    21    2
    21    21    22    1
    22    22    23    2
    23    22    24    1
    24    24    25    2
    25    25    26    1
    26    26    27    1
    27    10     1    1
    28    26    15    1
    29    16     1    1
    30    26    20    1
    31     1    28    1
    32     2    29    1
    33     2    30    1
    34     3    31    1
    35     3    32    1
    36     5    33    1
    37     8    34    1
    38     8    35    1
    39     9    36    1
    40    11    37    1
    41    11    38    1
    42    11    39    1
    43    12    40    1
    44    12    41    1
    45    13    42    1
    46    14    43    1
    47    15    44    1
    48    16    45    1
    49    17    46    1
    50    17    47    1
    51    18    48    1
    52    19    49    1
    53    19    50    1
    54    19    51    1
    55    21    52    1
    56    24    53    1
    57    25    54    1
    58    27    55    1
    59    27    56    1
    60    27    57    1
