
     RDKit          3D

 57 60  0  0  0  0  0  0  0  0999 V2000
    0.8169    0.8595    0.0296 C   0  0  2  0  0  0  0  0  0  0  0  0
    1.5876    2.1232    0.0097 C   0  0  0  0  0  0  0  0  0  0  0  0
    2.9591    1.6142    0.4766 C   0  0  0  0  0  0  0  0  0  0  0  0
    2.9225    0.1061    0.3194 C   0  0  2  0  0  0  0  0  0  0  0  0
    2.6376   -0.4369    1.5552 O   0  0  0  0  0  0  0  0  0  0  0  0
    4.2043   -0.3503   -0.2579 C   0  0  0  0  0  0  0  0  0  0  0  0
    4.8659   -0.1594   -1.2886 O   0  0  0  0  0  0  0  0  0  0  0  0
    5.0324   -1.3240    0.5361 C   0  0  0  0  0  0  0  0  0  0  0  0
    6.1904   -1.6194   -0.1863 O   0  0  0  0  0  0  0  0  0  0  0  0
    1.7595   -0.0880   -0.6319 C   0  0  2  0  0  0  0  0  0  0  0  0
    2.1851    0.3178   -2.0018 C   0  0  0  0  0  0  0  0  0  0  0  0
    1.1949   -1.4707   -0.5915 C   0  0  0  0  0  0  0  0  0  0  0  0
   -0.2362   -1.5130   -1.0678 C   0  0  2  0  0  0  0  0  0  0  0  0
   -0.3882   -1.4550   -2.4290 O   0  0  0  0  0  0  0  0  0  0  0  0
   -1.0470   -0.5470   -0.2800 C   0  0  1  0  0  0  0  0  0  0  0  0
   -0.5749    0.8798   -0.4942 C   0  0  1  0  0  0  0  0  0  0  0  0
   -1.3540    1.8978    0.2196 C   0  0  0  0  0  0  0  0  0  0  0  0
   -2.7196    1.5947    0.6673 C   0  0  2  0  0  0  0  0  0  0  0  0
   -3.0023    2.0912    2.0712 C   0  0  0  0  0  0  0  0  0  0  0  0
   -3.1081    0.1668    0.6072 C   0  0  0  0  0  0  0  0  0  0  0  0
   -3.9348   -0.3442    1.5079 C   0  0  0  0  0  0  0  0  0  0  0  0
   -4.3136   -1.7507    1.4433 C   0  0  0  0  0  0  0  0  0  0  0  0
   -5.1002   -2.1865    2.3207 O   0  0  0  0  0  0  0  0  0  0  0  0
   -3.7922   -2.6051    0.3964 C   0  0  0  0  0  0  0  0  0  0  0  0
   -2.9807   -2.0431   -0.4631 C   0  0  0  0  0  0  0  0  0  0  0  0
   -2.5246   -0.6399   -0.5037 C   0  0  2  0  0  0  0  0  0  0  0  0
   -3.0080   -0.0402   -1.7888 C   0  0  0  0  0  0  0  0  0  0  0  0
    0.7449    0.5356    1.1061 H   0  0  0  0  0  0  0  0  0  0  0  0
    1.1553    2.8246    0.7335 H   0  0  0  0  0  0  0  0  0  0  0  0
    1.6406    2.6252   -0.9584 H   0  0  0  0  0  0  0  0  0  0  0  0
    3.7901    2.0903   -0.0529 H   0  0  0  0  0  0  0  0  0  0  0  0
    3.0489    1.9034    1.5644 H   0  0  0  0  0  0  0  0  0  0  0  0
    2.8138   -1.3957    1.6513 H   0  0  0  0  0  0  0  0  0  0  0  0
    4.4302   -2.2503    0.6551 H   0  0  0  0  0  0  0  0  0  0  0  0
    5.2613   -0.9667    1.5423 H   0  0  0  0  0  0  0  0  0  0  0  0
    6.9166   -0.9511   -0.0031 H   0  0  0  0  0  0  0  0  0  0  0  0
    2.8974    1.1667   -1.9813 H   0  0  0  0  0  0  0  0  0  0  0  0
    1.3624    0.5898   -2.6871 H   0  0  0  0  0  0  0  0  0  0  0  0
    2.7376   -0.5179   -2.4655 H   0  0  0  0  0  0  0  0  0  0  0  0
    1.8373   -2.1703   -1.1986 H   0  0  0  0  0  0  0  0  0  0  0  0
    1.2244   -1.8761    0.4305 H   0  0  0  0  0  0  0  0  0  0  0  0
   -0.5953   -2.5438   -0.7723 H   0  0  0  0  0  0  0  0  0  0  0  0
   -0.7035   -0.6253   -2.8127 H   0  0  0  0  0  0  0  0  0  0  0  0
   -0.8614   -0.7664    0.7944 H   0  0  0  0  0  0  0  0  0  0  0  0
   -0.5081    1.0307   -1.6007 H   0  0  0  0  0  0  0  0  0  0  0  0
   -1.4004    2.8032   -0.4571 H   0  0  0  0  0  0  0  0  0  0  0  0
   -0.7919    2.3075    1.1110 H   0  0  0  0  0  0  0  0  0  0  0  0
   -3.4921    2.1165    0.0286 H   0  0  0  0  0  0  0  0  0  0  0  0
   -2.6091    1.3339    2.7805 H   0  0  0  0  0  0  0  0  0  0  0  0
   -4.0922    2.2960    2.1989 H   0  0  0  0  0  0  0  0  0  0  0  0
   -2.4203    3.0345    2.2882 H   0  0  0  0  0  0  0  0  0  0  0  0
   -4.3399    0.2717    2.3018 H   0  0  0  0  0  0  0  0  0  0  0  0
   -4.0792   -3.6383    0.3607 H   0  0  0  0  0  0  0  0  0  0  0  0
   -2.5761   -2.6704   -1.2611 H   0  0  0  0  0  0  0  0  0  0  0  0
   -3.0947   -0.7912   -2.6178 H   0  0  0  0  0  0  0  0  0  0  0  0
   -4.0763    0.2816   -1.6222 H   0  0  0  0  0  0  0  0  0  0  0  0
   -2.4925    0.8748   -2.1068 H   0  0  0  0  0  0  0  0  0  0  0  0
  1  2  1  0
  2  3  1  0
  3  4  1  0
  4  5  1  1
  4  6  1  0
  6  7  2  0
  6  8  1  0
  8  9  1  0
  4 10  1  0
 10 11  1  6
 10 12  1  0
 12 13  1  0
 13 14  1  0
 13 15  1  0
 15 16  1  0
 16 17  1  0
 17 18  1  0
 18 19  1  0
 18 20  1  0
 20 21  2  0
 21 22  1  0
 22 23  2  0
 22 24  1  0
 24 25  2  0
 25 26  1  0
 26 27  1  6
 10  1  1  0
 26 15  1  0
 16  1  1  0
 26 20  1  0
  1 28  1  1
  2 29  1  0
  2 30  1  0
  3 31  1  0
  3 32  1  0
  5 33  1  0
  8 34  1  0
  8 35  1  0
  9 36  1  0
 11 37  1  0
 11 38  1  0
 11 39  1  0
 12 40  1  0
 12 41  1  0
 13 42  1  1
 14 43  1  0
 15 44  1  1
 16 45  1  6
 17 46  1  0
 17 47  1  0
 18 48  1  6
 19 49  1  0
 19 50  1  0
 19 51  1  0
 21 52  1  0
 24 53  1  0
 25 54  1  0
 27 55  1  0
 27 56  1  0
 27 57  1  0
M  END
$$$$
