
     RDKit          3D

142149  0  0  0  0  0  0  0  0999 V2000
  -10.7261   -0.6213    0.8215 C   0  0  0  0  0  0  0  0  0  0  0  0
   -9.5616   -1.5621    0.8394 C   0  0  0  0  0  0  0  0  0  0  0  0
   -8.2563   -1.2093    1.0471 C   0  0  0  0  0  0  0  0  0  0  0  0
   -7.6076    0.0679    1.2214 C   0  0  0  0  0  0  0  0  0  0  0  0
   -6.4526    0.1311    1.7788 O   0  0  0  0  0  0  0  0  0  0  0  0
   -8.1157    1.3373    0.8233 N   0  0  0  0  0  0  0  0  0  0  0  0
   -7.3899    2.5580    1.0397 C   0  0  0  0  0  0  0  0  0  0  0  0
   -8.1499    3.7332    0.4974 C   0  0  0  0  0  0  0  0  0  0  0  0
   -9.4538    3.8636    1.1991 C   0  0  0  0  0  0  0  0  0  0  0  0
  -10.2346    4.9873    0.7565 N   0  0  0  0  0  0  0  0  0  0  0  0
  -10.7511    4.8973   -0.5695 C   0  0  0  0  0  0  0  0  0  0  0  0
  -12.2142    4.4388   -0.4013 C   0  0  0  0  0  0  0  0  0  0  0  0
  -12.9603    5.5123    0.1989 N   0  0  0  0  0  0  0  0  0  0  0  0
  -13.9535    4.9358    1.1113 C   0  0  0  0  0  0  0  0  0  0  0  0
  -12.1284    6.4095    0.9718 C   0  0  0  0  0  0  0  0  0  0  0  0
  -11.0846    5.5919    1.7149 C   0  0  0  0  0  0  0  0  0  0  0  0
   -7.5351   -2.4269    0.9908 C   0  0  0  0  0  0  0  0  0  0  0  0
   -6.0988   -2.4714    1.1535 C   0  0  0  0  0  0  0  0  0  0  0  0
   -5.4355   -3.1000    2.1672 C   0  0  0  0  0  0  0  0  0  0  0  0
   -4.0410   -3.0696    2.3018 C   0  0  0  0  0  0  0  0  0  0  0  0
   -3.2879   -2.3738    1.3694 C   0  0  0  0  0  0  0  0  0  0  0  0
   -3.9246   -1.7301    0.3346 C   0  0  0  0  0  0  0  0  0  0  0  0
   -3.1943   -0.9699   -0.6145 N   0  0  0  0  0  0  0  0  0  0  0  0
   -3.1007   -1.3603   -1.9920 C   0  0  0  0  0  0  0  0  0  0  0  0
   -1.8342   -0.8337   -2.6382 C   0  0  0  0  0  0  0  0  0  0  0  0
   -0.8106   -0.5195   -1.6953 N   0  0  0  0  0  0  0  0  0  0  0  0
    0.5244   -0.9391   -1.8710 C   0  0  0  0  0  0  0  0  0  0  0  0
    0.9621   -1.8442   -2.8129 C   0  0  0  0  0  0  0  0  0  0  0  0
    2.3138   -2.1910   -2.9166 C   0  0  0  0  0  0  0  0  0  0  0  0
    3.2784   -1.6647   -2.1043 C   0  0  0  0  0  0  0  0  0  0  0  0
    4.6879   -1.9971   -2.1908 C   0  0  0  0  0  0  0  0  0  0  0  0
    5.5179   -1.4626   -1.4279 O   0  0  0  0  0  0  0  0  0  0  0  0
    5.1610   -2.9392   -3.1450 N   0  0  0  0  0  0  0  0  0  0  0  0
    6.8550   -3.2905   -3.2003 S   0  0  0  0  0  6  0  0  0  0  0  0
    7.0172   -4.7441   -2.8590 O   0  0  0  0  0  0  0  0  0  0  0  0
    7.3176   -2.9856   -4.6058 O   0  0  0  0  0  0  0  0  0  0  0  0
    7.7545   -2.3536   -2.0147 C   0  0  0  0  0  0  0  0  0  0  0  0
    8.2623   -1.1148   -2.3125 C   0  0  0  0  0  0  0  0  0  0  0  0
    8.9909   -0.3661   -1.3831 C   0  0  0  0  0  0  0  0  0  0  0  0
    9.2331   -0.8578   -0.1040 C   0  0  0  0  0  0  0  0  0  0  0  0
    9.9767   -0.1001    0.8293 N   0  0  0  0  0  0  0  0  0  0  0  0
   10.5853    1.2110    0.5349 C   0  0  2  0  0  0  0  0  0  0  0  0
   11.8112    0.9695   -0.3170 C   0  0  0  0  0  0  0  0  0  0  0  0
   12.8188    0.0949    0.4141 C   0  0  0  0  0  0  0  0  0  0  0  0
   13.9686   -0.1614   -0.4210 N   0  0  0  0  0  0  0  0  0  0  0  0
   14.9071   -1.0110    0.2402 C   0  0  0  0  0  0  0  0  0  0  0  0
   14.6200    1.0158   -0.9061 C   0  0  0  0  0  0  0  0  0  0  0  0
   10.8020    1.9108    1.8180 C   0  0  0  0  0  0  0  0  0  0  0  0
   11.4530    3.5249    1.7446 S   0  0  0  0  0  0  0  0  0  0  0  0
   13.1014    3.7942    1.2434 C   0  0  0  0  0  0  0  0  0  0  0  0
   14.1321    3.6135    2.1770 C   0  0  0  0  0  0  0  0  0  0  0  0
   15.4136    3.8848    1.8300 C   0  0  0  0  0  0  0  0  0  0  0  0
   15.7801    4.3417    0.5700 C   0  0  0  0  0  0  0  0  0  0  0  0
   14.7769    4.5220   -0.3540 C   0  0  0  0  0  0  0  0  0  0  0  0
   13.4752    4.2525   -0.0166 C   0  0  0  0  0  0  0  0  0  0  0  0
    8.7252   -2.0943    0.2013 C   0  0  0  0  0  0  0  0  0  0  0  0
    8.8985   -2.7011    1.4597 N   0  0  0  0  0  4  0  0  0  0  0  0
    8.9355   -3.9807    1.4704 O   0  0  0  0  0  0  0  0  0  0  0  0
    9.0427   -2.1078    2.6655 O   0  0  0  0  0  1  0  0  0  0  0  0
    7.9923   -2.8314   -0.7545 C   0  0  0  0  0  0  0  0  0  0  0  0
    2.8543   -0.7473   -1.1460 C   0  0  0  0  0  0  0  0  0  0  0  0
    1.5279   -0.4083   -1.0450 C   0  0  0  0  0  0  0  0  0  0  0  0
   -1.1135    0.2574   -0.4912 C   0  0  0  0  0  0  0  0  0  0  0  0
   -2.5672    0.2538   -0.1743 C   0  0  0  0  0  0  0  0  0  0  0  0
   -5.2897   -1.7854    0.2405 C   0  0  0  0  0  0  0  0  0  0  0  0
   -8.3928   -3.4568    0.7565 C   0  0  0  0  0  0  0  0  0  0  0  0
   -8.1062   -4.8786    0.6083 C   0  0  0  0  0  0  0  0  0  0  0  0
   -8.5848   -5.8376    1.4467 C   0  0  0  0  0  0  0  0  0  0  0  0
   -8.2573   -7.1553    1.1881 C   0  0  0  0  0  0  0  0  0  0  0  0
   -7.4685   -7.4936    0.1134 C   0  0  0  0  0  0  0  0  0  0  0  0
   -7.0402   -9.1586   -0.2364 Cl  0  0  0  0  0  0  0  0  0  0  0  0
   -6.9657   -6.5236   -0.7591 C   0  0  0  0  0  0  0  0  0  0  0  0
   -7.3045   -5.2304   -0.4805 C   0  0  0  0  0  0  0  0  0  0  0  0
   -9.6264   -2.9132    0.6666 N   0  0  0  0  0  0  0  0  0  0  0  0
  -10.8638   -3.6129    0.4140 C   0  0  0  0  0  0  0  0  0  0  0  0
  -11.6230   -1.2120    1.2106 H   0  0  0  0  0  0  0  0  0  0  0  0
  -10.5803    0.1625    1.5872 H   0  0  0  0  0  0  0  0  0  0  0  0
  -10.9339   -0.2430   -0.1862 H   0  0  0  0  0  0  0  0  0  0  0  0
   -9.0348    1.3625    0.3474 H   0  0  0  0  0  0  0  0  0  0  0  0
   -7.2632    2.7720    2.1476 H   0  0  0  0  0  0  0  0  0  0  0  0
   -6.3403    2.4971    0.6733 H   0  0  0  0  0  0  0  0  0  0  0  0
   -7.4944    4.6281    0.5989 H   0  0  0  0  0  0  0  0  0  0  0  0
   -8.3358    3.5744   -0.6050 H   0  0  0  0  0  0  0  0  0  0  0  0
   -9.3065    3.8237    2.2777 H   0  0  0  0  0  0  0  0  0  0  0  0
  -10.0767    2.9582    0.9308 H   0  0  0  0  0  0  0  0  0  0  0  0
  -10.7485    5.8475   -1.1211 H   0  0  0  0  0  0  0  0  0  0  0  0
  -10.2330    4.1393   -1.1598 H   0  0  0  0  0  0  0  0  0  0  0  0
  -12.6335    4.0107   -1.3070 H   0  0  0  0  0  0  0  0  0  0  0  0
  -12.1609    3.6383    0.4008 H   0  0  0  0  0  0  0  0  0  0  0  0
  -13.5639    3.9941    1.5394 H   0  0  0  0  0  0  0  0  0  0  0  0
  -14.1086    5.6379    1.9686 H   0  0  0  0  0  0  0  0  0  0  0  0
  -14.8835    4.6929    0.5743 H   0  0  0  0  0  0  0  0  0  0  0  0
  -12.7845    6.9596    1.6765 H   0  0  0  0  0  0  0  0  0  0  0  0
  -11.6371    7.1288    0.2845 H   0  0  0  0  0  0  0  0  0  0  0  0
  -10.5499    6.2165    2.4662 H   0  0  0  0  0  0  0  0  0  0  0  0
  -11.6271    4.8113    2.2794 H   0  0  0  0  0  0  0  0  0  0  0  0
   -5.9644   -3.6614    2.9327 H   0  0  0  0  0  0  0  0  0  0  0  0
   -3.5635   -3.5849    3.1220 H   0  0  0  0  0  0  0  0  0  0  0  0
   -2.1947   -2.3547    1.4869 H   0  0  0  0  0  0  0  0  0  0  0  0
   -3.9504   -0.8743   -2.5597 H   0  0  0  0  0  0  0  0  0  0  0  0
   -3.1813   -2.4704   -2.1198 H   0  0  0  0  0  0  0  0  0  0  0  0
   -2.0382    0.1108   -3.2113 H   0  0  0  0  0  0  0  0  0  0  0  0
   -1.5520   -1.5718   -3.3935 H   0  0  0  0  0  0  0  0  0  0  0  0
    0.2463   -2.2949   -3.4784 H   0  0  0  0  0  0  0  0  0  0  0  0
    2.5927   -2.9153   -3.6788 H   0  0  0  0  0  0  0  0  0  0  0  0
    4.5482   -3.4330   -3.8172 H   0  0  0  0  0  0  0  0  0  0  0  0
    8.0968   -0.6991   -3.3028 H   0  0  0  0  0  0  0  0  0  0  0  0
    9.3466    0.6107   -1.6357 H   0  0  0  0  0  0  0  0  0  0  0  0
   10.1314   -0.4573    1.7911 H   0  0  0  0  0  0  0  0  0  0  0  0
    9.8569    1.7654   -0.0764 H   0  0  0  0  0  0  0  0  0  0  0  0
   11.5240    0.5222   -1.2684 H   0  0  0  0  0  0  0  0  0  0  0  0
   12.2718    1.9292   -0.5359 H   0  0  0  0  0  0  0  0  0  0  0  0
   13.1485    0.5061    1.3639 H   0  0  0  0  0  0  0  0  0  0  0  0
   12.3890   -0.9255    0.6412 H   0  0  0  0  0  0  0  0  0  0  0  0
   15.9215   -0.8423   -0.1367 H   0  0  0  0  0  0  0  0  0  0  0  0
   14.5947   -2.0901    0.1027 H   0  0  0  0  0  0  0  0  0  0  0  0
   14.9066   -0.8067    1.3214 H   0  0  0  0  0  0  0  0  0  0  0  0
   15.5029    0.7185   -1.5295 H   0  0  0  0  0  0  0  0  0  0  0  0
   15.0318    1.6382   -0.0923 H   0  0  0  0  0  0  0  0  0  0  0  0
   13.9792    1.6363   -1.5681 H   0  0  0  0  0  0  0  0  0  0  0  0
    9.7713    1.9615    2.3234 H   0  0  0  0  0  0  0  0  0  0  0  0
   11.3549    1.2424    2.5619 H   0  0  0  0  0  0  0  0  0  0  0  0
   13.9184    3.2597    3.1845 H   0  0  0  0  0  0  0  0  0  0  0  0
   16.2181    3.7437    2.5645 H   0  0  0  0  0  0  0  0  0  0  0  0
   16.7919    4.5574    0.2958 H   0  0  0  0  0  0  0  0  0  0  0  0
   15.0345    4.8771   -1.3506 H   0  0  0  0  0  0  0  0  0  0  0  0
   12.6799    4.3961   -0.7571 H   0  0  0  0  0  0  0  0  0  0  0  0
    7.5953   -3.8107   -0.5021 H   0  0  0  0  0  0  0  0  0  0  0  0
    3.6189   -0.3255   -0.4977 H   0  0  0  0  0  0  0  0  0  0  0  0
    1.2356    0.3091   -0.2888 H   0  0  0  0  0  0  0  0  0  0  0  0
   -0.6736    1.2670   -0.6363 H   0  0  0  0  0  0  0  0  0  0  0  0
   -0.5930   -0.2470    0.3575 H   0  0  0  0  0  0  0  0  0  0  0  0
   -3.0665    1.0761   -0.7709 H   0  0  0  0  0  0  0  0  0  0  0  0
   -2.7434    0.4457    0.9104 H   0  0  0  0  0  0  0  0  0  0  0  0
   -5.7681   -1.2824   -0.5667 H   0  0  0  0  0  0  0  0  0  0  0  0
   -9.2044   -5.5223    2.2791 H   0  0  0  0  0  0  0  0  0  0  0  0
   -8.6344   -7.9463    1.8537 H   0  0  0  0  0  0  0  0  0  0  0  0
   -6.3457   -6.8228   -1.5963 H   0  0  0  0  0  0  0  0  0  0  0  0
   -6.9161   -4.4674   -1.1584 H   0  0  0  0  0  0  0  0  0  0  0  0
  -10.6943   -4.5218   -0.2058 H   0  0  0  0  0  0  0  0  0  0  0  0
  -11.2525   -3.9799    1.3802 H   0  0  0  0  0  0  0  0  0  0  0  0
  -11.6422   -2.9894   -0.0331 H   0  0  0  0  0  0  0  0  0  0  0  0
  1  2  1  0
  2  3  2  0
  3  4  1  0
  4  5  2  0
  4  6  1  0
  6  7  1  0
  7  8  1  0
  8  9  1  0
  9 10  1  0
 10 11  1  0
 11 12  1  0
 12 13  1  0
 13 14  1  0
 13 15  1  0
 15 16  1  0
  3 17  1  0
 17 18  1  0
 18 19  2  0
 19 20  1  0
 20 21  2  0
 21 22  1  0
 22 23  1  0
 23 24  1  0
 24 25  1  0
 25 26  1  0
 26 27  1  0
 27 28  2  0
 28 29  1  0
 29 30  2  0
 30 31  1  0
 31 32  2  0
 31 33  1  0
 33 34  1  0
 34 35  2  0
 34 36  2  0
 34 37  1  0
 37 38  2  0
 38 39  1  0
 39 40  2  0
 40 41  1  0
 41 42  1  0
 42 43  1  0
 43 44  1  0
 44 45  1  0
 45 46  1  0
 45 47  1  0
 42 48  1  0
 48 49  1  0
 49 50  1  0
 50 51  2  0
 51 52  1  0
 52 53  2  0
 53 54  1  0
 54 55  2  0
 40 56  1  0
 56 57  1  0
 57 58  2  0
 57 59  1  0
 56 60  2  0
 30 61  1  0
 61 62  2  0
 26 63  1  0
 63 64  1  0
 22 65  2  0
 17 66  2  0
 66 67  1  0
 67 68  2  0
 68 69  1  0
 69 70  2  0
 70 71  1  0
 70 72  1  0
 72 73  2  0
 66 74  1  0
 74 75  1  0
 74  2  1  0
 16 10  1  0
 65 18  1  0
 73 67  1  0
 64 23  1  0
 62 27  1  0
 60 37  1  0
 55 50  1  0
  1 76  1  0
  1 77  1  0
  1 78  1  0
  6 79  1  0
  7 80  1  0
  7 81  1  0
  8 82  1  0
  8 83  1  0
  9 84  1  0
  9 85  1  0
 11 86  1  0
 11 87  1  0
 12 88  1  0
 12 89  1  0
 14 90  1  0
 14 91  1  0
 14 92  1  0
 15 93  1  0
 15 94  1  0
 16 95  1  0
 16 96  1  0
 19 97  1  0
 20 98  1  0
 21 99  1  0
 24100  1  0
 24101  1  0
 25102  1  0
 25103  1  0
 28104  1  0
 29105  1  0
 33106  1  0
 38107  1  0
 39108  1  0
 41109  1  0
 42110  1  6
 43111  1  0
 43112  1  0
 44113  1  0
 44114  1  0
 46115  1  0
 46116  1  0
 46117  1  0
 47118  1  0
 47119  1  0
 47120  1  0
 48121  1  0
 48122  1  0
 51123  1  0
 52124  1  0
 53125  1  0
 54126  1  0
 55127  1  0
 60128  1  0
 61129  1  0
 62130  1  0
 63131  1  0
 63132  1  0
 64133  1  0
 64134  1  0
 65135  1  0
 68136  1  0
 69137  1  0
 72138  1  0
 73139  1  0
 75140  1  0
 75141  1  0
 75142  1  0
M  CHG  2  57   1  59  -1
M  END
$$$$
