@<TRIPOS>MOLECULE
*****
 142 149 0 0 0
SMALL
GASTEIGER

@<TRIPOS>ATOM
      1 C         -10.7261   -0.6213    0.8215 C.3     1  UNL1       -0.0235
      2 C          -9.5616   -1.5621    0.8394 C.ar    1  UNL1        0.0286
      3 C          -8.2563   -1.2093    1.0471 C.ar    1  UNL1        0.0654
      4 C          -7.6076    0.0679    1.2214 C.2     1  UNL1        0.2464
      5 O          -6.4526    0.1311    1.7788 O.2     1  UNL1       -0.2701
      6 N          -8.1157    1.3373    0.8233 N.am    1  UNL1       -0.3112
      7 C          -7.3899    2.5580    1.0397 C.3     1  UNL1        0.0131
      8 C          -8.1499    3.7332    0.4974 C.3     1  UNL1       -0.0245
      9 C          -9.4538    3.8636    1.1991 C.3     1  UNL1        0.0004
     10 N         -10.2346    4.9873    0.7565 N.3     1  UNL1       -0.2999
     11 C         -10.7511    4.8973   -0.5695 C.3     1  UNL1        0.0117
     12 C         -12.2142    4.4388   -0.4013 C.3     1  UNL1        0.0114
     13 N         -12.9603    5.5123    0.1989 N.3     1  UNL1       -0.3029
     14 C         -13.9535    4.9358    1.1113 C.3     1  UNL1       -0.0127
     15 C         -12.1284    6.4095    0.9718 C.3     1  UNL1        0.0114
     16 C         -11.0846    5.5919    1.7149 C.3     1  UNL1        0.0117
     17 C          -7.5351   -2.4269    0.9908 C.ar    1  UNL1        0.0200
     18 C          -6.0988   -2.4714    1.1535 C.ar    1  UNL1       -0.0134
     19 C          -5.4355   -3.1000    2.1672 C.ar    1  UNL1       -0.0538
     20 C          -4.0410   -3.0696    2.3018 C.ar    1  UNL1       -0.0594
     21 C          -3.2879   -2.3738    1.3694 C.ar    1  UNL1       -0.0406
     22 C          -3.9246   -1.7301    0.3346 C.ar    1  UNL1        0.0303
     23 N          -3.1943   -0.9699   -0.6145 N.pl3   1  UNL1       -0.3269
     24 C          -3.1007   -1.3603   -1.9920 C.3     1  UNL1        0.0280
     25 C          -1.8342   -0.8337   -2.6382 C.3     1  UNL1        0.0280
     26 N          -0.8106   -0.5195   -1.6953 N.pl3   1  UNL1       -0.3269
     27 C           0.5244   -0.9391   -1.8710 C.ar    1  UNL1        0.0298
     28 C           0.9621   -1.8442   -2.8129 C.ar    1  UNL1       -0.0399
     29 C           2.3138   -2.1910   -2.9166 C.ar    1  UNL1       -0.0478
     30 C           3.2784   -1.6647   -2.1043 C.ar    1  UNL1        0.0383
     31 C           4.6879   -1.9971   -2.1908 C.2     1  UNL1        0.2630
     32 O           5.5179   -1.4626   -1.4279 O.2     1  UNL1       -0.2686
     33 N           5.1610   -2.9392   -3.1450 N.am    1  UNL1       -0.1815
     34 S           6.8550   -3.2905   -3.2003 S.O2    1  UNL1        0.0749
     35 O           7.0172   -4.7441   -2.8590 O.2     1  UNL1       -0.1499
     36 O           7.3176   -2.9856   -4.6058 O.2     1  UNL1       -0.1499
     37 C           7.7545   -2.3536   -2.0147 C.ar    1  UNL1        0.1151
     38 C           8.2623   -1.1148   -2.3125 C.ar    1  UNL1       -0.0329
     39 C           8.9909   -0.3661   -1.3831 C.ar    1  UNL1       -0.0324
     40 C           9.2331   -0.8578   -0.1040 C.ar    1  UNL1        0.1057
     41 N           9.9767   -0.1001    0.8293 N.pl3   1  UNL1       -0.3349
     42 C          10.5853    1.2110    0.5349 C.3     1  UNL1        0.0313
     43 C          11.8112    0.9695   -0.3170 C.3     1  UNL1       -0.0210
     44 C          12.8188    0.0949    0.4141 C.3     1  UNL1        0.0000
     45 N          13.9686   -0.1614   -0.4210 N.3     1  UNL1       -0.3083
     46 C          14.9071   -1.0110    0.2402 C.3     1  UNL1       -0.0130
     47 C          14.6200    1.0158   -0.9061 C.3     1  UNL1       -0.0130
     48 C          10.8020    1.9108    1.8180 C.3     1  UNL1        0.0167
     49 S          11.4530    3.5249    1.7446 S.3     1  UNL1       -0.1234
     50 C          13.1014    3.7942    1.2434 C.ar    1  UNL1        0.0079
     51 C          14.1321    3.6135    2.1770 C.ar    1  UNL1       -0.0483
     52 C          15.4136    3.8848    1.8300 C.ar    1  UNL1       -0.0607
     53 C          15.7801    4.3417    0.5700 C.ar    1  UNL1       -0.0617
     54 C          14.7769    4.5220   -0.3540 C.ar    1  UNL1       -0.0607
     55 C          13.4752    4.2525   -0.0166 C.ar    1  UNL1       -0.0483
     56 C           8.7252   -2.0943    0.2013 C.ar    1  UNL1        0.2956
     57 N           8.8985   -2.7011    1.4597 N.pl3   1  UNL1        0.0816
     58 O           8.9355   -3.9807    1.4704 O.2     1  UNL1        0.0415
     59 O           9.0427   -2.1078    2.6655 O.co2   1  UNL1       -0.5760
     60 C           7.9923   -2.8314   -0.7545 C.ar    1  UNL1        0.0441
     61 C           2.8543   -0.7473   -1.1460 C.ar    1  UNL1       -0.0478
     62 C           1.5279   -0.4083   -1.0450 C.ar    1  UNL1       -0.0399
     63 C          -1.1135    0.2574   -0.4912 C.3     1  UNL1        0.0280
     64 C          -2.5672    0.2538   -0.1743 C.3     1  UNL1        0.0280
     65 C          -5.2897   -1.7854    0.2405 C.ar    1  UNL1       -0.0329
     66 C          -8.3928   -3.4568    0.7565 C.ar    1  UNL1        0.0576
     67 C          -8.1062   -4.8786    0.6083 C.ar    1  UNL1       -0.0008
     68 C          -8.5848   -5.8376    1.4467 C.ar    1  UNL1       -0.0512
     69 C          -8.2573   -7.1553    1.1881 C.ar    1  UNL1       -0.0428
     70 C          -7.4685   -7.4936    0.1134 C.ar    1  UNL1        0.0410
     71 CL         -7.0402   -9.1586   -0.2364 Cl      1  UNL1       -0.0835
     72 C          -6.9657   -6.5236   -0.7591 C.ar    1  UNL1       -0.0428
     73 C          -7.3045   -5.2304   -0.4805 C.ar    1  UNL1       -0.0512
     74 N          -9.6264   -2.9132    0.6666 N.ar    1  UNL1       -0.3459
     75 C         -10.8638   -3.6129    0.4140 C.3     1  UNL1        0.0122
     76 H         -11.6230   -1.2120    1.2106 H       1  UNL1        0.0292
     77 H         -10.5803    0.1625    1.5872 H       1  UNL1        0.0292
     78 H         -10.9339   -0.2430   -0.1862 H       1  UNL1        0.0292
     79 H          -9.0348    1.3625    0.3474 H       1  UNL1        0.1490
     80 H          -7.2632    2.7720    2.1476 H       1  UNL1        0.0462
     81 H          -6.3403    2.4971    0.6733 H       1  UNL1        0.0462
     82 H          -7.4944    4.6281    0.5989 H       1  UNL1        0.0293
     83 H          -8.3358    3.5744   -0.6050 H       1  UNL1        0.0293
     84 H          -9.3065    3.8237    2.2777 H       1  UNL1        0.0427
     85 H         -10.0767    2.9582    0.9308 H       1  UNL1        0.0427
     86 H         -10.7485    5.8475   -1.1211 H       1  UNL1        0.0439
     87 H         -10.2330    4.1393   -1.1598 H       1  UNL1        0.0439
     88 H         -12.6335    4.0107   -1.3070 H       1  UNL1        0.0439
     89 H         -12.1609    3.6383    0.4008 H       1  UNL1        0.0439
     90 H         -13.5639    3.9941    1.5394 H       1  UNL1        0.0391
     91 H         -14.1086    5.6379    1.9686 H       1  UNL1        0.0391
     92 H         -14.8835    4.6929    0.5743 H       1  UNL1        0.0391
     93 H         -12.7845    6.9596    1.6765 H       1  UNL1        0.0439
     94 H         -11.6371    7.1288    0.2845 H       1  UNL1        0.0439
     95 H         -10.5499    6.2165    2.4662 H       1  UNL1        0.0439
     96 H         -11.6271    4.8113    2.2794 H       1  UNL1        0.0439
     97 H          -5.9644   -3.6614    2.9327 H       1  UNL1        0.0624
     98 H          -3.5635   -3.5849    3.1220 H       1  UNL1        0.0618
     99 H          -2.1947   -2.3547    1.4869 H       1  UNL1        0.0636
    100 H          -3.9504   -0.8743   -2.5597 H       1  UNL1        0.0479
    101 H          -3.1813   -2.4704   -2.1198 H       1  UNL1        0.0479
    102 H          -2.0382    0.1108   -3.2113 H       1  UNL1        0.0479
    103 H          -1.5520   -1.5718   -3.3935 H       1  UNL1        0.0479
    104 H           0.2463   -2.2949   -3.4784 H       1  UNL1        0.0636
    105 H           2.5927   -2.9153   -3.6788 H       1  UNL1        0.0626
    106 H           4.5482   -3.4330   -3.8172 H       1  UNL1        0.1769
    107 H           8.0968   -0.6991   -3.3028 H       1  UNL1        0.0638
    108 H           9.3466    0.6107   -1.6357 H       1  UNL1        0.0639
    109 H          10.1314   -0.4573    1.7911 H       1  UNL1        0.1466
    110 H           9.8569    1.7654   -0.0764 H       1  UNL1        0.0506
    111 H          11.5240    0.5222   -1.2684 H       1  UNL1        0.0296
    112 H          12.2718    1.9292   -0.5359 H       1  UNL1        0.0296
    113 H          13.1485    0.5061    1.3639 H       1  UNL1        0.0427
    114 H          12.3890   -0.9255    0.6412 H       1  UNL1        0.0427
    115 H          15.9215   -0.8423   -0.1367 H       1  UNL1        0.0391
    116 H          14.5947   -2.0901    0.1027 H       1  UNL1        0.0391
    117 H          14.9066   -0.8067    1.3214 H       1  UNL1        0.0391
    118 H          15.5029    0.7185   -1.5295 H       1  UNL1        0.0391
    119 H          15.0318    1.6382   -0.0923 H       1  UNL1        0.0391
    120 H          13.9792    1.6363   -1.5681 H       1  UNL1        0.0391
    121 H           9.7713    1.9615    2.3234 H       1  UNL1        0.0398
    122 H          11.3549    1.2424    2.5619 H       1  UNL1        0.0398
    123 H          13.9184    3.2597    3.1845 H       1  UNL1        0.0629
    124 H          16.2181    3.7437    2.5645 H       1  UNL1        0.0618
    125 H          16.7919    4.5574    0.2958 H       1  UNL1        0.0618
    126 H          15.0345    4.8771   -1.3506 H       1  UNL1        0.0618
    127 H          12.6799    4.3961   -0.7571 H       1  UNL1        0.0629
    128 H           7.5953   -3.8107   -0.5021 H       1  UNL1        0.0706
    129 H           3.6189   -0.3255   -0.4977 H       1  UNL1        0.0626
    130 H           1.2356    0.3091   -0.2888 H       1  UNL1        0.0636
    131 H          -0.6736    1.2670   -0.6363 H       1  UNL1        0.0479
    132 H          -0.5930   -0.2470    0.3575 H       1  UNL1        0.0479
    133 H          -3.0665    1.0761   -0.7709 H       1  UNL1        0.0479
    134 H          -2.7434    0.4457    0.9104 H       1  UNL1        0.0479
    135 H          -5.7681   -1.2824   -0.5667 H       1  UNL1        0.0642
    136 H          -9.2044   -5.5223    2.2791 H       1  UNL1        0.0625
    137 H          -8.6344   -7.9463    1.8537 H       1  UNL1        0.0632
    138 H          -6.3457   -6.8228   -1.5963 H       1  UNL1        0.0632
    139 H          -6.9161   -4.4674   -1.1584 H       1  UNL1        0.0625
    140 H         -10.6943   -4.5218   -0.2058 H       1  UNL1        0.0456
    141 H         -11.2525   -3.9799    1.3802 H       1  UNL1        0.0456
    142 H         -11.6422   -2.9894   -0.0331 H       1  UNL1        0.0456
@<TRIPOS>UNITY_ATOM_ATTR
57 1
charge 1
59 1
charge -1
@<TRIPOS>BOND
     1     1     2    1
     2     2     3   ar
     3     3     4    1
     4     4     5    2
     5     4     6   am
     6     6     7    1
     7     7     8    1
     8     8     9    1
     9     9    10    1
    10    10    11    1
    11    11    12    1
    12    12    13    1
    13    13    14    1
    14    13    15    1
    15    15    16    1
    16     3    17   ar
    17    17    18    1
    18    18    19   ar
    19    19    20   ar
    20    20    21   ar
    21    21    22   ar
    22    22    23    1
    23    23    24    1
    24    24    25    1
    25    25    26    1
    26    26    27    1
    27    27    28   ar
    28    28    29   ar
    29    29    30   ar
    30    30    31    1
    31    31    32    2
    32    31    33   am
    33    33    34    1
    34    34    35    2
    35    34    36    2
    36    34    37    1
    37    37    38   ar
    38    38    39   ar
    39    39    40   ar
    40    40    41    1
    41    41    42    1
    42    42    43    1
    43    43    44    1
    44    44    45    1
    45    45    46    1
    46    45    47    1
    47    42    48    1
    48    48    49    1
    49    49    50    1
    50    50    51   ar
    51    51    52   ar
    52    52    53   ar
    53    53    54   ar
    54    54    55   ar
    55    40    56   ar
    56    56    57    1
    57    57    58    2
    58    57    59    1
    59    56    60   ar
    60    30    61   ar
    61    61    62   ar
    62    26    63    1
    63    63    64    1
    64    22    65   ar
    65    17    66   ar
    66    66    67    1
    67    67    68   ar
    68    68    69   ar
    69    69    70   ar
    70    70    71    1
    71    70    72   ar
    72    72    73   ar
    73    66    74   ar
    74    74    75    1
    75    74     2   ar
    76    16    10    1
    77    65    18   ar
    78    73    67   ar
    79    64    23    1
    80    62    27   ar
    81    60    37   ar
    82    55    50   ar
    83     1    76    1
    84     1    77    1
    85     1    78    1
    86     6    79    1
    87     7    80    1
    88     7    81    1
    89     8    82    1
    90     8    83    1
    91     9    84    1
    92     9    85    1
    93    11    86    1
    94    11    87    1
    95    12    88    1
    96    12    89    1
    97    14    90    1
    98    14    91    1
    99    14    92    1
   100    15    93    1
   101    15    94    1
   102    16    95    1
   103    16    96    1
   104    19    97    1
   105    20    98    1
   106    21    99    1
   107    24   100    1
   108    24   101    1
   109    25   102    1
   110    25   103    1
   111    28   104    1
   112    29   105    1
   113    33   106    1
   114    38   107    1
   115    39   108    1
   116    41   109    1
   117    42   110    1
   118    43   111    1
   119    43   112    1
   120    44   113    1
   121    44   114    1
   122    46   115    1
   123    46   116    1
   124    46   117    1
   125    47   118    1
   126    47   119    1
   127    47   120    1
   128    48   121    1
   129    48   122    1
   130    51   123    1
   131    52   124    1
   132    53   125    1
   133    54   126    1
   134    55   127    1
   135    60   128    1
   136    61   129    1
   137    62   130    1
   138    63   131    1
   139    63   132    1
   140    64   133    1
   141    64   134    1
   142    65   135    1
   143    68   136    1
   144    69   137    1
   145    72   138    1
   146    73   139    1
   147    75   140    1
   148    75   141    1
   149    75   142    1
