@<TRIPOS>MOLECULE
*****
 82 82 0 0 0
SMALL
GASTEIGER

@<TRIPOS>ATOM
      1 C           7.7907    4.4649   -1.7738 C.3     1  UNL1       -0.0652
      2 C           8.0409    3.5643   -0.5938 C.3     1  UNL1       -0.0545
      3 C           7.5035    2.1515   -0.8624 C.3     1  UNL1       -0.0376
      4 C           7.7669    1.2745    0.3403 C.3     1  UNL1        0.0116
      5 N           7.3054   -0.0773    0.1969 N.am    1  UNL1       -0.3151
      6 C           5.9278   -0.4395   -0.0356 C.2     1  UNL1        0.2159
      7 O           5.1421    0.5356   -0.1098 O.2     1  UNL1       -0.2755
      8 C           5.5464   -1.8577   -0.1659 C.3     1  UNL1        0.0351
      9 C           6.2016   -2.5184   -1.3615 C.3     1  UNL1       -0.0540
     10 C           4.0596   -2.0448   -0.1331 C.3     1  UNL1       -0.0145
     11 C           3.5157   -1.5656    1.1574 C.3     1  UNL1        0.0725
     12 O           4.1303   -2.3230    2.1848 O.3     1  UNL1       -0.3902
     13 C           2.0152   -1.7008    1.2806 C.3     1  UNL1        0.0471
     14 N           1.6333   -1.1794    2.5785 N.3     1  UNL1       -0.3239
     15 C           1.2575   -1.0046    0.2221 C.3     1  UNL1        0.0328
     16 N          -0.1768   -1.1319    0.3416 N.am    1  UNL1       -0.2934
     17 C          -0.9400   -0.1840    1.1118 C.2     1  UNL1        0.2469
     18 O          -0.3517    0.7527    1.6821 O.2     1  UNL1       -0.2700
     19 C          -2.3816   -0.2986    1.2365 C.ar    1  UNL1        0.0374
     20 C          -2.9964   -0.6848    2.4216 C.ar    1  UNL1       -0.0462
     21 C          -4.3589   -0.8132    2.5707 C.ar    1  UNL1       -0.0190
     22 C          -5.1539   -0.5468    1.4940 C.ar    1  UNL1        0.1233
     23 O          -6.5153   -0.6652    1.6078 O.3     1  UNL1       -0.4948
     24 C          -7.1699   -1.0509    2.7832 C.3     1  UNL1        0.0788
     25 C          -4.5978   -0.1549    0.2766 C.ar    1  UNL1       -0.0050
     26 C          -5.5158    0.0987   -0.8585 C.3     1  UNL1       -0.0241
     27 C          -6.2458    1.4325   -0.6767 C.3     1  UNL1       -0.0469
     28 C          -7.1586    1.6036   -1.8965 C.3     1  UNL1       -0.0292
     29 C          -7.9320    2.8875   -1.8044 C.3     1  UNL1        0.0473
     30 O          -8.7088    2.8584   -0.6620 O.3     1  UNL1       -0.3830
     31 C          -9.4659    4.0113   -0.5010 C.3     1  UNL1        0.0364
     32 C          -3.2321   -0.0357    0.1623 C.ar    1  UNL1       -0.0430
     33 C          -0.9021   -2.1897   -0.3239 C.3     1  UNL1        0.0207
     34 C          -0.7405   -2.0875   -1.8430 C.3     1  UNL1       -0.0467
     35 C          -0.4904   -3.5553    0.1691 C.3     1  UNL1       -0.0467
     36 H           7.0883    3.9346   -2.4537 H       1  UNL1        0.0230
     37 H           7.3637    5.4450   -1.4471 H       1  UNL1        0.0230
     38 H           8.7334    4.6193   -2.3221 H       1  UNL1        0.0230
     39 H           9.1284    3.5382   -0.3890 H       1  UNL1        0.0263
     40 H           7.5630    3.9888    0.3174 H       1  UNL1        0.0263
     41 H           7.9545    1.7546   -1.7697 H       1  UNL1        0.0280
     42 H           6.4060    2.2869   -0.9414 H       1  UNL1        0.0280
     43 H           7.3657    1.7422    1.2764 H       1  UNL1        0.0462
     44 H           8.8609    1.2475    0.4745 H       1  UNL1        0.0462
     45 H           7.9684   -0.8926    0.2564 H       1  UNL1        0.1487
     46 H           5.9527   -2.4566    0.7191 H       1  UNL1        0.0392
     47 H           5.5639   -3.4155   -1.6025 H       1  UNL1        0.0237
     48 H           6.2719   -1.8496   -2.2337 H       1  UNL1        0.0237
     49 H           7.1992   -2.9179   -1.0956 H       1  UNL1        0.0237
     50 H           3.6282   -1.4160   -0.9469 H       1  UNL1        0.0298
     51 H           3.8800   -3.1283   -0.3216 H       1  UNL1        0.0298
     52 H           3.8373   -0.5334    1.3529 H       1  UNL1        0.0609
     53 H           3.8024   -3.2514    2.0824 H       1  UNL1        0.2098
     54 H           1.8263   -2.7986    1.2103 H       1  UNL1        0.0499
     55 H           1.9000   -1.8816    3.2951 H       1  UNL1        0.1186
     56 H           2.0943   -0.2578    2.6917 H       1  UNL1        0.1186
     57 H           1.5481   -1.2949   -0.8085 H       1  UNL1        0.0481
     58 H           1.4828    0.1039    0.2658 H       1  UNL1        0.0481
     59 H          -2.3250   -0.8919    3.2709 H       1  UNL1        0.0626
     60 H          -4.7237   -1.1234    3.5509 H       1  UNL1        0.0654
     61 H          -7.0391   -2.1447    2.9171 H       1  UNL1        0.0660
     62 H          -8.2598   -0.8229    2.7249 H       1  UNL1        0.0660
     63 H          -6.7301   -0.5542    3.6889 H       1  UNL1        0.0660
     64 H          -6.3141   -0.6701   -0.9105 H       1  UNL1        0.0314
     65 H          -4.9362    0.0901   -1.7813 H       1  UNL1        0.0314
     66 H          -5.5247    2.2727   -0.6159 H       1  UNL1        0.0269
     67 H          -6.8422    1.4368    0.2437 H       1  UNL1        0.0269
     68 H          -7.8954    0.7729   -1.8251 H       1  UNL1        0.0287
     69 H          -6.5511    1.5436   -2.8280 H       1  UNL1        0.0287
     70 H          -8.5270    3.0176   -2.7255 H       1  UNL1        0.0560
     71 H          -7.2412    3.7737   -1.6947 H       1  UNL1        0.0560
     72 H         -10.0578    3.9061    0.4329 H       1  UNL1        0.0523
     73 H          -8.7776    4.8683   -0.3903 H       1  UNL1        0.0523
     74 H         -10.1478    4.1202   -1.3670 H       1  UNL1        0.0523
     75 H          -2.8182    0.2654   -0.7711 H       1  UNL1        0.0629
     76 H          -1.9933   -2.1000   -0.1394 H       1  UNL1        0.0495
     77 H          -0.8367   -1.0189   -2.1006 H       1  UNL1        0.0247
     78 H           0.2433   -2.5203   -2.1591 H       1  UNL1        0.0247
     79 H          -1.5835   -2.6084   -2.3590 H       1  UNL1        0.0247
     80 H          -0.4263   -3.5071    1.2724 H       1  UNL1        0.0247
     81 H           0.4268   -3.9416   -0.3006 H       1  UNL1        0.0247
     82 H          -1.3412   -4.2571   -0.0788 H       1  UNL1        0.0247
@<TRIPOS>BOND
     1     1     2    1
     2     2     3    1
     3     3     4    1
     4     4     5    1
     5     5     6   am
     6     6     7    2
     7     6     8    1
     8     8     9    1
     9     8    10    1
    10    10    11    1
    11    11    12    1
    12    11    13    1
    13    13    14    1
    14    13    15    1
    15    15    16    1
    16    16    17   am
    17    17    18    2
    18    17    19    1
    19    19    20   ar
    20    20    21   ar
    21    21    22   ar
    22    22    23    1
    23    23    24    1
    24    22    25   ar
    25    25    26    1
    26    26    27    1
    27    27    28    1
    28    28    29    1
    29    29    30    1
    30    30    31    1
    31    25    32   ar
    32    16    33    1
    33    33    34    1
    34    33    35    1
    35    32    19   ar
    36     1    36    1
    37     1    37    1
    38     1    38    1
    39     2    39    1
    40     2    40    1
    41     3    41    1
    42     3    42    1
    43     4    43    1
    44     4    44    1
    45     5    45    1
    46     8    46    1
    47     9    47    1
    48     9    48    1
    49     9    49    1
    50    10    50    1
    51    10    51    1
    52    11    52    1
    53    12    53    1
    54    13    54    1
    55    14    55    1
    56    14    56    1
    57    15    57    1
    58    15    58    1
    59    20    59    1
    60    21    60    1
    61    24    61    1
    62    24    62    1
    63    24    63    1
    64    26    64    1
    65    26    65    1
    66    27    66    1
    67    27    67    1
    68    28    68    1
    69    28    69    1
    70    29    70    1
    71    29    71    1
    72    31    72    1
    73    31    73    1
    74    31    74    1
    75    32    75    1
    76    33    76    1
    77    34    77    1
    78    34    78    1
    79    34    79    1
    80    35    80    1
    81    35    81    1
    82    35    82    1
