
     RDKit          3D

 82 82  0  0  0  0  0  0  0  0999 V2000
    7.7907    4.4649   -1.7738 C   0  0  0  0  0  0  0  0  0  0  0  0
    8.0409    3.5643   -0.5938 C   0  0  0  0  0  0  0  0  0  0  0  0
    7.5035    2.1515   -0.8624 C   0  0  0  0  0  0  0  0  0  0  0  0
    7.7669    1.2745    0.3403 C   0  0  0  0  0  0  0  0  0  0  0  0
    7.3054   -0.0773    0.1969 N   0  0  0  0  0  0  0  0  0  0  0  0
    5.9278   -0.4395   -0.0356 C   0  0  0  0  0  0  0  0  0  0  0  0
    5.1421    0.5356   -0.1098 O   0  0  0  0  0  0  0  0  0  0  0  0
    5.5464   -1.8577   -0.1659 C   0  0  2  0  0  0  0  0  0  0  0  0
    6.2016   -2.5184   -1.3615 C   0  0  0  0  0  0  0  0  0  0  0  0
    4.0596   -2.0448   -0.1331 C   0  0  0  0  0  0  0  0  0  0  0  0
    3.5157   -1.5656    1.1574 C   0  0  2  0  0  0  0  0  0  0  0  0
    4.1303   -2.3230    2.1848 O   0  0  0  0  0  0  0  0  0  0  0  0
    2.0152   -1.7008    1.2806 C   0  0  1  0  0  0  0  0  0  0  0  0
    1.6333   -1.1794    2.5785 N   0  0  0  0  0  0  0  0  0  0  0  0
    1.2575   -1.0046    0.2221 C   0  0  0  0  0  0  0  0  0  0  0  0
   -0.1768   -1.1319    0.3416 N   0  0  0  0  0  0  0  0  0  0  0  0
   -0.9400   -0.1840    1.1118 C   0  0  0  0  0  0  0  0  0  0  0  0
   -0.3517    0.7527    1.6821 O   0  0  0  0  0  0  0  0  0  0  0  0
   -2.3816   -0.2986    1.2365 C   0  0  0  0  0  0  0  0  0  0  0  0
   -2.9964   -0.6848    2.4216 C   0  0  0  0  0  0  0  0  0  0  0  0
   -4.3589   -0.8132    2.5707 C   0  0  0  0  0  0  0  0  0  0  0  0
   -5.1539   -0.5468    1.4940 C   0  0  0  0  0  0  0  0  0  0  0  0
   -6.5153   -0.6652    1.6078 O   0  0  0  0  0  0  0  0  0  0  0  0
   -7.1699   -1.0509    2.7832 C   0  0  0  0  0  0  0  0  0  0  0  0
   -4.5978   -0.1549    0.2766 C   0  0  0  0  0  0  0  0  0  0  0  0
   -5.5158    0.0987   -0.8585 C   0  0  0  0  0  0  0  0  0  0  0  0
   -6.2458    1.4325   -0.6767 C   0  0  0  0  0  0  0  0  0  0  0  0
   -7.1586    1.6036   -1.8965 C   0  0  0  0  0  0  0  0  0  0  0  0
   -7.9320    2.8875   -1.8044 C   0  0  0  0  0  0  0  0  0  0  0  0
   -8.7088    2.8584   -0.6620 O   0  0  0  0  0  0  0  0  0  0  0  0
   -9.4659    4.0113   -0.5010 C   0  0  0  0  0  0  0  0  0  0  0  0
   -3.2321   -0.0357    0.1623 C   0  0  0  0  0  0  0  0  0  0  0  0
   -0.9021   -2.1897   -0.3239 C   0  0  0  0  0  0  0  0  0  0  0  0
   -0.7405   -2.0875   -1.8430 C   0  0  0  0  0  0  0  0  0  0  0  0
   -0.4904   -3.5553    0.1691 C   0  0  0  0  0  0  0  0  0  0  0  0
    7.0883    3.9346   -2.4537 H   0  0  0  0  0  0  0  0  0  0  0  0
    7.3637    5.4450   -1.4471 H   0  0  0  0  0  0  0  0  0  0  0  0
    8.7334    4.6193   -2.3221 H   0  0  0  0  0  0  0  0  0  0  0  0
    9.1284    3.5382   -0.3890 H   0  0  0  0  0  0  0  0  0  0  0  0
    7.5630    3.9888    0.3174 H   0  0  0  0  0  0  0  0  0  0  0  0
    7.9545    1.7546   -1.7697 H   0  0  0  0  0  0  0  0  0  0  0  0
    6.4060    2.2869   -0.9414 H   0  0  0  0  0  0  0  0  0  0  0  0
    7.3657    1.7422    1.2764 H   0  0  0  0  0  0  0  0  0  0  0  0
    8.8609    1.2475    0.4745 H   0  0  0  0  0  0  0  0  0  0  0  0
    7.9684   -0.8926    0.2564 H   0  0  0  0  0  0  0  0  0  0  0  0
    5.9527   -2.4566    0.7191 H   0  0  0  0  0  0  0  0  0  0  0  0
    5.5639   -3.4155   -1.6025 H   0  0  0  0  0  0  0  0  0  0  0  0
    6.2719   -1.8496   -2.2337 H   0  0  0  0  0  0  0  0  0  0  0  0
    7.1992   -2.9179   -1.0956 H   0  0  0  0  0  0  0  0  0  0  0  0
    3.6282   -1.4160   -0.9469 H   0  0  0  0  0  0  0  0  0  0  0  0
    3.8800   -3.1283   -0.3216 H   0  0  0  0  0  0  0  0  0  0  0  0
    3.8373   -0.5334    1.3529 H   0  0  0  0  0  0  0  0  0  0  0  0
    3.8024   -3.2514    2.0824 H   0  0  0  0  0  0  0  0  0  0  0  0
    1.8263   -2.7986    1.2103 H   0  0  0  0  0  0  0  0  0  0  0  0
    1.9000   -1.8816    3.2951 H   0  0  0  0  0  0  0  0  0  0  0  0
    2.0943   -0.2578    2.6917 H   0  0  0  0  0  0  0  0  0  0  0  0
    1.5481   -1.2949   -0.8085 H   0  0  0  0  0  0  0  0  0  0  0  0
    1.4828    0.1039    0.2658 H   0  0  0  0  0  0  0  0  0  0  0  0
   -2.3250   -0.8919    3.2709 H   0  0  0  0  0  0  0  0  0  0  0  0
   -4.7237   -1.1234    3.5509 H   0  0  0  0  0  0  0  0  0  0  0  0
   -7.0391   -2.1447    2.9171 H   0  0  0  0  0  0  0  0  0  0  0  0
   -8.2598   -0.8229    2.7249 H   0  0  0  0  0  0  0  0  0  0  0  0
   -6.7301   -0.5542    3.6889 H   0  0  0  0  0  0  0  0  0  0  0  0
   -6.3141   -0.6701   -0.9105 H   0  0  0  0  0  0  0  0  0  0  0  0
   -4.9362    0.0901   -1.7813 H   0  0  0  0  0  0  0  0  0  0  0  0
   -5.5247    2.2727   -0.6159 H   0  0  0  0  0  0  0  0  0  0  0  0
   -6.8422    1.4368    0.2437 H   0  0  0  0  0  0  0  0  0  0  0  0
   -7.8954    0.7729   -1.8251 H   0  0  0  0  0  0  0  0  0  0  0  0
   -6.5511    1.5436   -2.8280 H   0  0  0  0  0  0  0  0  0  0  0  0
   -8.5270    3.0176   -2.7255 H   0  0  0  0  0  0  0  0  0  0  0  0
   -7.2412    3.7737   -1.6947 H   0  0  0  0  0  0  0  0  0  0  0  0
  -10.0578    3.9061    0.4329 H   0  0  0  0  0  0  0  0  0  0  0  0
   -8.7776    4.8683   -0.3903 H   0  0  0  0  0  0  0  0  0  0  0  0
  -10.1478    4.1202   -1.3670 H   0  0  0  0  0  0  0  0  0  0  0  0
   -2.8182    0.2654   -0.7711 H   0  0  0  0  0  0  0  0  0  0  0  0
   -1.9933   -2.1000   -0.1394 H   0  0  0  0  0  0  0  0  0  0  0  0
   -0.8367   -1.0189   -2.1006 H   0  0  0  0  0  0  0  0  0  0  0  0
    0.2433   -2.5203   -2.1591 H   0  0  0  0  0  0  0  0  0  0  0  0
   -1.5835   -2.6084   -2.3590 H   0  0  0  0  0  0  0  0  0  0  0  0
   -0.4263   -3.5071    1.2724 H   0  0  0  0  0  0  0  0  0  0  0  0
    0.4268   -3.9416   -0.3006 H   0  0  0  0  0  0  0  0  0  0  0  0
   -1.3412   -4.2571   -0.0788 H   0  0  0  0  0  0  0  0  0  0  0  0
  1  2  1  0
  2  3  1  0
  3  4  1  0
  4  5  1  0
  5  6  1  0
  6  7  2  0
  6  8  1  0
  8  9  1  0
  8 10  1  0
 10 11  1  0
 11 12  1  0
 11 13  1  0
 13 14  1  0
 13 15  1  0
 15 16  1  0
 16 17  1  0
 17 18  2  0
 17 19  1  0
 19 20  2  0
 20 21  1  0
 21 22  2  0
 22 23  1  0
 23 24  1  0
 22 25  1  0
 25 26  1  0
 26 27  1  0
 27 28  1  0
 28 29  1  0
 29 30  1  0
 30 31  1  0
 25 32  2  0
 16 33  1  0
 33 34  1  0
 33 35  1  0
 32 19  1  0
  1 36  1  0
  1 37  1  0
  1 38  1  0
  2 39  1  0
  2 40  1  0
  3 41  1  0
  3 42  1  0
  4 43  1  0
  4 44  1  0
  5 45  1  0
  8 46  1  1
  9 47  1  0
  9 48  1  0
  9 49  1  0
 10 50  1  0
 10 51  1  0
 11 52  1  1
 12 53  1  0
 13 54  1  1
 14 55  1  0
 14 56  1  0
 15 57  1  0
 15 58  1  0
 20 59  1  0
 21 60  1  0
 24 61  1  0
 24 62  1  0
 24 63  1  0
 26 64  1  0
 26 65  1  0
 27 66  1  0
 27 67  1  0
 28 68  1  0
 28 69  1  0
 29 70  1  0
 29 71  1  0
 31 72  1  0
 31 73  1  0
 31 74  1  0
 32 75  1  0
 33 76  1  0
 34 77  1  0
 34 78  1  0
 34 79  1  0
 35 80  1  0
 35 81  1  0
 35 82  1  0
M  END
$$$$
