@<TRIPOS>MOLECULE
*****
 39 40 0 0 0
SMALL
GASTEIGER

@<TRIPOS>ATOM
      1 C          -4.8609    0.8761   -0.6155 C.3     1  UNL1       -0.0496
      2 C          -4.0074   -0.1445    0.1163 C.3     1  UNL1        0.0048
      3 N          -4.4068   -1.4546   -0.4220 N.3     1  UNL1       -0.3272
      4 C          -2.5660    0.0519   -0.2174 C.3     1  UNL1       -0.0260
      5 C          -2.0568    1.4050    0.1594 C.3     1  UNL1       -0.0481
      6 C          -0.5967    1.5505    0.2446 C.3     1  UNL1       -0.0416
      7 C           0.1787    0.3304    0.6247 C.3     1  UNL1        0.0359
      8 C           1.6003    0.4561    0.2701 C.2     1  UNL1        0.2203
      9 O           1.9942    1.5130   -0.2830 O.2     1  UNL1       -0.2752
     10 N           2.4879   -0.6097    0.5580 N.am    1  UNL1       -0.2852
     11 C           3.8500   -0.4442    0.1983 C.ar    1  UNL1        0.0363
     12 C           4.2940   -0.8360   -1.0404 C.ar    1  UNL1       -0.0223
     13 C           5.6257   -0.6663   -1.3720 C.ar    1  UNL1        0.0293
     14 N           6.4824   -0.1270   -0.5035 N.ar    1  UNL1       -0.2631
     15 C           6.0831    0.2699    0.7225 C.ar    1  UNL1        0.0293
     16 C           4.7418    0.1107    1.0862 C.ar    1  UNL1       -0.0223
     17 C          -0.3701   -0.9142   -0.0669 C.3     1  UNL1       -0.0416
     18 C          -1.7799   -1.0523    0.4800 C.3     1  UNL1       -0.0481
     19 H          -4.2343    1.4220   -1.3526 H       1  UNL1        0.0245
     20 H          -5.2608    1.6439    0.0852 H       1  UNL1        0.0245
     21 H          -5.6925    0.4149   -1.1745 H       1  UNL1        0.0245
     22 H          -4.1871   -0.1513    1.2001 H       1  UNL1        0.0458
     23 H          -3.9622   -1.6003   -1.3619 H       1  UNL1        0.1185
     24 H          -4.2353   -2.2199    0.2379 H       1  UNL1        0.1185
     25 H          -2.4062   -0.0886   -1.3060 H       1  UNL1        0.0316
     26 H          -2.5577    1.6809    1.1329 H       1  UNL1        0.0269
     27 H          -2.4578    2.1349   -0.5799 H       1  UNL1        0.0269
     28 H          -0.1564    1.9277   -0.7252 H       1  UNL1        0.0273
     29 H          -0.3510    2.3444    0.9861 H       1  UNL1        0.0273
     30 H           0.0343    0.1599    1.7146 H       1  UNL1        0.0394
     31 H           2.1613   -1.4853    1.0163 H       1  UNL1        0.1548
     32 H           3.6253   -1.2693   -1.7492 H       1  UNL1        0.0651
     33 H           5.9300   -0.9894   -2.3581 H       1  UNL1        0.0830
     34 H           6.8055    0.7066    1.4096 H       1  UNL1        0.0830
     35 H           4.4066    0.4233    2.0636 H       1  UNL1        0.0651
     36 H          -0.4203   -0.7117   -1.1574 H       1  UNL1        0.0273
     37 H           0.2651   -1.7781    0.1862 H       1  UNL1        0.0273
     38 H          -2.2044   -2.0287    0.2550 H       1  UNL1        0.0269
     39 H          -1.7954   -0.8508    1.5864 H       1  UNL1        0.0269
@<TRIPOS>BOND
     1     1     2    1
     2     2     3    1
     3     2     4    1
     4     4     5    1
     5     5     6    1
     6     6     7    1
     7     7     8    1
     8     8     9    2
     9     8    10   am
    10    10    11    1
    11    11    12   ar
    12    12    13   ar
    13    13    14   ar
    14    14    15   ar
    15    15    16   ar
    16     7    17    1
    17    17    18    1
    18    18     4    1
    19    16    11   ar
    20     1    19    1
    21     1    20    1
    22     1    21    1
    23     2    22    1
    24     3    23    1
    25     3    24    1
    26     4    25    1
    27     5    26    1
    28     5    27    1
    29     6    28    1
    30     6    29    1
    31     7    30    1
    32    10    31    1
    33    12    32    1
    34    13    33    1
    35    15    34    1
    36    16    35    1
    37    17    36    1
    38    17    37    1
    39    18    38    1
    40    18    39    1
