@<TRIPOS>MOLECULE
*****
 35 38 0 0 0
SMALL
GASTEIGER

@<TRIPOS>ATOM
      1 N           0.0233   -5.8532   -3.1004 N.1     1  UNL1       -0.1909
      2 C          -0.6050   -4.9924   -2.6132 C.1     1  UNL1        0.0992
      3 C          -1.3537   -3.9249   -2.0200 C.ar    1  UNL1        0.0526
      4 C          -2.6588   -4.0695   -1.6104 C.ar    1  UNL1       -0.0423
      5 C          -3.3191   -3.0015   -1.0445 C.ar    1  UNL1       -0.0344
      6 C          -2.7127   -1.7634   -0.8674 C.ar    1  UNL1        0.0761
      7 N          -3.3926   -0.7461   -0.3041 N.ar    1  UNL1       -0.2353
      8 C          -2.7751    0.4290   -0.1447 C.ar    1  UNL1        0.1187
      9 N          -1.5048    0.6318   -0.5255 N.ar    1  UNL1       -0.2203
     10 C          -0.7861   -0.3544   -1.0930 C.ar    1  UNL1        0.1300
     11 N           0.5505   -0.1519   -1.5260 N.pl3   1  UNL1       -0.3244
     12 C           1.2887    1.0833   -1.3839 C.3     1  UNL1        0.0358
     13 C           1.5555    1.5016   -0.0031 C.ar    1  UNL1       -0.0267
     14 C           2.6728    0.9750    0.6295 C.ar    1  UNL1       -0.0534
     15 C           3.0144    1.3223    1.9164 C.ar    1  UNL1       -0.0158
     16 C           2.2318    2.2263    2.6248 C.ar    1  UNL1        0.1662
     17 C           1.1295    2.7405    1.9885 C.ar    1  UNL1        0.1665
     18 C           0.7893    2.3828    0.6804 C.ar    1  UNL1       -0.0115
     19 O           0.4953    3.6155    2.8674 O.3     1  UNL1       -0.4526
     20 C           1.4801    3.9672    3.8442 C.3     1  UNL1        0.2332
     21 O           2.2815    2.7764    3.8879 O.3     1  UNL1       -0.4526
     22 C          -1.3947   -1.5913   -1.2738 C.ar    1  UNL1        0.0413
     23 C          -0.7575   -2.6757   -1.8365 C.ar    1  UNL1       -0.0319
     24 H          -3.1240   -5.0333   -1.7514 H       1  UNL1        0.0631
     25 H          -4.3378   -3.1276   -0.7287 H       1  UNL1        0.0639
     26 H          -3.3044    1.2770    0.3120 H       1  UNL1        0.1048
     27 H           1.0798   -0.9274   -1.9889 H       1  UNL1        0.1478
     28 H           0.6905    1.8998   -1.8827 H       1  UNL1        0.0511
     29 H           2.2782    1.0020   -1.8963 H       1  UNL1        0.0511
     30 H           3.3069    0.2637    0.0992 H       1  UNL1        0.0622
     31 H           3.8838    0.8966    2.3721 H       1  UNL1        0.0655
     32 H          -0.0926    2.8386    0.2308 H       1  UNL1        0.0658
     33 H           0.9843    4.1458    4.8123 H       1  UNL1        0.1166
     34 H           2.1144    4.8026    3.4874 H       1  UNL1        0.1166
     35 H           0.2685   -2.5654   -2.1582 H       1  UNL1        0.0638
@<TRIPOS>BOND
     1     1     2    3
     2     2     3    1
     3     3     4   ar
     4     4     5   ar
     5     5     6   ar
     6     6     7   ar
     7     7     8   ar
     8     8     9   ar
     9     9    10   ar
    10    10    11    1
    11    11    12    1
    12    12    13    1
    13    13    14   ar
    14    14    15   ar
    15    15    16   ar
    16    16    17   ar
    17    17    18   ar
    18    17    19    1
    19    19    20    1
    20    20    21    1
    21    10    22   ar
    22    22    23   ar
    23    23     3   ar
    24    22     6   ar
    25    18    13   ar
    26    21    16    1
    27     4    24    1
    28     5    25    1
    29     8    26    1
    30    11    27    1
    31    12    28    1
    32    12    29    1
    33    14    30    1
    34    15    31    1
    35    18    32    1
    36    20    33    1
    37    20    34    1
    38    23    35    1
