@<TRIPOS>MOLECULE
*****
 45 49 0 0 0
SMALL
GASTEIGER

@<TRIPOS>ATOM
      1 N           7.5116   -1.7374    0.6894 N.3     1  UNL1        0.0000
      2 C           7.0685   -0.3887    0.3083 C.3     1  UNL1        0.0000
      3 N           7.6446    0.5083    1.2765 N.3     1  UNL1        0.0000
      4 C           5.5905   -0.3255    0.2801 C.ar    1  UNL1        0.0000
      5 C           4.8562    0.2645   -0.7250 C.ar    1  UNL1        0.0000
      6 C           3.4757    0.3139   -0.7344 C.ar    1  UNL1        0.0000
      7 C           2.7486   -0.2429    0.2944 C.ar    1  UNL1        0.0000
      8 C           3.4362   -0.8476    1.3283 C.ar    1  UNL1        0.0000
      9 C           4.8108   -0.8634    1.2784 C.ar    1  UNL1        0.0000
     10 N           1.4738   -0.0905    0.0961 N.ar    1  UNL1        1.0000
     11 C           1.2884    0.5620   -1.0510 C.ar    1  UNL1        0.0000
     12 N           2.5326    0.8059   -1.5539 N.ar    1  UNL1        0.0000
     13 C           0.1128    0.9835   -1.7322 C.2     1  UNL1        0.0000
     14 O           0.1111    1.6017   -2.8288 O.2     1  UNL1        0.0000
     15 C          -1.2134    0.7706   -1.2795 C.ar    1  UNL1        0.0000
     16 N          -1.6231    0.1641   -0.1804 N.ar    1  UNL1        1.0000
     17 ZN          0.0349   -0.5824    1.0501 Zn      1  UNL1        0.0000
     18 C          -2.8650    0.0022    0.1769 C.ar    1  UNL1        0.0000
     19 C          -3.4456    0.6265   -0.8978 C.ar    1  UNL1        0.0000
     20 N          -2.4588    1.0419   -1.6905 N.ar    1  UNL1        0.0000
     21 C          -4.8299    0.7080   -0.9642 C.ar    1  UNL1        0.0000
     22 C          -5.5872    0.1532    0.0628 C.ar    1  UNL1        0.0000
     23 C          -4.9385   -0.4627    1.1187 C.ar    1  UNL1        0.0000
     24 C          -3.5482   -0.5619    1.2162 C.ar    1  UNL1        0.0000
     25 C          -7.0673    0.2215    0.0254 C.3     1  UNL1        0.0000
     26 N          -7.5571    0.6088    1.3187 N.3     1  UNL1        0.0000
     27 N          -7.6854   -0.9928   -0.4662 N.3     1  UNL1        0.0000
     28 H           6.7221   -2.3467    0.9808 H       1  UNL1        0.0000
     29 H           8.1506   -2.1601    0.0070 H       1  UNL1        0.0000
     30 H           7.5116   -0.1901   -0.6667 H       1  UNL1        0.0000
     31 H           7.1650    0.4595    2.2019 H       1  UNL1        0.0000
     32 H           7.8003    1.4782    0.9266 H       1  UNL1        0.0000
     33 H           5.3800    0.7163   -1.5561 H       1  UNL1        0.0000
     34 H           2.9107   -1.2990    2.1587 H       1  UNL1        0.0000
     35 H           5.3180   -1.3556    2.1230 H       1  UNL1        0.0000
     36 H           2.8761    1.2937   -2.4387 H       1  UNL1        0.0000
     37 H          -2.7012    1.5590   -2.5941 H       1  UNL1        0.0000
     38 H          -5.3160    1.1947   -1.8001 H       1  UNL1        0.0000
     39 H          -5.5319   -0.8933    1.9162 H       1  UNL1        0.0000
     40 H          -3.0159   -1.0272    2.0115 H       1  UNL1        0.0000
     41 H          -7.3653    1.0152   -0.7113 H       1  UNL1        0.0000
     42 H          -8.1463    1.4692    1.2637 H       1  UNL1        0.0000
     43 H          -6.7644    0.8065    1.9695 H       1  UNL1        0.0000
     44 H          -7.5601   -1.8109    0.1597 H       1  UNL1        0.0000
     45 H          -7.3102   -1.1502   -1.4274 H       1  UNL1        0.0000
@<TRIPOS>UNITY_ATOM_ATTR
10 1
charge 1
16 1
charge 1
@<TRIPOS>BOND
     1     1     2    1
     2     2     3    1
     3     2     4    1
     4     4     5   ar
     5     5     6   ar
     6     6     7   ar
     7     7     8   ar
     8     8     9   ar
     9     7    10   ar
    10    10    11   ar
    11    11    12   ar
    12    11    13    1
    13    13    14    2
    14    13    15    1
    15    15    16   ar
    16    16    17    1
    17    16    18   ar
    18    18    19   ar
    19    19    20   ar
    20    19    21   ar
    21    21    22   ar
    22    22    23   ar
    23    23    24   ar
    24    22    25    1
    25    25    26    1
    26    25    27    1
    27     9     4   ar
    28    17    10    1
    29    24    18   ar
    30    12     6   ar
    31    20    15   ar
    32     1    28    1
    33     1    29    1
    34     2    30    1
    35     3    31    1
    36     3    32    1
    37     5    33    1
    38     8    34    1
    39     9    35    1
    40    12    36    1
    41    20    37    1
    42    21    38    1
    43    23    39    1
    44    24    40    1
    45    25    41    1
    46    26    42    1
    47    26    43    1
    48    27    44    1
    49    27    45    1
