
     RDKit          3D

 92 95  0  0  0  0  0  0  0  0999 V2000
    1.1668    0.6645    3.4897 C   0  0  0  0  0  0  0  0  0  0  0  0
    1.1271    0.7031    1.9820 C   0  0  0  0  0  0  0  0  0  0  0  0
    1.2991    1.7710    1.3734 O   0  0  0  0  0  0  0  0  0  0  0  0
    0.8915   -0.4857    1.2409 N   0  0  0  0  0  0  0  0  0  0  0  0
    0.8343   -0.5689   -0.1979 C   0  0  1  0  0  0  0  0  0  0  0  0
    1.7460   -1.6469   -0.6685 C   0  0  0  0  0  0  0  0  0  0  0  0
    3.1305   -1.3250   -0.2386 C   0  0  0  0  0  0  0  0  0  0  0  0
    3.3680   -0.3147    0.4679 O   0  0  0  0  0  0  0  0  0  0  0  0
    4.2451   -2.1478   -0.6110 N   0  0  0  0  0  0  0  0  0  0  0  0
    5.6066   -1.8635   -0.2087 C   0  0  0  0  0  0  0  0  0  0  0  0
    5.7848   -1.8749    1.2727 C   0  0  0  0  0  0  0  0  0  0  0  0
    7.1879   -1.5741    1.6789 C   0  0  0  0  0  0  0  0  0  0  0  0
    7.6431   -0.1951    1.2169 C   0  0  0  0  0  0  0  0  0  0  0  0
    8.9479    0.0615    1.6134 O   0  0  0  0  0  0  0  0  0  0  0  0
    9.3880    1.3035    1.2479 C   0  0  0  0  0  0  0  0  0  0  0  0
    9.3486    1.4849   -0.2101 C   0  0  0  0  0  0  0  0  0  0  0  0
   10.4656    1.1218   -0.9628 C   0  0  0  0  0  0  0  0  0  0  0  0
   10.4264    1.3023   -2.3227 C   0  0  0  0  0  0  0  0  0  0  0  0
    9.3160    1.8312   -2.9626 C   0  0  0  0  0  0  0  0  0  0  0  0
    8.2181    2.1865   -2.2098 C   0  0  0  0  0  0  0  0  0  0  0  0
    8.2478    2.0094   -0.8451 C   0  0  0  0  0  0  0  0  0  0  0  0
   -0.5863   -0.7922   -0.6576 C   0  0  0  0  0  0  0  0  0  0  0  0
   -0.8702   -0.9549   -1.8680 O   0  0  0  0  0  0  0  0  0  0  0  0
   -1.6730   -0.8265    0.2706 N   0  0  0  0  0  0  0  0  0  0  0  0
   -3.0486   -1.0376   -0.1210 C   0  0  1  0  0  0  0  0  0  0  0  0
   -3.7244   -2.1902    0.5470 C   0  0  0  0  0  0  0  0  0  0  0  0
   -3.0987   -3.5293    0.3088 C   0  0  0  0  0  0  0  0  0  0  0  0
   -1.6886   -3.6550    0.7741 C   0  0  0  0  0  0  0  0  0  0  0  0
   -3.1753   -3.9203   -1.1534 C   0  0  0  0  0  0  0  0  0  0  0  0
   -3.8976    0.3135    0.0558 B   0  0  0  0  0  0  0  0  0  0  0  0
   -4.2345    1.1719   -1.0795 O   0  0  0  0  0  0  0  0  0  0  0  0
   -5.6284    0.9256   -1.1465 C   0  0  2  0  0  0  0  0  0  0  0  0
   -6.2218    2.0268   -1.9455 C   0  0  0  0  0  0  0  0  0  0  0  0
   -6.7404    3.1409   -1.0816 C   0  0  2  0  0  0  0  0  0  0  0  0
   -5.9443    3.2592    0.2238 C   0  0  0  0  0  0  0  0  0  0  0  0
   -6.7987    2.0761    0.7118 C   0  0  1  0  0  0  0  0  0  0  0  0
   -7.8550    2.5524   -0.2192 C   0  0  0  0  0  0  0  0  0  0  0  0
   -8.7205    1.5746   -0.9181 C   0  0  0  0  0  0  0  0  0  0  0  0
   -8.6642    3.6891    0.3625 C   0  0  0  0  0  0  0  0  0  0  0  0
   -6.1004    0.8354    0.2763 C   0  0  1  0  0  0  0  0  0  0  0  0
   -6.9915   -0.3544    0.5490 C   0  0  0  0  0  0  0  0  0  0  0  0
   -4.9330    0.6303    1.0356 O   0  0  0  0  0  0  0  0  0  0  0  0
    1.9169    1.3354    3.9042 H   0  0  0  0  0  0  0  0  0  0  0  0
    1.4609   -0.3762    3.7952 H   0  0  0  0  0  0  0  0  0  0  0  0
    0.1455    0.8186    3.8829 H   0  0  0  0  0  0  0  0  0  0  0  0
    0.7500   -1.3608    1.7887 H   0  0  0  0  0  0  0  0  0  0  0  0
    1.1063    0.4463   -0.6088 H   0  0  0  0  0  0  0  0  0  0  0  0
    1.4613   -2.5852   -0.1343 H   0  0  0  0  0  0  0  0  0  0  0  0
    1.7016   -1.8042   -1.7763 H   0  0  0  0  0  0  0  0  0  0  0  0
    4.0080   -2.9895   -1.2090 H   0  0  0  0  0  0  0  0  0  0  0  0
    5.8822   -0.8621   -0.6031 H   0  0  0  0  0  0  0  0  0  0  0  0
    6.2679   -2.6527   -0.6274 H   0  0  0  0  0  0  0  0  0  0  0  0
    5.4428   -2.8254    1.7436 H   0  0  0  0  0  0  0  0  0  0  0  0
    5.1458   -1.0748    1.7212 H   0  0  0  0  0  0  0  0  0  0  0  0
    7.9043   -2.3286    1.3199 H   0  0  0  0  0  0  0  0  0  0  0  0
    7.2427   -1.5690    2.7934 H   0  0  0  0  0  0  0  0  0  0  0  0
    7.6187   -0.1416    0.0958 H   0  0  0  0  0  0  0  0  0  0  0  0
    6.9948    0.5952    1.6313 H   0  0  0  0  0  0  0  0  0  0  0  0
    8.6965    2.0720    1.6884 H   0  0  0  0  0  0  0  0  0  0  0  0
   10.3852    1.5618    1.6658 H   0  0  0  0  0  0  0  0  0  0  0  0
   11.3543    0.7019   -0.4750 H   0  0  0  0  0  0  0  0  0  0  0  0
   11.2865    1.0265   -2.9282 H   0  0  0  0  0  0  0  0  0  0  0  0
    9.3087    1.9652   -4.0397 H   0  0  0  0  0  0  0  0  0  0  0  0
    7.3313    2.5988   -2.6418 H   0  0  0  0  0  0  0  0  0  0  0  0
    7.3755    2.2911   -0.2489 H   0  0  0  0  0  0  0  0  0  0  0  0
   -1.3847   -0.6800    1.2797 H   0  0  0  0  0  0  0  0  0  0  0  0
   -2.9942   -1.2993   -1.2227 H   0  0  0  0  0  0  0  0  0  0  0  0
   -3.6239   -1.9984    1.6588 H   0  0  0  0  0  0  0  0  0  0  0  0
   -4.8075   -2.2361    0.3546 H   0  0  0  0  0  0  0  0  0  0  0  0
   -3.7281   -4.2663    0.8743 H   0  0  0  0  0  0  0  0  0  0  0  0
   -0.9284   -3.5845   -0.0475 H   0  0  0  0  0  0  0  0  0  0  0  0
   -1.4264   -3.0343    1.6414 H   0  0  0  0  0  0  0  0  0  0  0  0
   -1.5534   -4.7190    1.1429 H   0  0  0  0  0  0  0  0  0  0  0  0
   -3.3821   -4.9871   -1.2180 H   0  0  0  0  0  0  0  0  0  0  0  0
   -2.2086   -3.6273   -1.6240 H   0  0  0  0  0  0  0  0  0  0  0  0
   -3.9512   -3.2819   -1.6221 H   0  0  0  0  0  0  0  0  0  0  0  0
   -5.7227   -0.0773   -1.5949 H   0  0  0  0  0  0  0  0  0  0  0  0
   -7.0215    1.7094   -2.6546 H   0  0  0  0  0  0  0  0  0  0  0  0
   -5.4411    2.4944   -2.6177 H   0  0  0  0  0  0  0  0  0  0  0  0
   -6.9825    4.0759   -1.5752 H   0  0  0  0  0  0  0  0  0  0  0  0
   -4.8782    3.0471    0.1488 H   0  0  0  0  0  0  0  0  0  0  0  0
   -6.1977    4.2225    0.7265 H   0  0  0  0  0  0  0  0  0  0  0  0
   -7.0020    2.1197    1.7929 H   0  0  0  0  0  0  0  0  0  0  0  0
   -9.5816    1.3378   -0.2500 H   0  0  0  0  0  0  0  0  0  0  0  0
   -8.2336    0.7103   -1.3618 H   0  0  0  0  0  0  0  0  0  0  0  0
   -9.2000    2.1203   -1.7867 H   0  0  0  0  0  0  0  0  0  0  0  0
   -9.5967    3.7776   -0.2350 H   0  0  0  0  0  0  0  0  0  0  0  0
   -8.9622    3.4122    1.3869 H   0  0  0  0  0  0  0  0  0  0  0  0
   -8.1402    4.6644    0.2989 H   0  0  0  0  0  0  0  0  0  0  0  0
   -6.5996   -0.9906    1.4003 H   0  0  0  0  0  0  0  0  0  0  0  0
   -8.0068   -0.0580    0.8949 H   0  0  0  0  0  0  0  0  0  0  0  0
   -7.0261   -1.0729   -0.3112 H   0  0  0  0  0  0  0  0  0  0  0  0
  1  2  1  0
  2  3  2  0
  2  4  1  0
  4  5  1  0
  5  6  1  0
  6  7  1  0
  7  8  2  0
  7  9  1  0
  9 10  1  0
 10 11  1  0
 11 12  1  0
 12 13  1  0
 13 14  1  0
 14 15  1  0
 15 16  1  0
 16 17  2  0
 17 18  1  0
 18 19  2  0
 19 20  1  0
 20 21  2  0
  5 22  1  0
 22 23  2  0
 22 24  1  0
 24 25  1  0
 25 26  1  0
 26 27  1  0
 27 28  1  0
 27 29  1  0
 25 30  1  0
 30 31  1  0
 31 32  1  0
 32 33  1  0
 33 34  1  0
 34 35  1  0
 35 36  1  0
 36 37  1  0
 37 38  1  0
 37 39  1  0
 36 40  1  0
 40 41  1  6
 40 42  1  0
 21 16  1  0
 42 30  1  0
 40 32  1  0
 37 34  1  0
  1 43  1  0
  1 44  1  0
  1 45  1  0
  4 46  1  0
  5 47  1  6
  6 48  1  0
  6 49  1  0
  9 50  1  0
 10 51  1  0
 10 52  1  0
 11 53  1  0
 11 54  1  0
 12 55  1  0
 12 56  1  0
 13 57  1  0
 13 58  1  0
 15 59  1  0
 15 60  1  0
 17 61  1  0
 18 62  1  0
 19 63  1  0
 20 64  1  0
 21 65  1  0
 24 66  1  0
 25 67  1  6
 26 68  1  0
 26 69  1  0
 27 70  1  0
 28 71  1  0
 28 72  1  0
 28 73  1  0
 29 74  1  0
 29 75  1  0
 29 76  1  0
 32 77  1  6
 33 78  1  0
 33 79  1  0
 34 80  1  6
 35 81  1  0
 35 82  1  0
 36 83  1  1
 38 84  1  0
 38 85  1  0
 38 86  1  0
 39 87  1  0
 39 88  1  0
 39 89  1  0
 41 90  1  0
 41 91  1  0
 41 92  1  0
M  END
$$$$
