@<TRIPOS>MOLECULE
*****
 92 95 0 0 0
SMALL
GASTEIGER

@<TRIPOS>ATOM
      1 C           1.1668    0.6645    3.4897 C.3     1  UNL1        0.0000
      2 C           1.1271    0.7031    1.9820 C.2     1  UNL1        0.0000
      3 O           1.2991    1.7710    1.3734 O.2     1  UNL1        0.0000
      4 N           0.8915   -0.4857    1.2409 N.am    1  UNL1        0.0000
      5 C           0.8343   -0.5689   -0.1979 C.3     1  UNL1        0.0000
      6 C           1.7460   -1.6469   -0.6685 C.3     1  UNL1        0.0000
      7 C           3.1305   -1.3250   -0.2386 C.2     1  UNL1        0.0000
      8 O           3.3680   -0.3147    0.4679 O.2     1  UNL1        0.0000
      9 N           4.2451   -2.1478   -0.6110 N.am    1  UNL1        0.0000
     10 C           5.6066   -1.8635   -0.2087 C.3     1  UNL1        0.0000
     11 C           5.7848   -1.8749    1.2727 C.3     1  UNL1        0.0000
     12 C           7.1879   -1.5741    1.6789 C.3     1  UNL1        0.0000
     13 C           7.6431   -0.1951    1.2169 C.3     1  UNL1        0.0000
     14 O           8.9479    0.0615    1.6134 O.3     1  UNL1        0.0000
     15 C           9.3880    1.3035    1.2479 C.3     1  UNL1        0.0000
     16 C           9.3486    1.4849   -0.2101 C.ar    1  UNL1        0.0000
     17 C          10.4656    1.1218   -0.9628 C.ar    1  UNL1        0.0000
     18 C          10.4264    1.3023   -2.3227 C.ar    1  UNL1        0.0000
     19 C           9.3160    1.8312   -2.9626 C.ar    1  UNL1        0.0000
     20 C           8.2181    2.1865   -2.2098 C.ar    1  UNL1        0.0000
     21 C           8.2478    2.0094   -0.8451 C.ar    1  UNL1        0.0000
     22 C          -0.5863   -0.7922   -0.6576 C.2     1  UNL1        0.0000
     23 O          -0.8702   -0.9549   -1.8680 O.2     1  UNL1        0.0000
     24 N          -1.6730   -0.8265    0.2706 N.am    1  UNL1        0.0000
     25 C          -3.0486   -1.0376   -0.1210 C.3     1  UNL1        0.0000
     26 C          -3.7244   -2.1902    0.5470 C.3     1  UNL1        0.0000
     27 C          -3.0987   -3.5293    0.3088 C.3     1  UNL1        0.0000
     28 C          -1.6886   -3.6550    0.7741 C.3     1  UNL1        0.0000
     29 C          -3.1753   -3.9203   -1.1534 C.3     1  UNL1        0.0000
     30 B          -3.8976    0.3135    0.0558 B       1  UNL1        0.0000
     31 O          -4.2345    1.1719   -1.0795 O.3     1  UNL1        0.0000
     32 C          -5.6284    0.9256   -1.1465 C.3     1  UNL1        0.0000
     33 C          -6.2218    2.0268   -1.9455 C.3     1  UNL1        0.0000
     34 C          -6.7404    3.1409   -1.0816 C.3     1  UNL1        0.0000
     35 C          -5.9443    3.2592    0.2238 C.3     1  UNL1        0.0000
     36 C          -6.7987    2.0761    0.7118 C.3     1  UNL1        0.0000
     37 C          -7.8550    2.5524   -0.2192 C.3     1  UNL1        0.0000
     38 C          -8.7205    1.5746   -0.9181 C.3     1  UNL1        0.0000
     39 C          -8.6642    3.6891    0.3625 C.3     1  UNL1        0.0000
     40 C          -6.1004    0.8354    0.2763 C.3     1  UNL1        0.0000
     41 C          -6.9915   -0.3544    0.5490 C.3     1  UNL1        0.0000
     42 O          -4.9330    0.6303    1.0356 O.3     1  UNL1        0.0000
     43 H           1.9169    1.3354    3.9042 H       1  UNL1        0.0000
     44 H           1.4609   -0.3762    3.7952 H       1  UNL1        0.0000
     45 H           0.1455    0.8186    3.8829 H       1  UNL1        0.0000
     46 H           0.7500   -1.3608    1.7887 H       1  UNL1        0.0000
     47 H           1.1063    0.4463   -0.6088 H       1  UNL1        0.0000
     48 H           1.4613   -2.5852   -0.1343 H       1  UNL1        0.0000
     49 H           1.7016   -1.8042   -1.7763 H       1  UNL1        0.0000
     50 H           4.0080   -2.9895   -1.2090 H       1  UNL1        0.0000
     51 H           5.8822   -0.8621   -0.6031 H       1  UNL1        0.0000
     52 H           6.2679   -2.6527   -0.6274 H       1  UNL1        0.0000
     53 H           5.4428   -2.8254    1.7436 H       1  UNL1        0.0000
     54 H           5.1458   -1.0748    1.7212 H       1  UNL1        0.0000
     55 H           7.9043   -2.3286    1.3199 H       1  UNL1        0.0000
     56 H           7.2427   -1.5690    2.7934 H       1  UNL1        0.0000
     57 H           7.6187   -0.1416    0.0958 H       1  UNL1        0.0000
     58 H           6.9948    0.5952    1.6313 H       1  UNL1        0.0000
     59 H           8.6965    2.0720    1.6884 H       1  UNL1        0.0000
     60 H          10.3852    1.5618    1.6658 H       1  UNL1        0.0000
     61 H          11.3543    0.7019   -0.4750 H       1  UNL1        0.0000
     62 H          11.2865    1.0265   -2.9282 H       1  UNL1        0.0000
     63 H           9.3087    1.9652   -4.0397 H       1  UNL1        0.0000
     64 H           7.3313    2.5988   -2.6418 H       1  UNL1        0.0000
     65 H           7.3755    2.2911   -0.2489 H       1  UNL1        0.0000
     66 H          -1.3847   -0.6800    1.2797 H       1  UNL1        0.0000
     67 H          -2.9942   -1.2993   -1.2227 H       1  UNL1        0.0000
     68 H          -3.6239   -1.9984    1.6588 H       1  UNL1        0.0000
     69 H          -4.8075   -2.2361    0.3546 H       1  UNL1        0.0000
     70 H          -3.7281   -4.2663    0.8743 H       1  UNL1        0.0000
     71 H          -0.9284   -3.5845   -0.0475 H       1  UNL1        0.0000
     72 H          -1.4264   -3.0343    1.6414 H       1  UNL1        0.0000
     73 H          -1.5534   -4.7190    1.1429 H       1  UNL1        0.0000
     74 H          -3.3821   -4.9871   -1.2180 H       1  UNL1        0.0000
     75 H          -2.2086   -3.6273   -1.6240 H       1  UNL1        0.0000
     76 H          -3.9512   -3.2819   -1.6221 H       1  UNL1        0.0000
     77 H          -5.7227   -0.0773   -1.5949 H       1  UNL1        0.0000
     78 H          -7.0215    1.7094   -2.6546 H       1  UNL1        0.0000
     79 H          -5.4411    2.4944   -2.6177 H       1  UNL1        0.0000
     80 H          -6.9825    4.0759   -1.5752 H       1  UNL1        0.0000
     81 H          -4.8782    3.0471    0.1488 H       1  UNL1        0.0000
     82 H          -6.1977    4.2225    0.7265 H       1  UNL1        0.0000
     83 H          -7.0020    2.1197    1.7929 H       1  UNL1        0.0000
     84 H          -9.5816    1.3378   -0.2500 H       1  UNL1        0.0000
     85 H          -8.2336    0.7103   -1.3618 H       1  UNL1        0.0000
     86 H          -9.2000    2.1203   -1.7867 H       1  UNL1        0.0000
     87 H          -9.5967    3.7776   -0.2350 H       1  UNL1        0.0000
     88 H          -8.9622    3.4122    1.3869 H       1  UNL1        0.0000
     89 H          -8.1402    4.6644    0.2989 H       1  UNL1        0.0000
     90 H          -6.5996   -0.9906    1.4003 H       1  UNL1        0.0000
     91 H          -8.0068   -0.0580    0.8949 H       1  UNL1        0.0000
     92 H          -7.0261   -1.0729   -0.3112 H       1  UNL1        0.0000
@<TRIPOS>BOND
     1     1     2    1
     2     2     3    2
     3     2     4   am
     4     4     5    1
     5     5     6    1
     6     6     7    1
     7     7     8    2
     8     7     9   am
     9     9    10    1
    10    10    11    1
    11    11    12    1
    12    12    13    1
    13    13    14    1
    14    14    15    1
    15    15    16    1
    16    16    17   ar
    17    17    18   ar
    18    18    19   ar
    19    19    20   ar
    20    20    21   ar
    21     5    22    1
    22    22    23    2
    23    22    24   am
    24    24    25    1
    25    25    26    1
    26    26    27    1
    27    27    28    1
    28    27    29    1
    29    25    30    1
    30    30    31    1
    31    31    32    1
    32    32    33    1
    33    33    34    1
    34    34    35    1
    35    35    36    1
    36    36    37    1
    37    37    38    1
    38    37    39    1
    39    36    40    1
    40    40    41    1
    41    40    42    1
    42    21    16   ar
    43    42    30    1
    44    40    32    1
    45    37    34    1
    46     1    43    1
    47     1    44    1
    48     1    45    1
    49     4    46    1
    50     5    47    1
    51     6    48    1
    52     6    49    1
    53     9    50    1
    54    10    51    1
    55    10    52    1
    56    11    53    1
    57    11    54    1
    58    12    55    1
    59    12    56    1
    60    13    57    1
    61    13    58    1
    62    15    59    1
    63    15    60    1
    64    17    61    1
    65    18    62    1
    66    19    63    1
    67    20    64    1
    68    21    65    1
    69    24    66    1
    70    25    67    1
    71    26    68    1
    72    26    69    1
    73    27    70    1
    74    28    71    1
    75    28    72    1
    76    28    73    1
    77    29    74    1
    78    29    75    1
    79    29    76    1
    80    32    77    1
    81    33    78    1
    82    33    79    1
    83    34    80    1
    84    35    81    1
    85    35    82    1
    86    36    83    1
    87    38    84    1
    88    38    85    1
    89    38    86    1
    90    39    87    1
    91    39    88    1
    92    39    89    1
    93    41    90    1
    94    41    91    1
    95    41    92    1
