@<TRIPOS>MOLECULE
*****
 26 25 0 0 0
SMALL
GASTEIGER

@<TRIPOS>ATOM
      1 N1          3.9405    0.9816   -0.3447 N.3     1  <1>        -0.3300
      2 C1          3.0702   -0.1628   -0.3422 C.3     1  <1>        -0.0062
      3 C2          2.1065   -0.0275    0.8369 C.3     1  <1>        -0.0316
      4 C3          1.1653   -1.2374    0.8657 C.3     1  <1>        -0.0051
      5 S1          0.1925   -1.3649   -0.6555 S.3     1  <1>        -0.1591
      6 C4         -0.9620    0.0193   -0.8210 C.3     1  <1>         0.0110
      7 C5         -2.0329   -0.0218    0.2574 C.3     1  <1>         0.0373
      8 N2         -2.8242   -1.2026    0.2355 N.3     1  <1>        -0.3247
      9 C6         -2.8600    1.2341    0.1616 C.3     1  <1>         0.0601
     10 O1         -3.6051    1.3068   -0.9897 O.3     1  <1>        -0.3935
     11 H1          3.4700    1.8004   -0.7878 H       1  <1>         0.1182
     12 H2          4.8188    0.7037   -0.8424 H       1  <1>         0.1182
     13 H3          3.6938   -1.0849   -0.1720 H       1  <1>         0.0422
     14 H4          2.4880   -0.2583   -1.2716 H       1  <1>         0.0422
     15 H5          2.7055   -0.0686    1.7535 H       1  <1>         0.0285
     16 H6          1.5088    0.8874    0.7066 H       1  <1>         0.0285
     17 H7          0.4653   -1.0846    1.7069 H       1  <1>         0.0377
     18 H8          1.7448   -2.1702    0.9686 H       1  <1>         0.0377
     19 H9         -1.3787    0.0404   -1.8335 H       1  <1>         0.0392
     20 H10        -0.3846    0.9524   -0.6521 H       1  <1>         0.0392
     21 H11        -1.4686    0.0005    1.2230 H       1  <1>         0.0489
     22 H12        -3.1866   -1.4755   -0.6961 H       1  <1>         0.1186
     23 H13        -2.4380   -1.9981    0.7838 H       1  <1>         0.1186
     24 H14        -3.5692    1.2960    1.0285 H       1  <1>         0.0573
     25 H15        -2.1994    2.1224    0.2363 H       1  <1>         0.0573
     26 H16        -4.4608    0.8121   -0.9493 H       1  <1>         0.2095
@<TRIPOS>BOND
     1     1     2    1
     2     2     3    1
     3     3     4    1
     4     4     5    1
     5     5     6    1
     6     6     7    1
     7     7     8    1
     8     7     9    1
     9     9    10    1
    10     1    11    1
    11     1    12    1
    12     2    13    1
    13     2    14    1
    14     3    15    1
    15     3    16    1
    16     4    17    1
    17     4    18    1
    18     6    19    1
    19     6    20    1
    20     7    21    1
    21     8    22    1
    22     8    23    1
    23     9    24    1
    24     9    25    1
    25    10    26    1
