
     RDKit          3D

 30 33  0  0  0  0  0  0  0  0999 V2000
    2.7345    2.9840   -0.2787 C   0  0  0  0  0  0  0  0  0  0  0  0
    2.9856    2.4235    0.9660 C   0  0  0  0  0  0  0  0  0  0  0  0
    2.0261    1.5580    1.2747 O   0  0  0  0  0  0  0  0  0  0  0  0
    1.1518    1.5110    0.3070 C   0  0  0  0  0  0  0  0  0  0  0  0
   -0.0331    0.6927    0.2664 C   0  0  0  0  0  0  0  0  0  0  0  0
   -1.2885    1.2106    0.1899 N   0  0  0  0  0  0  0  0  0  0  0  0
   -2.3760    0.4523    0.1530 C   0  0  0  0  0  0  0  0  0  0  0  0
   -3.6389    1.0476    0.0742 C   0  0  0  0  0  0  0  0  0  0  0  0
   -4.7530    0.2423    0.0372 C   0  0  0  0  0  0  0  0  0  0  0  0
   -4.5969   -1.1109    0.0782 C   0  0  0  0  0  0  0  0  0  0  0  0
   -3.3568   -1.7226    0.1562 C   0  0  0  0  0  0  0  0  0  0  0  0
   -2.2356   -0.9162    0.1936 C   0  0  0  0  0  0  0  0  0  0  0  0
   -0.9959   -1.4361    0.2693 N   0  0  0  0  0  0  0  0  0  0  0  0
    0.1185   -0.6877    0.3078 C   0  0  0  0  0  0  0  0  0  0  0  0
    1.4628   -1.2472    0.3896 C   0  0  0  0  0  0  0  0  0  0  0  0
    2.0327   -2.0794   -0.5530 C   0  0  0  0  0  0  0  0  0  0  0  0
    3.3019   -2.3975   -0.1306 C   0  0  0  0  0  0  0  0  0  0  0  0
    3.4758   -1.7493    1.0637 C   0  0  0  0  0  0  0  0  0  0  0  0
    2.3736   -1.0988    1.3115 O   0  0  0  0  0  0  0  0  0  0  0  0
    1.5435    2.3778   -0.6837 C   0  0  0  0  0  0  0  0  0  0  0  0
    3.3257    3.7140   -0.7998 H   0  0  0  0  0  0  0  0  0  0  0  0
    3.8383    2.6643    1.5815 H   0  0  0  0  0  0  0  0  0  0  0  0
   -3.7243    2.1217    0.0438 H   0  0  0  0  0  0  0  0  0  0  0  0
   -5.7637    0.6755   -0.0248 H   0  0  0  0  0  0  0  0  0  0  0  0
   -5.4580   -1.7834    0.0508 H   0  0  0  0  0  0  0  0  0  0  0  0
   -3.2024   -2.7775    0.1898 H   0  0  0  0  0  0  0  0  0  0  0  0
    1.5762   -2.4355   -1.4780 H   0  0  0  0  0  0  0  0  0  0  0  0
    4.0408   -3.0204   -0.6037 H   0  0  0  0  0  0  0  0  0  0  0  0
    4.3850   -1.7961    1.6637 H   0  0  0  0  0  0  0  0  0  0  0  0
    1.0505    2.5831   -1.6201 H   0  0  0  0  0  0  0  0  0  0  0  0
  1  2  2  0
  2  3  1  0
  3  4  1  0
  4  5  1  0
  5  6  2  0
  6  7  1  0
  7  8  2  0
  8  9  1  0
  9 10  2  0
 10 11  1  0
 11 12  2  0
 12 13  1  0
 13 14  2  0
 14 15  1  0
 15 16  2  0
 16 17  1  0
 17 18  2  0
 18 19  1  0
  4 20  2  0
 20  1  1  0
 14  5  1  0
 19 15  1  0
 12  7  1  0
  1 21  1  0
  2 22  1  0
  8 23  1  0
  9 24  1  0
 10 25  1  0
 11 26  1  0
 16 27  1  0
 17 28  1  0
 18 29  1  0
 20 30  1  0
M  END
$$$$
