@<TRIPOS>MOLECULE
*****
 30 33 0 0 0
SMALL
GASTEIGER

@<TRIPOS>ATOM
      1 C           2.7345    2.9840   -0.2787 C.ar    1  UNL1       -0.0232
      2 C           2.9856    2.4235    0.9660 C.ar    1  UNL1        0.0926
      3 O           2.0261    1.5580    1.2747 O.2     1  UNL1       -0.4613
      4 C           1.1518    1.5110    0.3070 C.ar    1  UNL1        0.1551
      5 C          -0.0331    0.6927    0.2664 C.ar    1  UNL1        0.1355
      6 N          -1.2885    1.2106    0.1899 N.ar    1  UNL1       -0.2398
      7 C          -2.3760    0.4523    0.1530 C.ar    1  UNL1        0.0900
      8 C          -3.6389    1.0476    0.0742 C.ar    1  UNL1       -0.0342
      9 C          -4.7530    0.2423    0.0372 C.ar    1  UNL1       -0.0596
     10 C          -4.5969   -1.1109    0.0782 C.ar    1  UNL1       -0.0596
     11 C          -3.3568   -1.7226    0.1562 C.ar    1  UNL1       -0.0342
     12 C          -2.2356   -0.9162    0.1936 C.ar    1  UNL1        0.0900
     13 N          -0.9959   -1.4361    0.2693 N.ar    1  UNL1       -0.2398
     14 C           0.1185   -0.6877    0.3078 C.ar    1  UNL1        0.1355
     15 C           1.4628   -1.2472    0.3896 C.ar    1  UNL1        0.1551
     16 C           2.0327   -2.0794   -0.5530 C.ar    1  UNL1       -0.0143
     17 C           3.3019   -2.3975   -0.1306 C.ar    1  UNL1       -0.0232
     18 C           3.4758   -1.7493    1.0637 C.ar    1  UNL1        0.0926
     19 O           2.3736   -1.0988    1.3115 O.2     1  UNL1       -0.4613
     20 C           1.5435    2.3778   -0.6837 C.ar    1  UNL1       -0.0143
     21 H           3.3257    3.7140   -0.7998 H       1  UNL1        0.0649
     22 H           3.8383    2.6643    1.5815 H       1  UNL1        0.1029
     23 H          -3.7243    2.1217    0.0438 H       1  UNL1        0.0639
     24 H          -5.7637    0.6755   -0.0248 H       1  UNL1        0.0618
     25 H          -5.4580   -1.7834    0.0508 H       1  UNL1        0.0618
     26 H          -3.2024   -2.7775    0.1898 H       1  UNL1        0.0639
     27 H           1.5762   -2.4355   -1.4780 H       1  UNL1        0.0656
     28 H           4.0408   -3.0204   -0.6037 H       1  UNL1        0.0649
     29 H           4.3850   -1.7961    1.6637 H       1  UNL1        0.1029
     30 H           1.0505    2.5831   -1.6201 H       1  UNL1        0.0656
@<TRIPOS>BOND
     1     1     2   ar
     2     2     3   ar
     3     3     4   ar
     4     4     5    1
     5     5     6   ar
     6     6     7   ar
     7     7     8   ar
     8     8     9   ar
     9     9    10   ar
    10    10    11   ar
    11    11    12   ar
    12    12    13   ar
    13    13    14   ar
    14    14    15    1
    15    15    16   ar
    16    16    17   ar
    17    17    18   ar
    18    18    19   ar
    19     4    20   ar
    20    20     1   ar
    21    14     5   ar
    22    19    15   ar
    23    12     7   ar
    24     1    21    1
    25     2    22    1
    26     8    23    1
    27     9    24    1
    28    10    25    1
    29    11    26    1
    30    16    27    1
    31    17    28    1
    32    18    29    1
    33    20    30    1
