@<TRIPOS>MOLECULE
*****
 23 25 0 0 0
SMALL
GASTEIGER

@<TRIPOS>ATOM
      1 CL         -4.9656   -1.0877    0.0850 Cl      1  UNL1       -0.0820
      2 C          -3.3638   -0.3469    0.1659 C.ar    1  UNL1        0.0598
      3 C          -3.3449    0.9817    0.5345 C.ar    1  UNL1       -0.0386
      4 C          -2.1068    1.6307    0.6183 C.ar    1  UNL1       -0.0178
      5 C          -0.9828    0.9082    0.3292 C.ar    1  UNL1        0.1491
      6 N           0.2906    1.5352    0.4042 N.2     1  UNL1       -0.0760
      7 C           1.4083    0.9382    0.1505 C.2     1  UNL1        0.3800
      8 N           2.7373    1.4454    0.1877 N.am    1  UNL1       -0.1735
      9 C           3.5910    0.3581   -0.1818 C.2     1  UNL1        0.3072
     10 O           4.8455    0.3528   -0.2815 O.2     1  UNL1       -0.2540
     11 C           2.7654   -0.8565   -0.4555 C.3     1  UNL1        0.1521
     12 N           1.3983   -0.4312   -0.2301 N.pl3   1  UNL1       -0.2100
     13 C           0.2004   -1.2383   -0.3611 C.3     1  UNL1        0.0911
     14 C          -1.0146   -0.4240   -0.0393 C.ar    1  UNL1        0.0458
     15 C          -2.2247   -1.0833   -0.1283 C.ar    1  UNL1        0.0686
     16 CL         -2.3981   -2.7633   -0.5826 Cl      1  UNL1       -0.0815
     17 H          -4.2427    1.5420    0.7607 H       1  UNL1        0.0634
     18 H          -2.0028    2.6730    0.9004 H       1  UNL1        0.0654
     19 H           3.0432    2.4252    0.4367 H       1  UNL1        0.2541
     20 H           2.9599   -1.1112   -1.5358 H       1  UNL1        0.0748
     21 H           3.0875   -1.6935    0.1949 H       1  UNL1        0.0748
     22 H           0.0982   -1.6858   -1.3741 H       1  UNL1        0.0687
     23 H           0.2211   -2.0689    0.4021 H       1  UNL1        0.0687
@<TRIPOS>BOND
     1     1     2    1
     2     2     3   ar
     3     3     4   ar
     4     4     5   ar
     5     5     6    1
     6     6     7    2
     7     7     8    1
     8     8     9   am
     9     9    10    2
    10     9    11    1
    11    11    12    1
    12    12    13    1
    13    13    14    1
    14    14    15   ar
    15    15    16    1
    16    15     2   ar
    17    14     5   ar
    18    12     7    1
    19     3    17    1
    20     4    18    1
    21     8    19    1
    22    11    20    1
    23    11    21    1
    24    13    22    1
    25    13    23    1
