
     RDKit          3D

 23 25  0  0  0  0  0  0  0  0999 V2000
   -4.9656   -1.0877    0.0850 Cl  0  0  0  0  0  0  0  0  0  0  0  0
   -3.3638   -0.3469    0.1659 C   0  0  0  0  0  0  0  0  0  0  0  0
   -3.3449    0.9817    0.5345 C   0  0  0  0  0  0  0  0  0  0  0  0
   -2.1068    1.6307    0.6183 C   0  0  0  0  0  0  0  0  0  0  0  0
   -0.9828    0.9082    0.3292 C   0  0  0  0  0  0  0  0  0  0  0  0
    0.2906    1.5352    0.4042 N   0  0  0  0  0  0  0  0  0  0  0  0
    1.4083    0.9382    0.1505 C   0  0  0  0  0  0  0  0  0  0  0  0
    2.7373    1.4454    0.1877 N   0  0  0  0  0  0  0  0  0  0  0  0
    3.5910    0.3581   -0.1818 C   0  0  0  0  0  0  0  0  0  0  0  0
    4.8455    0.3528   -0.2815 O   0  0  0  0  0  0  0  0  0  0  0  0
    2.7654   -0.8565   -0.4555 C   0  0  0  0  0  0  0  0  0  0  0  0
    1.3983   -0.4312   -0.2301 N   0  0  0  0  0  0  0  0  0  0  0  0
    0.2004   -1.2383   -0.3611 C   0  0  0  0  0  0  0  0  0  0  0  0
   -1.0146   -0.4240   -0.0393 C   0  0  0  0  0  0  0  0  0  0  0  0
   -2.2247   -1.0833   -0.1283 C   0  0  0  0  0  0  0  0  0  0  0  0
   -2.3981   -2.7633   -0.5826 Cl  0  0  0  0  0  0  0  0  0  0  0  0
   -4.2427    1.5420    0.7607 H   0  0  0  0  0  0  0  0  0  0  0  0
   -2.0028    2.6730    0.9004 H   0  0  0  0  0  0  0  0  0  0  0  0
    3.0432    2.4252    0.4367 H   0  0  0  0  0  0  0  0  0  0  0  0
    2.9599   -1.1112   -1.5358 H   0  0  0  0  0  0  0  0  0  0  0  0
    3.0875   -1.6935    0.1949 H   0  0  0  0  0  0  0  0  0  0  0  0
    0.0982   -1.6858   -1.3741 H   0  0  0  0  0  0  0  0  0  0  0  0
    0.2211   -2.0689    0.4021 H   0  0  0  0  0  0  0  0  0  0  0  0
  1  2  1  0
  2  3  2  0
  3  4  1  0
  4  5  2  0
  5  6  1  0
  6  7  2  0
  7  8  1  0
  8  9  1  0
  9 10  2  0
  9 11  1  0
 11 12  1  0
 12 13  1  0
 13 14  1  0
 14 15  2  0
 15 16  1  0
 15  2  1  0
 14  5  1  0
 12  7  1  0
  3 17  1  0
  4 18  1  0
  8 19  1  0
 11 20  1  0
 11 21  1  0
 13 22  1  0
 13 23  1  0
M  END
$$$$
