@<TRIPOS>MOLECULE
*****
 55 56 0 0 0
SMALL
GASTEIGER

@<TRIPOS>ATOM
      1 C           3.3783    0.0053   -0.6950 C.3     1  UNL1        0.0827
      2 N           3.6778   -0.6815   -1.9430 N.3     1  UNL1       -0.3199
      3 C           4.4743   -0.2686    0.3074 C.3     1  UNL1       -0.0269
      4 C           5.8285    0.2047   -0.1626 C.3     1  UNL1       -0.0449
      5 C           5.8151    1.6948   -0.4268 C.3     1  UNL1       -0.0626
      6 C           6.3600   -0.6137   -1.2989 C.3     1  UNL1       -0.0626
      7 C           2.0894   -0.4769   -0.1477 C.2     1  UNL1        0.2330
      8 O           1.8086   -1.4676   -0.8680 O.2     1  UNL1       -0.2739
      9 N           1.4392    0.1574    0.9602 N.am    1  UNL1       -0.2886
     10 C           1.9872    1.3326    1.6285 C.3     1  UNL1        0.0156
     11 C           0.7243    2.1384    1.9390 C.3     1  UNL1       -0.0350
     12 C          -0.4470    1.2164    1.7387 C.3     1  UNL1       -0.0243
     13 C           0.2116   -0.1469    1.6531 C.3     1  UNL1        0.1022
     14 C          -0.6570   -1.1259    0.9603 C.2     1  UNL1        0.2338
     15 O          -0.6522   -1.7699   -0.0957 O.2     1  UNL1       -0.2738
     16 N          -1.8314   -1.4217    1.7009 N.am    1  UNL1       -0.3097
     17 C          -2.8857   -2.3259    1.3148 C.3     1  UNL1        0.0369
     18 C          -3.7434   -1.6353    0.3138 C.ar    1  UNL1       -0.0303
     19 C          -4.7350   -0.8806    0.9489 C.ar    1  UNL1       -0.0563
     20 C          -5.6709   -0.1451    0.2355 C.ar    1  UNL1       -0.0466
     21 C          -5.6354   -0.1485   -1.1394 C.ar    1  UNL1        0.0647
     22 C          -4.6555   -0.8947   -1.7572 C.ar    1  UNL1       -0.0466
     23 C          -3.7302   -1.6218   -1.0619 C.ar    1  UNL1       -0.0563
     24 C          -6.6105    0.6183   -1.8905 C.2     1  UNL1        0.3081
     25 N          -7.9013    0.8239   -1.3334 N.pl3   1  UNL1       -0.2466
     26 N          -6.5815    1.2042   -3.0333 N.2     1  UNL1       -0.0994
     27 H           3.3827    1.0930   -0.9039 H       1  UNL1        0.0554
     28 H           2.7681   -0.9625   -2.4155 H       1  UNL1        0.1189
     29 H           4.0953    0.0099   -2.6419 H       1  UNL1        0.1189
     30 H           4.5494   -1.3592    0.5352 H       1  UNL1        0.0287
     31 H           4.2947    0.2258    1.2773 H       1  UNL1        0.0287
     32 H           6.5476    0.0717    0.7096 H       1  UNL1        0.0296
     33 H           6.6970    2.2205    0.0167 H       1  UNL1        0.0232
     34 H           5.8589    1.9274   -1.5245 H       1  UNL1        0.0232
     35 H           4.9165    2.1786    0.0111 H       1  UNL1        0.0232
     36 H           7.4164   -0.9646   -1.0755 H       1  UNL1        0.0232
     37 H           5.8144   -1.5625   -1.4815 H       1  UNL1        0.0232
     38 H           6.4344    0.0047   -2.2206 H       1  UNL1        0.0232
     39 H           2.4545    0.9925    2.5756 H       1  UNL1        0.0465
     40 H           2.6668    1.9213    0.9763 H       1  UNL1        0.0465
     41 H           0.7875    2.4455    3.0160 H       1  UNL1        0.0281
     42 H           0.6972    3.0286    1.2733 H       1  UNL1        0.0281
     43 H          -1.0007    1.4506    0.7861 H       1  UNL1        0.0288
     44 H          -1.1472    1.2705    2.5947 H       1  UNL1        0.0288
     45 H           0.4171   -0.4700    2.6874 H       1  UNL1        0.0597
     46 H          -2.0520   -0.9834    2.6475 H       1  UNL1        0.1491
     47 H          -2.4674   -3.2357    0.7919 H       1  UNL1        0.0512
     48 H          -3.4705   -2.7211    2.1532 H       1  UNL1        0.0512
     49 H          -4.8808   -0.7866    2.0304 H       1  UNL1        0.0621
     50 H          -6.4476    0.4468    0.7037 H       1  UNL1        0.0626
     51 H          -4.5792   -0.9341   -2.8357 H       1  UNL1        0.0626
     52 H          -2.9393   -2.2325   -1.4654 H       1  UNL1        0.0621
     53 H          -8.9320    0.7828   -1.4634 H       1  UNL1        0.2884
     54 H          -8.2042    1.1668   -0.3789 H       1  UNL1        0.2884
     55 H          -5.7348    1.2041   -3.6555 H       1  UNL1        0.3633
@<TRIPOS>BOND
     1     1     2    1
     2     1     3    1
     3     3     4    1
     4     4     5    1
     5     4     6    1
     6     1     7    1
     7     7     8    2
     8     7     9   am
     9     9    10    1
    10    10    11    1
    11    11    12    1
    12    12    13    1
    13    13    14    1
    14    14    15    2
    15    14    16   am
    16    16    17    1
    17    17    18    1
    18    18    19   ar
    19    19    20   ar
    20    20    21   ar
    21    21    22   ar
    22    22    23   ar
    23    21    24    1
    24    24    25    1
    25    24    26    2
    26    13     9    1
    27    23    18   ar
    28     1    27    1
    29     2    28    1
    30     2    29    1
    31     3    30    1
    32     3    31    1
    33     4    32    1
    34     5    33    1
    35     5    34    1
    36     5    35    1
    37     6    36    1
    38     6    37    1
    39     6    38    1
    40    10    39    1
    41    10    40    1
    42    11    41    1
    43    11    42    1
    44    12    43    1
    45    12    44    1
    46    13    45    1
    47    16    46    1
    48    17    47    1
    49    17    48    1
    50    19    49    1
    51    20    50    1
    52    22    51    1
    53    23    52    1
    54    25    53    1
    55    25    54    1
    56    26    55    1
