
     RDKit          3D

 55 56  0  0  0  0  0  0  0  0999 V2000
    3.3783    0.0053   -0.6950 C   0  0  2  0  0  0  0  0  0  0  0  0
    3.6778   -0.6815   -1.9430 N   0  0  0  0  0  0  0  0  0  0  0  0
    4.4743   -0.2686    0.3074 C   0  0  0  0  0  0  0  0  0  0  0  0
    5.8285    0.2047   -0.1626 C   0  0  0  0  0  0  0  0  0  0  0  0
    5.8151    1.6948   -0.4268 C   0  0  0  0  0  0  0  0  0  0  0  0
    6.3600   -0.6137   -1.2989 C   0  0  0  0  0  0  0  0  0  0  0  0
    2.0894   -0.4769   -0.1477 C   0  0  0  0  0  0  0  0  0  0  0  0
    1.8086   -1.4676   -0.8680 O   0  0  0  0  0  0  0  0  0  0  0  0
    1.4392    0.1574    0.9602 N   0  0  0  0  0  0  0  0  0  0  0  0
    1.9872    1.3326    1.6285 C   0  0  0  0  0  0  0  0  0  0  0  0
    0.7243    2.1384    1.9390 C   0  0  0  0  0  0  0  0  0  0  0  0
   -0.4470    1.2164    1.7387 C   0  0  0  0  0  0  0  0  0  0  0  0
    0.2116   -0.1469    1.6531 C   0  0  1  0  0  0  0  0  0  0  0  0
   -0.6570   -1.1259    0.9603 C   0  0  0  0  0  0  0  0  0  0  0  0
   -0.6522   -1.7699   -0.0957 O   0  0  0  0  0  0  0  0  0  0  0  0
   -1.8314   -1.4217    1.7009 N   0  0  0  0  0  0  0  0  0  0  0  0
   -2.8857   -2.3259    1.3148 C   0  0  0  0  0  0  0  0  0  0  0  0
   -3.7434   -1.6353    0.3138 C   0  0  0  0  0  0  0  0  0  0  0  0
   -4.7350   -0.8806    0.9489 C   0  0  0  0  0  0  0  0  0  0  0  0
   -5.6709   -0.1451    0.2355 C   0  0  0  0  0  0  0  0  0  0  0  0
   -5.6354   -0.1485   -1.1394 C   0  0  0  0  0  0  0  0  0  0  0  0
   -4.6555   -0.8947   -1.7572 C   0  0  0  0  0  0  0  0  0  0  0  0
   -3.7302   -1.6218   -1.0619 C   0  0  0  0  0  0  0  0  0  0  0  0
   -6.6105    0.6183   -1.8905 C   0  0  0  0  0  0  0  0  0  0  0  0
   -7.9013    0.8239   -1.3334 N   0  0  0  0  0  0  0  0  0  0  0  0
   -6.5815    1.2042   -3.0333 N   0  0  0  0  0  0  0  0  0  0  0  0
    3.3827    1.0930   -0.9039 H   0  0  0  0  0  0  0  0  0  0  0  0
    2.7681   -0.9625   -2.4155 H   0  0  0  0  0  0  0  0  0  0  0  0
    4.0953    0.0099   -2.6419 H   0  0  0  0  0  0  0  0  0  0  0  0
    4.5494   -1.3592    0.5352 H   0  0  0  0  0  0  0  0  0  0  0  0
    4.2947    0.2258    1.2773 H   0  0  0  0  0  0  0  0  0  0  0  0
    6.5476    0.0717    0.7096 H   0  0  0  0  0  0  0  0  0  0  0  0
    6.6970    2.2205    0.0167 H   0  0  0  0  0  0  0  0  0  0  0  0
    5.8589    1.9274   -1.5245 H   0  0  0  0  0  0  0  0  0  0  0  0
    4.9165    2.1786    0.0111 H   0  0  0  0  0  0  0  0  0  0  0  0
    7.4164   -0.9646   -1.0755 H   0  0  0  0  0  0  0  0  0  0  0  0
    5.8144   -1.5625   -1.4815 H   0  0  0  0  0  0  0  0  0  0  0  0
    6.4344    0.0047   -2.2206 H   0  0  0  0  0  0  0  0  0  0  0  0
    2.4545    0.9925    2.5756 H   0  0  0  0  0  0  0  0  0  0  0  0
    2.6668    1.9213    0.9763 H   0  0  0  0  0  0  0  0  0  0  0  0
    0.7875    2.4455    3.0160 H   0  0  0  0  0  0  0  0  0  0  0  0
    0.6972    3.0286    1.2733 H   0  0  0  0  0  0  0  0  0  0  0  0
   -1.0007    1.4506    0.7861 H   0  0  0  0  0  0  0  0  0  0  0  0
   -1.1472    1.2705    2.5947 H   0  0  0  0  0  0  0  0  0  0  0  0
    0.4171   -0.4700    2.6874 H   0  0  0  0  0  0  0  0  0  0  0  0
   -2.0520   -0.9834    2.6475 H   0  0  0  0  0  0  0  0  0  0  0  0
   -2.4674   -3.2357    0.7919 H   0  0  0  0  0  0  0  0  0  0  0  0
   -3.4705   -2.7211    2.1532 H   0  0  0  0  0  0  0  0  0  0  0  0
   -4.8808   -0.7866    2.0304 H   0  0  0  0  0  0  0  0  0  0  0  0
   -6.4476    0.4468    0.7037 H   0  0  0  0  0  0  0  0  0  0  0  0
   -4.5792   -0.9341   -2.8357 H   0  0  0  0  0  0  0  0  0  0  0  0
   -2.9393   -2.2325   -1.4654 H   0  0  0  0  0  0  0  0  0  0  0  0
   -8.9320    0.7828   -1.4634 H   0  0  0  0  0  0  0  0  0  0  0  0
   -8.2042    1.1668   -0.3789 H   0  0  0  0  0  0  0  0  0  0  0  0
   -5.7348    1.2041   -3.6555 H   0  0  0  0  0  0  0  0  0  0  0  0
  1  2  1  0
  1  3  1  0
  3  4  1  0
  4  5  1  0
  4  6  1  0
  1  7  1  0
  7  8  2  0
  7  9  1  0
  9 10  1  0
 10 11  1  0
 11 12  1  0
 12 13  1  0
 13 14  1  0
 14 15  2  0
 14 16  1  0
 16 17  1  0
 17 18  1  0
 18 19  2  0
 19 20  1  0
 20 21  2  0
 21 22  1  0
 22 23  2  0
 21 24  1  0
 24 25  1  0
 24 26  2  3
 13  9  1  0
 23 18  1  0
  1 27  1  6
  2 28  1  0
  2 29  1  0
  3 30  1  0
  3 31  1  0
  4 32  1  0
  5 33  1  0
  5 34  1  0
  5 35  1  0
  6 36  1  0
  6 37  1  0
  6 38  1  0
 10 39  1  0
 10 40  1  0
 11 41  1  0
 11 42  1  0
 12 43  1  0
 12 44  1  0
 13 45  1  1
 16 46  1  0
 17 47  1  0
 17 48  1  0
 19 49  1  0
 20 50  1  0
 22 51  1  0
 23 52  1  0
 25 53  1  0
 25 54  1  0
 26 55  1  0
M  END
$$$$
