@<TRIPOS>MOLECULE
*****
 51 52 0 0 0
SMALL
GASTEIGER

@<TRIPOS>ATOM
      1 C          -7.7320    1.2762    0.5756 C.3     1  UNL1       -0.0499
      2 C          -6.1889    1.0912    0.4359 C.3     1  UNL1        0.0021
      3 C          -5.9395   -0.1069    1.3918 C.3     1  UNL1       -0.0499
      4 N          -5.9646    0.6473   -0.8500 N.3     1  UNL1       -0.3112
      5 C          -4.8266    0.6679   -1.5990 C.3     1  UNL1        0.0254
      6 C          -3.6000   -0.1018   -1.3070 C.3     1  UNL1        0.1015
      7 O          -2.7275    0.1355   -2.4137 O.3     1  UNL1       -0.3872
      8 C          -2.7882    0.5138   -0.1539 C.3     1  UNL1        0.1166
      9 O          -1.6101   -0.0511    0.0881 O.3     1  UNL1       -0.4894
     10 C          -0.4346   -0.2592   -0.4623 C.ar    1  UNL1        0.1206
     11 C           0.2654   -1.0033    0.5152 C.ar    1  UNL1       -0.0197
     12 C           1.5899   -1.4489    0.3423 C.ar    1  UNL1       -0.0550
     13 C           2.2436   -1.1437   -0.8465 C.ar    1  UNL1       -0.0450
     14 C           3.6330   -1.5566   -1.1374 C.3     1  UNL1       -0.0041
     15 C           4.6443   -0.5492   -0.7038 C.3     1  UNL1        0.0516
     16 O           4.6247   -0.2799    0.6441 O.3     1  UNL1       -0.3792
     17 C           5.5788    0.6605    1.0049 C.3     1  UNL1        0.0505
     18 C           6.9890    0.2651    0.7034 C.3     1  UNL1       -0.0175
     19 C           7.5999   -0.9488    1.2944 C.3     1  UNL1       -0.0478
     20 C           7.9084    0.3880    1.9217 C.3     1  UNL1       -0.0478
     21 C           1.6046   -0.4216   -1.8278 C.ar    1  UNL1       -0.0550
     22 C           0.3171   -0.0259   -1.5801 C.ar    1  UNL1       -0.0197
     23 H          -7.9843    2.3244    0.3010 H       1  UNL1        0.0245
     24 H          -8.2687    0.5620   -0.0739 H       1  UNL1        0.0245
     25 H          -8.0468    1.0754    1.6145 H       1  UNL1        0.0245
     26 H          -5.7550    2.0029    0.8145 H       1  UNL1        0.0455
     27 H          -5.2429   -0.8352    0.8810 H       1  UNL1        0.0245
     28 H          -6.8573   -0.6773    1.5863 H       1  UNL1        0.0245
     29 H          -5.5237    0.2505    2.3316 H       1  UNL1        0.0245
     30 H          -6.7789    0.2148   -1.3454 H       1  UNL1        0.1223
     31 H          -4.4824    1.7612   -1.7044 H       1  UNL1        0.0450
     32 H          -5.1207    0.4612   -2.6913 H       1  UNL1        0.0450
     33 H          -3.6843   -1.1876   -1.2397 H       1  UNL1        0.0640
     34 H          -3.2239    0.3983   -3.2130 H       1  UNL1        0.2100
     35 H          -2.6229    1.5892   -0.5165 H       1  UNL1        0.0723
     36 H          -3.3965    0.6734    0.7599 H       1  UNL1        0.0723
     37 H          -0.0157   -1.3697    1.5208 H       1  UNL1        0.0654
     38 H           2.2205   -2.0163    1.0063 H       1  UNL1        0.0621
     39 H           3.7283   -1.7416   -2.2082 H       1  UNL1        0.0335
     40 H           3.8526   -2.5297   -0.6194 H       1  UNL1        0.0335
     41 H           4.5631    0.3649   -1.3365 H       1  UNL1        0.0563
     42 H           5.6472   -0.9809   -0.9231 H       1  UNL1        0.0563
     43 H           5.3468    1.5714    0.3843 H       1  UNL1        0.0562
     44 H           5.4148    0.9882    2.0515 H       1  UNL1        0.0562
     45 H           7.3955    0.5894   -0.2771 H       1  UNL1        0.0323
     46 H           7.0020   -1.6790    1.8666 H       1  UNL1        0.0269
     47 H           8.4570   -1.3978    0.7698 H       1  UNL1        0.0269
     48 H           7.4743    0.5661    2.9093 H       1  UNL1        0.0269
     49 H           8.8741    0.8693    1.7376 H       1  UNL1        0.0269
     50 H           2.0383   -0.1468   -2.7683 H       1  UNL1        0.0621
     51 H          -0.1973    0.5508   -2.3087 H       1  UNL1        0.0654
@<TRIPOS>BOND
     1     1     2    1
     2     2     3    1
     3     2     4    1
     4     4     5    1
     5     5     6    1
     6     6     7    1
     7     6     8    1
     8     8     9    1
     9     9    10    1
    10    10    11   ar
    11    11    12   ar
    12    12    13   ar
    13    13    14    1
    14    14    15    1
    15    15    16    1
    16    16    17    1
    17    17    18    1
    18    18    19    1
    19    19    20    1
    20    13    21   ar
    21    21    22   ar
    22    22    10   ar
    23    20    18    1
    24     1    23    1
    25     1    24    1
    26     1    25    1
    27     2    26    1
    28     3    27    1
    29     3    28    1
    30     3    29    1
    31     4    30    1
    32     5    31    1
    33     5    32    1
    34     6    33    1
    35     7    34    1
    36     8    35    1
    37     8    36    1
    38    11    37    1
    39    12    38    1
    40    14    39    1
    41    14    40    1
    42    15    41    1
    43    15    42    1
    44    17    43    1
    45    17    44    1
    46    18    45    1
    47    19    46    1
    48    19    47    1
    49    20    48    1
    50    20    49    1
    51    21    50    1
    52    22    51    1
