@<TRIPOS>MOLECULE
*****
 58 62 0 0 0
SMALL
GASTEIGER

@<TRIPOS>ATOM
      1 C          -3.1896   -3.8840    2.2810 C.3     1  UNL1       -0.0397
      2 C          -3.3494   -2.7387    1.3387 C.ar    1  UNL1       -0.0496
      3 C          -3.8149   -2.9776    0.0620 C.ar    1  UNL1       -0.0567
      4 C          -3.9708   -1.9345   -0.8268 C.ar    1  UNL1       -0.0336
      5 C          -3.6733   -0.6243   -0.4863 C.ar    1  UNL1        0.0982
      6 N          -3.8510    0.4382   -1.4434 N.ar    1  UNL1       -0.1496
      7 N          -4.6681    0.3394   -2.4671 N.ar    1  UNL1       -0.1556
      8 C          -4.6144    1.4842   -3.1700 C.ar    1  UNL1        0.0697
      9 C          -3.7124    2.2884   -2.5101 C.ar    1  UNL1        0.0697
     10 N          -3.2701    1.6122   -1.4623 N.ar    1  UNL1       -0.1556
     11 C          -3.2082   -0.3866    0.7894 C.ar    1  UNL1        0.0642
     12 C          -2.8933    0.9899    1.1493 C.2     1  UNL1        0.2491
     13 O          -3.8135    1.6769    1.6388 O.2     1  UNL1       -0.2699
     14 N          -1.6221    1.5702    0.9737 N.am    1  UNL1       -0.2897
     15 C          -1.3738    2.9469    1.3520 C.3     1  UNL1        0.0388
     16 C          -0.5246    3.6913    0.3765 C.3     1  UNL1        0.0635
     17 O           0.5591    2.9493   -0.0794 O.3     1  UNL1       -0.3764
     18 C           0.1741    1.7127   -0.5866 C.3     1  UNL1        0.0666
     19 C          -0.5024    0.8356    0.4145 C.3     1  UNL1        0.0537
     20 C           0.4220    0.3353    1.5035 C.3     1  UNL1       -0.0068
     21 C           1.5656   -0.4127    0.9684 C.ar    1  UNL1       -0.0435
     22 C           1.5002   -1.7782    0.7743 C.ar    1  UNL1       -0.0581
     23 C           2.5910   -2.4709    0.2677 C.ar    1  UNL1       -0.0565
     24 C           3.7377   -1.7513   -0.0338 C.ar    1  UNL1       -0.0233
     25 C           4.9489   -2.4390   -0.5832 C.3     1  UNL1       -0.0376
     26 C           3.8245   -0.3812    0.1532 C.ar    1  UNL1        0.0893
     27 N           5.0201    0.3180   -0.1695 N.ar    1  UNL1       -0.1501
     28 N           5.9158    0.1122   -1.0948 N.ar    1  UNL1       -0.1556
     29 C           6.8925    1.0350   -1.0290 C.ar    1  UNL1        0.0697
     30 C           6.5673    1.8689    0.0183 C.ar    1  UNL1        0.0697
     31 N           5.4181    1.3995    0.5183 N.ar    1  UNL1       -0.1556
     32 C           2.7208    0.2775    0.6591 C.ar    1  UNL1       -0.0310
     33 C          -3.0558   -1.4397    1.6719 C.ar    1  UNL1       -0.0446
     34 H          -2.3795   -4.5457    1.9204 H       1  UNL1        0.0278
     35 H          -4.1263   -4.5135    2.2546 H       1  UNL1        0.0278
     36 H          -3.0424   -3.5414    3.3158 H       1  UNL1        0.0278
     37 H          -4.0562   -4.0105   -0.2264 H       1  UNL1        0.0621
     38 H          -4.3347   -2.1528   -1.8118 H       1  UNL1        0.0640
     39 H          -5.1792    1.7170   -4.0816 H       1  UNL1        0.0864
     40 H          -3.4536    3.2992   -2.8487 H       1  UNL1        0.0864
     41 H          -0.8654    2.9195    2.3429 H       1  UNL1        0.0487
     42 H          -2.3164    3.5152    1.4997 H       1  UNL1        0.0487
     43 H          -1.1467    4.1076   -0.4172 H       1  UNL1        0.0575
     44 H          -0.0788    4.5662    0.9319 H       1  UNL1        0.0575
     45 H          -0.4800    1.8078   -1.4727 H       1  UNL1        0.0578
     46 H           1.1044    1.2163   -0.9439 H       1  UNL1        0.0578
     47 H          -0.9010   -0.0437   -0.1061 H       1  UNL1        0.0526
     48 H           0.7432    1.1594    2.1729 H       1  UNL1        0.0332
     49 H          -0.2041   -0.3497    2.1398 H       1  UNL1        0.0332
     50 H           0.6079   -2.3588    1.0057 H       1  UNL1        0.0620
     51 H           2.5477   -3.5538    0.1107 H       1  UNL1        0.0621
     52 H           4.7988   -3.5488   -0.4970 H       1  UNL1        0.0278
     53 H           5.8720   -2.1456   -0.0471 H       1  UNL1        0.0278
     54 H           5.0754   -2.2070   -1.6576 H       1  UNL1        0.0278
     55 H           7.7739    1.1559   -1.6365 H       1  UNL1        0.0864
     56 H           7.1572    2.7260    0.3389 H       1  UNL1        0.0864
     57 H           2.8251    1.3470    0.7918 H       1  UNL1        0.0642
     58 H          -2.6907   -1.2291    2.6644 H       1  UNL1        0.0628
@<TRIPOS>BOND
     1     1     2    1
     2     2     3   ar
     3     3     4   ar
     4     4     5   ar
     5     5     6    1
     6     6     7   ar
     7     7     8   ar
     8     8     9   ar
     9     9    10   ar
    10     5    11   ar
    11    11    12    1
    12    12    13    2
    13    12    14   am
    14    14    15    1
    15    15    16    1
    16    16    17    1
    17    17    18    1
    18    18    19    1
    19    19    20    1
    20    20    21    1
    21    21    22   ar
    22    22    23   ar
    23    23    24   ar
    24    24    25    1
    25    24    26   ar
    26    26    27    1
    27    27    28   ar
    28    28    29   ar
    29    29    30   ar
    30    30    31   ar
    31    26    32   ar
    32    11    33   ar
    33    33     2   ar
    34    10     6   ar
    35    19    14    1
    36    32    21   ar
    37    31    27   ar
    38     1    34    1
    39     1    35    1
    40     1    36    1
    41     3    37    1
    42     4    38    1
    43     8    39    1
    44     9    40    1
    45    15    41    1
    46    15    42    1
    47    16    43    1
    48    16    44    1
    49    18    45    1
    50    18    46    1
    51    19    47    1
    52    20    48    1
    53    20    49    1
    54    22    50    1
    55    23    51    1
    56    25    52    1
    57    25    53    1
    58    25    54    1
    59    29    55    1
    60    30    56    1
    61    32    57    1
    62    33    58    1
