
     RDKit          3D

 58 62  0  0  0  0  0  0  0  0999 V2000
   -3.1896   -3.8840    2.2810 C   0  0  0  0  0  0  0  0  0  0  0  0
   -3.3494   -2.7387    1.3387 C   0  0  0  0  0  0  0  0  0  0  0  0
   -3.8149   -2.9776    0.0620 C   0  0  0  0  0  0  0  0  0  0  0  0
   -3.9708   -1.9345   -0.8268 C   0  0  0  0  0  0  0  0  0  0  0  0
   -3.6733   -0.6243   -0.4863 C   0  0  0  0  0  0  0  0  0  0  0  0
   -3.8510    0.4382   -1.4434 N   0  0  0  0  0  0  0  0  0  0  0  0
   -4.6681    0.3394   -2.4671 N   0  0  0  0  0  0  0  0  0  0  0  0
   -4.6144    1.4842   -3.1700 C   0  0  0  0  0  0  0  0  0  0  0  0
   -3.7124    2.2884   -2.5101 C   0  0  0  0  0  0  0  0  0  0  0  0
   -3.2701    1.6122   -1.4623 N   0  0  0  0  0  0  0  0  0  0  0  0
   -3.2082   -0.3866    0.7894 C   0  0  0  0  0  0  0  0  0  0  0  0
   -2.8933    0.9899    1.1493 C   0  0  0  0  0  0  0  0  0  0  0  0
   -3.8135    1.6769    1.6388 O   0  0  0  0  0  0  0  0  0  0  0  0
   -1.6221    1.5702    0.9737 N   0  0  0  0  0  0  0  0  0  0  0  0
   -1.3738    2.9469    1.3520 C   0  0  0  0  0  0  0  0  0  0  0  0
   -0.5246    3.6913    0.3765 C   0  0  0  0  0  0  0  0  0  0  0  0
    0.5591    2.9493   -0.0794 O   0  0  0  0  0  0  0  0  0  0  0  0
    0.1741    1.7127   -0.5866 C   0  0  0  0  0  0  0  0  0  0  0  0
   -0.5024    0.8356    0.4145 C   0  0  1  0  0  0  0  0  0  0  0  0
    0.4220    0.3353    1.5035 C   0  0  0  0  0  0  0  0  0  0  0  0
    1.5656   -0.4127    0.9684 C   0  0  0  0  0  0  0  0  0  0  0  0
    1.5002   -1.7782    0.7743 C   0  0  0  0  0  0  0  0  0  0  0  0
    2.5910   -2.4709    0.2677 C   0  0  0  0  0  0  0  0  0  0  0  0
    3.7377   -1.7513   -0.0338 C   0  0  0  0  0  0  0  0  0  0  0  0
    4.9489   -2.4390   -0.5832 C   0  0  0  0  0  0  0  0  0  0  0  0
    3.8245   -0.3812    0.1532 C   0  0  0  0  0  0  0  0  0  0  0  0
    5.0201    0.3180   -0.1695 N   0  0  0  0  0  0  0  0  0  0  0  0
    5.9158    0.1122   -1.0948 N   0  0  0  0  0  0  0  0  0  0  0  0
    6.8925    1.0350   -1.0290 C   0  0  0  0  0  0  0  0  0  0  0  0
    6.5673    1.8689    0.0183 C   0  0  0  0  0  0  0  0  0  0  0  0
    5.4181    1.3995    0.5183 N   0  0  0  0  0  0  0  0  0  0  0  0
    2.7208    0.2775    0.6591 C   0  0  0  0  0  0  0  0  0  0  0  0
   -3.0558   -1.4397    1.6719 C   0  0  0  0  0  0  0  0  0  0  0  0
   -2.3795   -4.5457    1.9204 H   0  0  0  0  0  0  0  0  0  0  0  0
   -4.1263   -4.5135    2.2546 H   0  0  0  0  0  0  0  0  0  0  0  0
   -3.0424   -3.5414    3.3158 H   0  0  0  0  0  0  0  0  0  0  0  0
   -4.0562   -4.0105   -0.2264 H   0  0  0  0  0  0  0  0  0  0  0  0
   -4.3347   -2.1528   -1.8118 H   0  0  0  0  0  0  0  0  0  0  0  0
   -5.1792    1.7170   -4.0816 H   0  0  0  0  0  0  0  0  0  0  0  0
   -3.4536    3.2992   -2.8487 H   0  0  0  0  0  0  0  0  0  0  0  0
   -0.8654    2.9195    2.3429 H   0  0  0  0  0  0  0  0  0  0  0  0
   -2.3164    3.5152    1.4997 H   0  0  0  0  0  0  0  0  0  0  0  0
   -1.1467    4.1076   -0.4172 H   0  0  0  0  0  0  0  0  0  0  0  0
   -0.0788    4.5662    0.9319 H   0  0  0  0  0  0  0  0  0  0  0  0
   -0.4800    1.8078   -1.4727 H   0  0  0  0  0  0  0  0  0  0  0  0
    1.1044    1.2163   -0.9439 H   0  0  0  0  0  0  0  0  0  0  0  0
   -0.9010   -0.0437   -0.1061 H   0  0  0  0  0  0  0  0  0  0  0  0
    0.7432    1.1594    2.1729 H   0  0  0  0  0  0  0  0  0  0  0  0
   -0.2041   -0.3497    2.1398 H   0  0  0  0  0  0  0  0  0  0  0  0
    0.6079   -2.3588    1.0057 H   0  0  0  0  0  0  0  0  0  0  0  0
    2.5477   -3.5538    0.1107 H   0  0  0  0  0  0  0  0  0  0  0  0
    4.7988   -3.5488   -0.4970 H   0  0  0  0  0  0  0  0  0  0  0  0
    5.8720   -2.1456   -0.0471 H   0  0  0  0  0  0  0  0  0  0  0  0
    5.0754   -2.2070   -1.6576 H   0  0  0  0  0  0  0  0  0  0  0  0
    7.7739    1.1559   -1.6365 H   0  0  0  0  0  0  0  0  0  0  0  0
    7.1572    2.7260    0.3389 H   0  0  0  0  0  0  0  0  0  0  0  0
    2.8251    1.3470    0.7918 H   0  0  0  0  0  0  0  0  0  0  0  0
   -2.6907   -1.2291    2.6644 H   0  0  0  0  0  0  0  0  0  0  0  0
  1  2  1  0
  2  3  2  0
  3  4  1  0
  4  5  2  0
  5  6  1  0
  6  7  1  0
  7  8  2  0
  8  9  1  0
  9 10  2  0
  5 11  1  0
 11 12  1  0
 12 13  2  0
 12 14  1  0
 14 15  1  0
 15 16  1  0
 16 17  1  0
 17 18  1  0
 18 19  1  0
 19 20  1  0
 20 21  1  0
 21 22  2  0
 22 23  1  0
 23 24  2  0
 24 25  1  0
 24 26  1  0
 26 27  1  0
 27 28  1  0
 28 29  2  0
 29 30  1  0
 30 31  2  0
 26 32  2  0
 11 33  2  0
 33  2  1  0
 10  6  1  0
 19 14  1  0
 32 21  1  0
 31 27  1  0
  1 34  1  0
  1 35  1  0
  1 36  1  0
  3 37  1  0
  4 38  1  0
  8 39  1  0
  9 40  1  0
 15 41  1  0
 15 42  1  0
 16 43  1  0
 16 44  1  0
 18 45  1  0
 18 46  1  0
 19 47  1  6
 20 48  1  0
 20 49  1  0
 22 50  1  0
 23 51  1  0
 25 52  1  0
 25 53  1  0
 25 54  1  0
 29 55  1  0
 30 56  1  0
 32 57  1  0
 33 58  1  0
M  END
$$$$
