@<TRIPOS>MOLECULE
*****
 48 52 0 0 0
SMALL
GASTEIGER

@<TRIPOS>ATOM
      1 C          -8.1868    0.3403    1.5785 C.3     1  UNL1       -0.0159
      2 C          -6.9614   -0.3885    1.0680 C.ar    1  UNL1        0.0760
      3 N          -5.9881   -0.3428    0.5078 N.ar    1  UNL1       -0.2412
      4 C          -5.0711   -1.2508    0.2190 C.ar    1  UNL1        0.1154
      5 C          -3.8092   -0.9980   -0.5377 C.ar    1  UNL1        0.1832
      6 N          -3.5569   -1.2509   -1.8140 N.ar    1  UNL1       -0.1275
      7 N          -2.3096   -0.8749   -2.1112 N.ar    1  UNL1       -0.1320
      8 C          -1.7520   -0.3654   -0.9885 C.ar    1  UNL1        0.1542
      9 N          -2.6701   -0.4479   -0.0487 N.ar    1  UNL1       -0.3066
     10 C          -2.4469    0.0074    1.3226 C.3     1  UNL1        0.0423
     11 C          -1.6268    1.2980    1.1606 C.3     1  UNL1        0.0338
     12 N          -0.3649    0.8452    0.5877 N.am    1  UNL1       -0.2860
     13 C           0.8209    1.0397    1.2877 C.2     1  UNL1        0.2472
     14 O           0.8186    1.6068    2.4337 O.2     1  UNL1       -0.2700
     15 C           2.1225    0.6086    0.7499 C.ar    1  UNL1        0.0370
     16 C           2.4652   -0.7030    0.5574 C.ar    1  UNL1       -0.0490
     17 C           3.7130   -1.0432    0.0414 C.ar    1  UNL1       -0.0528
     18 C           4.6409   -0.0810   -0.2901 C.ar    1  UNL1       -0.0113
     19 C           5.9493   -0.4184   -0.8191 C.ar    1  UNL1        0.0193
     20 C           6.9978    0.3893   -1.2224 C.ar    1  UNL1       -0.0469
     21 C           8.1000   -0.1559   -1.6741 C.ar    1  UNL1       -0.0541
     22 C           8.2184   -1.5577   -1.7501 C.ar    1  UNL1       -0.0237
     23 S           6.5909   -2.0314   -1.1087 S.2     1  UNL1       -0.0967
     24 C           4.2989    1.2128   -0.0973 C.ar    1  UNL1       -0.0528
     25 C           3.0733    1.5753    0.4100 C.ar    1  UNL1       -0.0490
     26 C          -0.4126    0.2050   -0.6919 C.3     1  UNL1        0.0834
     27 C          -0.0335    1.2413   -1.7420 C.3     1  UNL1       -0.0393
     28 C          -5.3911   -2.5341    0.7210 C.ar    1  UNL1        0.0064
     29 S          -6.9916   -2.2164    1.5438 S.2     1  UNL1       -0.0801
     30 H          -8.3478    1.1331    0.8143 H       1  UNL1        0.0298
     31 H          -9.0279   -0.3275    1.7013 H       1  UNL1        0.0298
     32 H          -7.9025    0.8266    2.5403 H       1  UNL1        0.0298
     33 H          -3.3673    0.1730    1.8858 H       1  UNL1        0.0508
     34 H          -1.7824   -0.7621    1.7899 H       1  UNL1        0.0508
     35 H          -2.1327    1.8572    0.3323 H       1  UNL1        0.0482
     36 H          -1.5244    1.8509    2.0910 H       1  UNL1        0.0482
     37 H           1.7459   -1.4656    0.8260 H       1  UNL1        0.0625
     38 H           3.9439   -2.0763   -0.0951 H       1  UNL1        0.0624
     39 H           6.8357    1.4967   -1.1377 H       1  UNL1        0.0629
     40 H           8.9970    0.4315   -2.0203 H       1  UNL1        0.0623
     41 H           8.9839   -2.1777   -2.0690 H       1  UNL1        0.0693
     42 H           5.0285    1.9804   -0.3517 H       1  UNL1        0.0624
     43 H           2.7796    2.6008    0.5738 H       1  UNL1        0.0625
     44 H           0.3016   -0.6401   -0.8202 H       1  UNL1        0.0579
     45 H           0.6727    0.8119   -2.4985 H       1  UNL1        0.0252
     46 H           0.4162    2.1268   -1.2631 H       1  UNL1        0.0252
     47 H          -0.9859    1.5450   -2.2596 H       1  UNL1        0.0252
     48 H          -4.8711   -3.4863    0.6669 H       1  UNL1        0.0716
@<TRIPOS>BOND
     1     1     2    1
     2     2     3   ar
     3     3     4   ar
     4     4     5    1
     5     5     6   ar
     6     6     7   ar
     7     7     8   ar
     8     8     9   ar
     9     9    10    1
    10    10    11    1
    11    11    12    1
    12    12    13   am
    13    13    14    2
    14    13    15    1
    15    15    16   ar
    16    16    17   ar
    17    17    18   ar
    18    18    19    1
    19    19    20   ar
    20    20    21   ar
    21    21    22   ar
    22    22    23   ar
    23    18    24   ar
    24    24    25   ar
    25    12    26    1
    26    26    27    1
    27     4    28   ar
    28    28    29   ar
    29    29     2   ar
    30     9     5   ar
    31    25    15   ar
    32    26     8    1
    33    23    19   ar
    34     1    30    1
    35     1    31    1
    36     1    32    1
    37    10    33    1
    38    10    34    1
    39    11    35    1
    40    11    36    1
    41    16    37    1
    42    17    38    1
    43    20    39    1
    44    21    40    1
    45    22    41    1
    46    24    42    1
    47    25    43    1
    48    26    44    1
    49    27    45    1
    50    27    46    1
    51    27    47    1
    52    28    48    1
