@<TRIPOS>MOLECULE
*****
 51 55 0 0 0
SMALL
GASTEIGER

@<TRIPOS>ATOM
      1 C           3.7717   -0.4720    2.7908 C.3     1  UNL1        0.0788
      2 O           3.0380   -0.4566    1.5797 O.3     1  UNL1       -0.4945
      3 C           3.3773   -1.2783    0.5133 C.ar    1  UNL1        0.1278
      4 C           4.4507   -2.1662    0.5573 C.ar    1  UNL1       -0.0193
      5 C           4.7172   -2.9540   -0.5645 C.ar    1  UNL1       -0.0583
      6 C           3.9560   -2.8887   -1.7226 C.ar    1  UNL1       -0.0610
      7 C           2.8854   -1.9995   -1.7591 C.ar    1  UNL1       -0.0505
      8 C           2.6167   -1.2105   -0.6386 C.ar    1  UNL1        0.0246
      9 C           1.4873   -0.2925   -0.7170 C.ar    1  UNL1        0.0004
     10 C           0.2431   -0.7341   -0.3221 C.ar    1  UNL1       -0.0290
     11 C          -0.8089    0.1211   -0.3952 C.ar    1  UNL1        0.0514
     12 C          -0.6708    1.4117   -0.8505 C.ar    1  UNL1        0.0206
     13 C          -1.8590    2.0481   -0.8239 C.ar    1  UNL1        0.0118
     14 C          -2.7582    1.1270   -0.3390 C.ar    1  UNL1        0.0503
     15 C          -4.1088    1.3869   -0.1553 C.ar    1  UNL1       -0.0341
     16 C          -4.6201    2.6379   -0.4675 C.ar    1  UNL1       -0.0182
     17 C          -3.7353    3.6026   -0.9640 C.ar    1  UNL1        0.1176
     18 O          -4.2526    4.8550   -1.2756 O.3     1  UNL1       -0.5067
     19 C          -2.4140    3.2563   -1.1133 C.ar    1  UNL1       -0.0104
     20 N          -2.1027   -0.0394   -0.0835 N.ar    1  UNL1       -0.3397
     21 C          -2.6736   -1.2766    0.4405 C.3     1  UNL1        0.0259
     22 C          -2.6422   -1.3390    1.9297 C.3     1  UNL1       -0.0117
     23 C          -3.2561   -2.6578    2.3551 C.3     1  UNL1        0.0458
     24 O          -2.5884   -3.7630    1.8622 O.3     1  UNL1       -0.3949
     25 C           0.5547    1.8545   -1.2420 C.ar    1  UNL1        0.0595
     26 C           1.6376    1.0122   -1.1794 C.ar    1  UNL1        0.0577
     27 C           2.8736    1.6396   -1.6343 C.2     1  UNL1        0.2518
     28 O           4.0235    1.1332   -1.6963 O.2     1  UNL1       -0.2697
     29 N           2.4608    2.9745   -1.9941 N.am    1  UNL1       -0.2483
     30 C           1.0703    3.0871   -1.7535 C.2     1  UNL1        0.2519
     31 O           0.5768    4.1891   -2.0200 O.2     1  UNL1       -0.2697
     32 H           4.7081    0.1093    2.5871 H       1  UNL1        0.0660
     33 H           4.0048   -1.5322    3.0502 H       1  UNL1        0.0660
     34 H           3.1628   -0.0072    3.5979 H       1  UNL1        0.0660
     35 H           5.0510   -2.2314    1.4432 H       1  UNL1        0.0654
     36 H           5.5714   -3.6325   -0.4737 H       1  UNL1        0.0619
     37 H           4.2381   -3.5406   -2.5468 H       1  UNL1        0.0618
     38 H           2.2942   -1.9530   -2.6670 H       1  UNL1        0.0625
     39 H           0.1484   -1.7458    0.0320 H       1  UNL1        0.0645
     40 H          -4.7611    0.6383    0.2232 H       1  UNL1        0.0639
     41 H          -5.6667    2.7962   -0.3109 H       1  UNL1        0.0655
     42 H          -3.8385    5.6805   -0.8349 H       1  UNL1        0.2921
     43 H          -1.8218    4.0501   -1.4946 H       1  UNL1        0.0661
     44 H          -3.7452   -1.3933    0.1328 H       1  UNL1        0.0493
     45 H          -2.1346   -2.1641    0.0526 H       1  UNL1        0.0493
     46 H          -3.2564   -0.5502    2.4181 H       1  UNL1        0.0304
     47 H          -1.5928   -1.3444    2.3221 H       1  UNL1        0.0304
     48 H          -4.2927   -2.6806    1.9121 H       1  UNL1        0.0558
     49 H          -3.3988   -2.7094    3.4521 H       1  UNL1        0.0558
     50 H          -3.1091   -4.2364    1.1465 H       1  UNL1        0.2094
     51 H           3.1891    3.6383   -2.3595 H       1  UNL1        0.1581
@<TRIPOS>BOND
     1     1     2    1
     2     2     3    1
     3     3     4   ar
     4     4     5   ar
     5     5     6   ar
     6     6     7   ar
     7     7     8   ar
     8     8     9    1
     9     9    10   ar
    10    10    11   ar
    11    11    12   ar
    12    12    13   ar
    13    13    14   ar
    14    14    15   ar
    15    15    16   ar
    16    16    17   ar
    17    17    18    1
    18    17    19   ar
    19    14    20   ar
    20    20    21    1
    21    21    22    1
    22    22    23    1
    23    23    24    1
    24    12    25   ar
    25    25    26   ar
    26    26    27    1
    27    27    28    2
    28    27    29   am
    29    29    30   am
    30    30    31    2
    31     8     3   ar
    32    26     9   ar
    33    20    11   ar
    34    30    25    1
    35    19    13   ar
    36     1    32    1
    37     1    33    1
    38     1    34    1
    39     4    35    1
    40     5    36    1
    41     6    37    1
    42     7    38    1
    43    10    39    1
    44    15    40    1
    45    16    41    1
    46    18    42    1
    47    19    43    1
    48    21    44    1
    49    21    45    1
    50    22    46    1
    51    22    47    1
    52    23    48    1
    53    23    49    1
    54    24    50    1
    55    29    51    1
