@<TRIPOS>MOLECULE
*****
 45 49 0 0 0
SMALL
GASTEIGER

@<TRIPOS>ATOM
      1 N          -2.3325    2.4492    0.2508 N.3     1  UNL1       -0.3248
      2 C          -1.7430    1.2425   -0.2908 C.3     1  UNL1        0.0371
      3 C          -0.2668    1.1435    0.0340 C.3     1  UNL1       -0.0172
      4 C           0.2751   -0.0514   -0.6958 C.3     1  UNL1        0.0360
      5 N           1.2645   -0.6994    0.1138 N.3     1  UNL1       -0.2871
      6 C           1.8598   -1.8548   -0.4725 C.3     1  UNL1        0.0441
      7 C           3.3325   -1.6634   -0.4232 C.ar    1  UNL1        0.0855
      8 N           4.5023   -2.2167   -0.7018 N.ar    1  UNL1       -0.1505
      9 N           5.5026   -1.3906   -0.3547 N.ar    1  UNL1       -0.1310
     10 N           6.8024   -1.5632   -0.4649 N.ar    1  UNL1       -0.1542
     11 C           7.6206   -0.5829   -0.0438 C.ar    1  UNL1        0.0681
     12 C           7.1021    0.5667    0.4872 C.ar    1  UNL1        0.0498
     13 N           5.7666    0.6934    0.5777 N.ar    1  UNL1       -0.2329
     14 C           4.9347   -0.2800    0.1600 C.ar    1  UNL1        0.1808
     15 C           3.5688   -0.4407    0.1218 C.ar    1  UNL1        0.0367
     16 C           2.2955    0.2263    0.4542 C.3     1  UNL1        0.0302
     17 C          -0.8634   -0.9620   -1.0837 C.3     1  UNL1        0.0641
     18 O          -1.8072   -1.1251   -0.1020 O.3     1  UNL1       -0.3688
     19 C          -2.3992    0.0238    0.3504 C.3     1  UNL1        0.1015
     20 C          -3.8638    0.0509    0.2441 C.ar    1  UNL1        0.0205
     21 C          -4.6214    0.6550    1.2425 C.ar    1  UNL1       -0.0180
     22 C          -5.9980    0.7030    1.1822 C.ar    1  UNL1        0.1239
     23 F          -6.7199    1.2937    2.1603 F       1  UNL1       -0.2055
     24 C          -6.6780    0.1490    0.1209 C.ar    1  UNL1       -0.0237
     25 C          -5.9327   -0.4531   -0.8752 C.ar    1  UNL1       -0.0234
     26 C          -4.5620   -0.4950   -0.8047 C.ar    1  UNL1        0.1292
     27 F          -3.9002   -1.0996   -1.8138 F       1  UNL1       -0.2051
     28 H          -1.7551    3.2669   -0.0457 H       1  UNL1        0.1186
     29 H          -2.2597    2.3912    1.2897 H       1  UNL1        0.1186
     30 H          -1.8508    1.2524   -1.3753 H       1  UNL1        0.0488
     31 H          -0.2024    0.9944    1.1482 H       1  UNL1        0.0297
     32 H           0.2119    2.0958   -0.2728 H       1  UNL1        0.0297
     33 H           0.7931    0.3346   -1.6044 H       1  UNL1        0.0486
     34 H           1.6356   -2.7268    0.2043 H       1  UNL1        0.0492
     35 H           1.5442   -2.0574   -1.5164 H       1  UNL1        0.0492
     36 H           8.6870   -0.7668   -0.1533 H       1  UNL1        0.0863
     37 H           7.7908    1.3352    0.8162 H       1  UNL1        0.0846
     38 H           2.3269    0.4250    1.5645 H       1  UNL1        0.0478
     39 H           2.1915    1.2181   -0.0202 H       1  UNL1        0.0478
     40 H          -1.2628   -0.5797   -2.0476 H       1  UNL1        0.0576
     41 H          -0.4863   -1.9984   -1.3302 H       1  UNL1        0.0576
     42 H          -2.1406    0.1082    1.4474 H       1  UNL1        0.0663
     43 H          -4.1178    1.0983    2.0875 H       1  UNL1        0.0651
     44 H          -7.7693    0.1777    0.0564 H       1  UNL1        0.0647
     45 H          -6.4755   -0.8877   -1.7087 H       1  UNL1        0.0647
@<TRIPOS>BOND
     1     1     2    1
     2     2     3    1
     3     3     4    1
     4     4     5    1
     5     5     6    1
     6     6     7    1
     7     7     8   ar
     8     8     9   ar
     9     9    10   ar
    10    10    11   ar
    11    11    12   ar
    12    12    13   ar
    13    13    14   ar
    14    14    15   ar
    15    15    16    1
    16     4    17    1
    17    17    18    1
    18    18    19    1
    19    19    20    1
    20    20    21   ar
    21    21    22   ar
    22    22    23    1
    23    22    24   ar
    24    24    25   ar
    25    25    26   ar
    26    26    27    1
    27    19     2    1
    28    26    20   ar
    29    16     5    1
    30    15     7   ar
    31    14     9   ar
    32     1    28    1
    33     1    29    1
    34     2    30    1
    35     3    31    1
    36     3    32    1
    37     4    33    1
    38     6    34    1
    39     6    35    1
    40    11    36    1
    41    12    37    1
    42    16    38    1
    43    16    39    1
    44    17    40    1
    45    17    41    1
    46    19    42    1
    47    21    43    1
    48    24    44    1
    49    25    45    1
