
     RDKit          3D

 61 65  0  0  0  0  0  0  0  0999 V2000
   -2.9371    0.4672    1.9475 O   0  0  0  0  0  0  0  0  0  0  0  0
   -2.7198    0.3658    0.7161 C   0  0  0  0  0  0  0  0  0  0  0  0
   -1.3737    0.3253    0.2041 C   0  0  0  0  0  0  0  0  0  0  0  0
   -0.3743   -0.1985    0.9963 C   0  0  0  0  0  0  0  0  0  0  0  0
    0.9613   -0.2559    0.6019 C   0  0  0  0  0  0  0  0  0  0  0  0
    1.3520    0.2190   -0.6261 C   0  0  0  0  0  0  0  0  0  0  0  0
    2.6082    0.2168   -1.1198 O   0  0  0  0  0  0  0  0  0  0  0  0
    3.8176   -0.2195   -0.6501 C   0  0  0  0  0  0  0  0  0  0  0  0
    3.9748   -1.6791   -0.3782 C   0  0  0  0  0  0  0  0  0  0  0  0
    5.3006   -1.9386    0.1057 N   0  0  0  0  0  0  0  0  0  0  0  0
    5.6066   -1.4186    1.3949 C   0  0  0  0  0  0  0  0  0  0  0  0
    7.0487   -1.8498    1.7026 C   0  0  0  0  0  0  0  0  0  0  0  0
    7.9278   -0.8674    0.9276 C   0  0  0  0  0  0  0  0  0  0  0  0
    7.3159   -0.6386   -0.4223 C   0  0  0  0  0  0  0  0  0  0  0  0
    6.3552   -1.7341   -0.8267 C   0  0  0  0  0  0  0  0  0  0  0  0
    0.3330    0.7528   -1.4318 C   0  0  0  0  0  0  0  0  0  0  0  0
   -0.9807    0.8046   -1.0331 C   0  0  0  0  0  0  0  0  0  0  0  0
   -3.9366    0.2955   -0.1611 C   0  0  0  0  0  0  0  0  0  0  0  0
   -4.9540    1.1162    0.0543 C   0  0  0  0  0  0  0  0  0  0  0  0
   -5.2050    2.2537    0.9320 C   0  0  0  0  0  0  0  0  0  0  0  0
   -6.5328    2.6259    1.1865 C   0  0  0  0  0  0  0  0  0  0  0  0
   -6.8240    3.7325    1.9546 C   0  0  0  0  0  0  0  0  0  0  0  0
   -5.8137    4.5120    2.4995 C   0  0  0  0  0  0  0  0  0  0  0  0
   -6.0977    5.6260    3.2739 O   0  0  0  0  0  0  0  0  0  0  0  0
   -4.5188    4.1486    2.2498 C   0  0  0  0  0  0  0  0  0  0  0  0
   -4.2323    3.0153    1.4620 C   0  0  0  0  0  0  0  0  0  0  0  0
   -6.1940    0.5432   -1.0558 S   0  0  0  0  0  0  0  0  0  0  0  0
   -5.2371   -0.7922   -1.7589 C   0  0  0  0  0  0  0  0  0  0  0  0
   -5.5447   -1.7360   -2.7296 C   0  0  0  0  0  0  0  0  0  0  0  0
   -4.5854   -2.6810   -3.0736 C   0  0  0  0  0  0  0  0  0  0  0  0
   -4.8034   -3.6492   -4.0216 O   0  0  0  0  0  0  0  0  0  0  0  0
   -3.3805   -2.6209   -2.4239 C   0  0  0  0  0  0  0  0  0  0  0  0
   -3.1253   -1.6815   -1.4833 C   0  0  0  0  0  0  0  0  0  0  0  0
   -4.0509   -0.6940   -1.0876 C   0  0  0  0  0  0  0  0  0  0  0  0
   -0.6254   -0.5848    1.9676 H   0  0  0  0  0  0  0  0  0  0  0  0
    1.7194   -0.6628    1.2553 H   0  0  0  0  0  0  0  0  0  0  0  0
    4.1614    0.3835    0.2403 H   0  0  0  0  0  0  0  0  0  0  0  0
    4.5886    0.0340   -1.4376 H   0  0  0  0  0  0  0  0  0  0  0  0
    3.2180   -2.1203    0.2810 H   0  0  0  0  0  0  0  0  0  0  0  0
    3.8877   -2.2024   -1.3697 H   0  0  0  0  0  0  0  0  0  0  0  0
    4.9702   -1.8311    2.2037 H   0  0  0  0  0  0  0  0  0  0  0  0
    5.6340   -0.3101    1.4474 H   0  0  0  0  0  0  0  0  0  0  0  0
    7.2112   -2.8598    1.2634 H   0  0  0  0  0  0  0  0  0  0  0  0
    7.2539   -1.8284    2.7723 H   0  0  0  0  0  0  0  0  0  0  0  0
    7.9111    0.0870    1.5166 H   0  0  0  0  0  0  0  0  0  0  0  0
    8.9489   -1.2980    0.8508 H   0  0  0  0  0  0  0  0  0  0  0  0
    6.8771    0.3619   -0.5181 H   0  0  0  0  0  0  0  0  0  0  0  0
    8.1557   -0.6818   -1.1744 H   0  0  0  0  0  0  0  0  0  0  0  0
    6.9150   -2.6749   -1.0100 H   0  0  0  0  0  0  0  0  0  0  0  0
    5.9248   -1.4483   -1.8067 H   0  0  0  0  0  0  0  0  0  0  0  0
    0.6295    1.1347   -2.4111 H   0  0  0  0  0  0  0  0  0  0  0  0
   -1.7542    1.2148   -1.6569 H   0  0  0  0  0  0  0  0  0  0  0  0
   -7.3211    2.0220    0.7662 H   0  0  0  0  0  0  0  0  0  0  0  0
   -7.8515    4.0409    2.1646 H   0  0  0  0  0  0  0  0  0  0  0  0
   -5.8035    5.6930    4.2563 H   0  0  0  0  0  0  0  0  0  0  0  0
   -3.7168    4.7437    2.6658 H   0  0  0  0  0  0  0  0  0  0  0  0
   -3.2038    2.8279    1.2804 H   0  0  0  0  0  0  0  0  0  0  0  0
   -6.5069   -1.7472   -3.2160 H   0  0  0  0  0  0  0  0  0  0  0  0
   -5.6685   -3.5759   -4.5744 H   0  0  0  0  0  0  0  0  0  0  0  0
   -2.5824   -3.3584   -2.6679 H   0  0  0  0  0  0  0  0  0  0  0  0
   -2.1524   -1.7252   -1.0148 H   0  0  0  0  0  0  0  0  0  0  0  0
  1  2  2  0
  2  3  1  0
  3  4  2  0
  4  5  1  0
  5  6  2  0
  6  7  1  0
  7  8  1  0
  8  9  1  0
  9 10  1  0
 10 11  1  0
 11 12  1  0
 12 13  1  0
 13 14  1  0
 14 15  1  0
  6 16  1  0
 16 17  2  0
  2 18  1  0
 18 19  2  0
 19 20  1  0
 20 21  2  0
 21 22  1  0
 22 23  2  0
 23 24  1  0
 23 25  1  0
 25 26  2  0
 19 27  1  0
 27 28  1  0
 28 29  2  0
 29 30  1  0
 30 31  1  0
 30 32  2  0
 32 33  1  0
 33 34  2  0
 17  3  1  0
 34 18  1  0
 15 10  1  0
 26 20  1  0
 34 28  1  0
  4 35  1  0
  5 36  1  0
  8 37  1  0
  8 38  1  0
  9 39  1  0
  9 40  1  0
 11 41  1  0
 11 42  1  0
 12 43  1  0
 12 44  1  0
 13 45  1  0
 13 46  1  0
 14 47  1  0
 14 48  1  0
 15 49  1  0
 15 50  1  0
 16 51  1  0
 17 52  1  0
 21 53  1  0
 22 54  1  0
 24 55  1  0
 25 56  1  0
 26 57  1  0
 29 58  1  0
 31 59  1  0
 32 60  1  0
 33 61  1  0
M  END
$$$$
