@<TRIPOS>MOLECULE
*****
 61 65 0 0 0
SMALL
GASTEIGER

@<TRIPOS>ATOM
      1 O          -2.9371    0.4672    1.9475 O.2     1  UNL1       -0.2866
      2 C          -2.7198    0.3658    0.7161 C.2     1  UNL1        0.1948
      3 C          -1.3737    0.3253    0.2041 C.ar    1  UNL1        0.0225
      4 C          -0.3743   -0.1985    0.9963 C.ar    1  UNL1       -0.0475
      5 C           0.9613   -0.2559    0.6019 C.ar    1  UNL1       -0.0193
      6 C           1.3520    0.2190   -0.6261 C.ar    1  UNL1        0.1206
      7 O           2.6082    0.2168   -1.1198 O.3     1  UNL1       -0.4907
      8 C           3.8176   -0.2195   -0.6501 C.3     1  UNL1        0.1022
      9 C           3.9748   -1.6791   -0.3782 C.3     1  UNL1        0.0331
     10 N           5.3006   -1.9386    0.1057 N.3     1  UNL1       -0.2991
     11 C           5.6066   -1.4186    1.3949 C.3     1  UNL1       -0.0010
     12 C           7.0487   -1.8498    1.7026 C.3     1  UNL1       -0.0402
     13 C           7.9278   -0.8674    0.9276 C.3     1  UNL1       -0.0507
     14 C           7.3159   -0.6386   -0.4223 C.3     1  UNL1       -0.0402
     15 C           6.3552   -1.7341   -0.8267 C.3     1  UNL1       -0.0010
     16 C           0.3330    0.7528   -1.4318 C.ar    1  UNL1       -0.0193
     17 C          -0.9807    0.8046   -1.0331 C.ar    1  UNL1       -0.0475
     18 C          -3.9366    0.2955   -0.1611 C.ar    1  UNL1        0.0447
     19 C          -4.9540    1.1162    0.0543 C.ar    1  UNL1        0.0313
     20 C          -5.2050    2.2537    0.9320 C.ar    1  UNL1       -0.0104
     21 C          -6.5328    2.6259    1.1865 C.ar    1  UNL1       -0.0501
     22 C          -6.8240    3.7325    1.9546 C.ar    1  UNL1       -0.0196
     23 C          -5.8137    4.5120    2.4995 C.ar    1  UNL1        0.1169
     24 O          -6.0977    5.6260    3.2739 O.3     1  UNL1       -0.5068
     25 C          -4.5188    4.1486    2.2498 C.ar    1  UNL1       -0.0196
     26 C          -4.2323    3.0153    1.4620 C.ar    1  UNL1       -0.0501
     27 S          -6.1940    0.5432   -1.0558 S.2     1  UNL1       -0.0874
     28 C          -5.2371   -0.7922   -1.7589 C.ar    1  UNL1        0.0241
     29 C          -5.5447   -1.7360   -2.7296 C.ar    1  UNL1       -0.0058
     30 C          -4.5854   -2.6810   -3.0736 C.ar    1  UNL1        0.1180
     31 O          -4.8034   -3.6492   -4.0216 O.3     1  UNL1       -0.5067
     32 C          -3.3805   -2.6209   -2.4239 C.ar    1  UNL1       -0.0195
     33 C          -3.1253   -1.6815   -1.4833 C.ar    1  UNL1       -0.0494
     34 C          -4.0509   -0.6940   -1.0876 C.ar    1  UNL1        0.0008
     35 H          -0.6254   -0.5848    1.9676 H       1  UNL1        0.0626
     36 H           1.7194   -0.6628    1.2553 H       1  UNL1        0.0654
     37 H           4.1614    0.3835    0.2403 H       1  UNL1        0.0709
     38 H           4.5886    0.0340   -1.4376 H       1  UNL1        0.0709
     39 H           3.2180   -2.1203    0.2810 H       1  UNL1        0.0460
     40 H           3.8877   -2.2024   -1.3697 H       1  UNL1        0.0460
     41 H           4.9702   -1.8311    2.2037 H       1  UNL1        0.0427
     42 H           5.6340   -0.3101    1.4474 H       1  UNL1        0.0427
     43 H           7.2112   -2.8598    1.2634 H       1  UNL1        0.0278
     44 H           7.2539   -1.8284    2.7723 H       1  UNL1        0.0278
     45 H           7.9111    0.0870    1.5166 H       1  UNL1        0.0266
     46 H           8.9489   -1.2980    0.8508 H       1  UNL1        0.0266
     47 H           6.8771    0.3619   -0.5181 H       1  UNL1        0.0278
     48 H           8.1557   -0.6818   -1.1744 H       1  UNL1        0.0278
     49 H           6.9150   -2.6749   -1.0100 H       1  UNL1        0.0427
     50 H           5.9248   -1.4483   -1.8067 H       1  UNL1        0.0427
     51 H           0.6295    1.1347   -2.4111 H       1  UNL1        0.0654
     52 H          -1.7542    1.2148   -1.6569 H       1  UNL1        0.0626
     53 H          -7.3211    2.0220    0.7662 H       1  UNL1        0.0625
     54 H          -7.8515    4.0409    2.1646 H       1  UNL1        0.0654
     55 H          -5.8035    5.6930    4.2563 H       1  UNL1        0.2921
     56 H          -3.7168    4.7437    2.6658 H       1  UNL1        0.0654
     57 H          -3.2038    2.8279    1.2804 H       1  UNL1        0.0625
     58 H          -6.5069   -1.7472   -3.2160 H       1  UNL1        0.0665
     59 H          -5.6685   -3.5759   -4.5744 H       1  UNL1        0.2921
     60 H          -2.5824   -3.3584   -2.6679 H       1  UNL1        0.0654
     61 H          -2.1524   -1.7252   -1.0148 H       1  UNL1        0.0625
@<TRIPOS>BOND
     1     1     2    2
     2     2     3    1
     3     3     4   ar
     4     4     5   ar
     5     5     6   ar
     6     6     7    1
     7     7     8    1
     8     8     9    1
     9     9    10    1
    10    10    11    1
    11    11    12    1
    12    12    13    1
    13    13    14    1
    14    14    15    1
    15     6    16   ar
    16    16    17   ar
    17     2    18    1
    18    18    19   ar
    19    19    20    1
    20    20    21   ar
    21    21    22   ar
    22    22    23   ar
    23    23    24    1
    24    23    25   ar
    25    25    26   ar
    26    19    27   ar
    27    27    28   ar
    28    28    29   ar
    29    29    30   ar
    30    30    31    1
    31    30    32   ar
    32    32    33   ar
    33    33    34   ar
    34    17     3   ar
    35    34    18   ar
    36    15    10    1
    37    26    20   ar
    38    34    28   ar
    39     4    35    1
    40     5    36    1
    41     8    37    1
    42     8    38    1
    43     9    39    1
    44     9    40    1
    45    11    41    1
    46    11    42    1
    47    12    43    1
    48    12    44    1
    49    13    45    1
    50    13    46    1
    51    14    47    1
    52    14    48    1
    53    15    49    1
    54    15    50    1
    55    16    51    1
    56    17    52    1
    57    21    53    1
    58    22    54    1
    59    24    55    1
    60    25    56    1
    61    26    57    1
    62    29    58    1
    63    31    59    1
    64    32    60    1
    65    33    61    1
