
     RDKit          3D

 47 50  0  0  0  0  0  0  0  0999 V2000
    5.0824    2.3415   -1.3713 C   0  0  0  0  0  0  0  0  0  0  0  0
    5.2777    1.0883   -0.5868 C   0  0  0  0  0  0  0  0  0  0  0  0
    6.5335    0.5948   -0.3226 C   0  0  0  0  0  0  0  0  0  0  0  0
    6.7053   -0.5610    0.3987 C   0  0  0  0  0  0  0  0  0  0  0  0
    5.6004   -1.2480    0.8721 C   0  0  0  0  0  0  0  0  0  0  0  0
    4.3231   -0.7363    0.5970 C   0  0  0  0  0  0  0  0  0  0  0  0
    4.1417    0.4221   -0.1252 C   0  0  0  0  0  0  0  0  0  0  0  0
    2.8503    0.8885   -0.3704 O   0  0  0  0  0  0  0  0  0  0  0  0
    1.7051    0.6369    0.9168 P   0  0  1  0  0  5  0  0  0  0  0  0
    1.6630    1.9319    1.6942 O   0  0  0  0  0  0  0  0  0  0  0  0
    0.2159    0.1621    0.3340 O   0  0  0  0  0  0  0  0  0  0  0  0
   -0.3058   -0.7987    1.1807 C   0  0  0  0  0  0  0  0  0  0  0  0
   -1.6636   -1.2864    0.7238 C   0  0  1  0  0  0  0  0  0  0  0  0
   -2.5137   -0.1692    0.7040 O   0  0  0  0  0  0  0  0  0  0  0  0
   -3.6355   -0.7035    0.0365 C   0  0  1  0  0  0  0  0  0  0  0  0
   -4.5435    0.3705   -0.2328 N   0  0  0  0  0  0  0  0  0  0  0  0
   -4.2716    1.2919   -1.1620 C   0  0  0  0  0  0  0  0  0  0  0  0
   -5.1490    2.3375   -1.4285 C   0  0  0  0  0  0  0  0  0  0  0  0
   -4.8373    3.2442   -2.3721 F   0  0  0  0  0  0  0  0  0  0  0  0
   -6.3191    2.4188   -0.7171 C   0  0  0  0  0  0  0  0  0  0  0  0
   -7.1535    3.3479   -0.9176 O   0  0  0  0  0  0  0  0  0  0  0  0
   -6.5768    1.4728    0.2226 N   0  0  0  0  0  0  0  0  0  0  0  0
   -5.6890    0.4671    0.4498 C   0  0  0  0  0  0  0  0  0  0  0  0
   -5.9940   -0.3811    1.3415 O   0  0  0  0  0  0  0  0  0  0  0  0
   -3.0579   -1.3493   -1.1778 C   0  0  0  0  0  0  0  0  0  0  0  0
   -1.6620   -1.7594   -0.6922 C   0  0  2  0  0  0  0  0  0  0  0  0
   -1.4829   -3.1409   -0.8130 O   0  0  0  0  0  0  0  0  0  0  0  0
    2.3494   -0.6061    1.8917 O   0  0  0  0  0  0  0  0  0  0  0  0
    3.1236   -1.4538    1.0844 C   0  0  0  0  0  0  0  0  0  0  0  0
    4.3977    3.0283   -0.8440 H   0  0  0  0  0  0  0  0  0  0  0  0
    4.7711    2.1238   -2.4162 H   0  0  0  0  0  0  0  0  0  0  0  0
    6.0792    2.8491   -1.4561 H   0  0  0  0  0  0  0  0  0  0  0  0
    7.3880    1.1201   -0.6850 H   0  0  0  0  0  0  0  0  0  0  0  0
    7.6712   -0.9933    0.6352 H   0  0  0  0  0  0  0  0  0  0  0  0
    5.6872   -2.1712    1.4500 H   0  0  0  0  0  0  0  0  0  0  0  0
    0.3415   -1.7080    1.2492 H   0  0  0  0  0  0  0  0  0  0  0  0
   -0.3947   -0.4192    2.2185 H   0  0  0  0  0  0  0  0  0  0  0  0
   -2.0927   -2.0244    1.4011 H   0  0  0  0  0  0  0  0  0  0  0  0
   -4.1317   -1.4750    0.6714 H   0  0  0  0  0  0  0  0  0  0  0  0
   -3.3490    1.2663   -1.7541 H   0  0  0  0  0  0  0  0  0  0  0  0
   -7.4762    1.5724    0.7393 H   0  0  0  0  0  0  0  0  0  0  0  0
   -3.0064   -0.7207   -2.0662 H   0  0  0  0  0  0  0  0  0  0  0  0
   -3.6343   -2.2966   -1.3870 H   0  0  0  0  0  0  0  0  0  0  0  0
   -0.8841   -1.2716   -1.3169 H   0  0  0  0  0  0  0  0  0  0  0  0
   -1.9479   -3.6365   -0.0929 H   0  0  0  0  0  0  0  0  0  0  0  0
    3.3643   -2.3660    1.6394 H   0  0  0  0  0  0  0  0  0  0  0  0
    2.5001   -1.7004    0.2003 H   0  0  0  0  0  0  0  0  0  0  0  0
  1  2  1  0
  2  3  2  0
  3  4  1  0
  4  5  2  0
  5  6  1  0
  6  7  2  0
  7  8  1  0
  8  9  1  0
  9 10  2  0
  9 11  1  6
 11 12  1  0
 12 13  1  0
 13 14  1  0
 14 15  1  0
 15 16  1  0
 16 17  1  0
 17 18  2  0
 18 19  1  0
 18 20  1  0
 20 21  2  0
 20 22  1  0
 22 23  1  0
 23 24  2  0
 15 25  1  0
 25 26  1  0
 26 27  1  0
  9 28  1  0
 28 29  1  0
  7  2  1  0
 26 13  1  0
 29  6  1  0
 23 16  1  0
  1 30  1  0
  1 31  1  0
  1 32  1  0
  3 33  1  0
  4 34  1  0
  5 35  1  0
 12 36  1  0
 12 37  1  0
 13 38  1  1
 15 39  1  1
 17 40  1  0
 22 41  1  0
 25 42  1  0
 25 43  1  0
 26 44  1  6
 27 45  1  0
 29 46  1  0
 29 47  1  0
M  END
$$$$
