@<TRIPOS>MOLECULE
*****
 47 50 0 0 0
SMALL
GASTEIGER

@<TRIPOS>ATOM
      1 C           5.0824    2.3415   -1.3713 C.3     1  UNL1       -0.0362
      2 C           5.2777    1.0883   -0.5868 C.ar    1  UNL1       -0.0079
      3 C           6.5335    0.5948   -0.3226 C.ar    1  UNL1       -0.0553
      4 C           6.7053   -0.5610    0.3987 C.ar    1  UNL1       -0.0610
      5 C           5.6004   -1.2480    0.8721 C.ar    1  UNL1       -0.0529
      6 C           4.3231   -0.7363    0.5970 C.ar    1  UNL1        0.0211
      7 C           4.1417    0.4221   -0.1252 C.ar    1  UNL1        0.1403
      8 O           2.8503    0.8885   -0.3704 O.3     1  UNL1       -0.4032
      9 P           1.7051    0.6369    0.9168 P.3     1  UNL1        0.5335
     10 O           1.6630    1.9319    1.6942 O.2     1  UNL1       -0.2152
     11 O           0.2159    0.1621    0.3340 O.3     1  UNL1       -0.2743
     12 C          -0.3058   -0.7987    1.1807 C.3     1  UNL1        0.0888
     13 C          -1.6636   -1.2864    0.7238 C.3     1  UNL1        0.1109
     14 O          -2.5137   -0.1692    0.7040 O.3     1  UNL1       -0.3483
     15 C          -3.6355   -0.7035    0.0365 C.3     1  UNL1        0.1423
     16 N          -4.5435    0.3705   -0.2328 N.ar    1  UNL1       -0.2712
     17 C          -4.2716    1.2919   -1.1620 C.ar    1  UNL1        0.0524
     18 C          -5.1490    2.3375   -1.4285 C.ar    1  UNL1        0.2036
     19 F          -4.8373    3.2442   -2.3721 F       1  UNL1       -0.1983
     20 C          -6.3191    2.4188   -0.7171 C.ar    1  UNL1        0.2894
     21 O          -7.1535    3.3479   -0.9176 O.2     1  UNL1       -0.2646
     22 N          -6.5768    1.4728    0.2226 N.ar    1  UNL1       -0.2725
     23 C          -5.6890    0.4671    0.4498 C.ar    1  UNL1        0.3315
     24 O          -5.9940   -0.3811    1.3415 O.2     1  UNL1       -0.2464
     25 C          -3.0579   -1.3493   -1.1778 C.3     1  UNL1        0.0214
     26 C          -1.6620   -1.7594   -0.6922 C.3     1  UNL1        0.0877
     27 O          -1.4829   -3.1409   -0.8130 O.3     1  UNL1       -0.3890
     28 O           2.3494   -0.6061    1.8917 O.3     1  UNL1       -0.2722
     29 C           3.1236   -1.4538    1.0844 C.3     1  UNL1        0.0885
     30 H           4.3977    3.0283   -0.8440 H       1  UNL1        0.0279
     31 H           4.7711    2.1238   -2.4162 H       1  UNL1        0.0279
     32 H           6.0792    2.8491   -1.4561 H       1  UNL1        0.0279
     33 H           7.3880    1.1201   -0.6850 H       1  UNL1        0.0621
     34 H           7.6712   -0.9933    0.6352 H       1  UNL1        0.0618
     35 H           5.6872   -2.1712    1.4500 H       1  UNL1        0.0622
     36 H           0.3415   -1.7080    1.2492 H       1  UNL1        0.0593
     37 H          -0.3947   -0.4192    2.2185 H       1  UNL1        0.0593
     38 H          -2.0927   -2.0244    1.4011 H       1  UNL1        0.0646
     39 H          -4.1317   -1.4750    0.6714 H       1  UNL1        0.0840
     40 H          -3.3490    1.2663   -1.7541 H       1  UNL1        0.0842
     41 H          -7.4762    1.5724    0.7393 H       1  UNL1        0.1735
     42 H          -3.0064   -0.7207   -2.0662 H       1  UNL1        0.0335
     43 H          -3.6343   -2.2966   -1.3870 H       1  UNL1        0.0335
     44 H          -0.8841   -1.2716   -1.3169 H       1  UNL1        0.0621
     45 H          -1.9479   -3.6365   -0.0929 H       1  UNL1        0.2099
     46 H           3.3643   -2.3660    1.6394 H       1  UNL1        0.0617
     47 H           2.5001   -1.7004    0.2003 H       1  UNL1        0.0617
@<TRIPOS>BOND
     1     1     2    1
     2     2     3   ar
     3     3     4   ar
     4     4     5   ar
     5     5     6   ar
     6     6     7   ar
     7     7     8    1
     8     8     9    1
     9     9    10    2
    10     9    11    1
    11    11    12    1
    12    12    13    1
    13    13    14    1
    14    14    15    1
    15    15    16    1
    16    16    17   ar
    17    17    18   ar
    18    18    19    1
    19    18    20   ar
    20    20    21    2
    21    20    22   ar
    22    22    23   ar
    23    23    24    2
    24    15    25    1
    25    25    26    1
    26    26    27    1
    27     9    28    1
    28    28    29    1
    29     7     2   ar
    30    26    13    1
    31    29     6    1
    32    23    16   ar
    33     1    30    1
    34     1    31    1
    35     1    32    1
    36     3    33    1
    37     4    34    1
    38     5    35    1
    39    12    36    1
    40    12    37    1
    41    13    38    1
    42    15    39    1
    43    17    40    1
    44    22    41    1
    45    25    42    1
    46    25    43    1
    47    26    44    1
    48    27    45    1
    49    29    46    1
    50    29    47    1
