@<TRIPOS>MOLECULE
*****
 72 77 0 0 0
SMALL
GASTEIGER

@<TRIPOS>ATOM
      1 C          -6.2209    2.6823    0.8724 C.3     1  UNL1       -0.0391
      2 C          -7.0740    1.5563    0.4254 C.ar    1  UNL1       -0.0420
      3 C          -8.4660    1.7000    0.4461 C.ar    1  UNL1       -0.0443
      4 C          -9.3039    0.6844    0.0311 C.ar    1  UNL1        0.0591
      5 C         -10.7482    0.8198    0.0470 C.2     1  UNL1        0.3368
      6 O         -11.4484   -0.1400   -0.3419 O.2     1  UNL1       -0.2451
      7 O         -11.3507    1.9783    0.4795 O.3     1  UNL1       -0.4771
      8 C          -8.6947   -0.4750   -0.4033 C.ar    1  UNL1       -0.0472
      9 C          -7.3326   -0.6387   -0.4325 C.ar    1  UNL1       -0.0530
     10 C          -6.4988    0.3902   -0.0123 C.ar    1  UNL1       -0.0149
     11 C          -5.0547    0.1768   -0.0476 C.ar    1  UNL1       -0.0175
     12 C          -4.4696   -0.3228   -1.2036 C.ar    1  UNL1       -0.0523
     13 C          -3.1017   -0.5339   -1.2263 C.ar    1  UNL1       -0.0392
     14 C          -2.2977   -0.2661   -0.1422 C.ar    1  UNL1        0.0455
     15 N          -0.9054   -0.5155   -0.2641 N.am    1  UNL1       -0.1920
     16 C          -0.1994   -1.7335    0.0367 C.2     1  UNL1        0.3219
     17 O          -0.7524   -2.7646    0.4601 O.2     1  UNL1       -0.2512
     18 N           1.2063   -1.5596   -0.2269 N.am    1  UNL1       -0.2241
     19 C           2.0915   -2.6474   -0.4608 C.ar    1  UNL1        0.1328
     20 C           2.3303   -3.1378   -1.7364 C.ar    1  UNL1       -0.0031
     21 C           3.1657   -4.1764   -2.0024 C.ar    1  UNL1        0.0326
     22 N           3.7951   -4.7572   -0.9538 N.ar    1  UNL1       -0.2436
     23 C           3.5789   -4.2984    0.2927 C.ar    1  UNL1        0.1180
     24 N           2.7386   -3.2556    0.5485 N.ar    1  UNL1       -0.2203
     25 C           1.4342   -0.1338   -0.1947 C.3     1  UNL1        0.1240
     26 C           2.5012    0.3393   -1.1235 C.3     1  UNL1       -0.0095
     27 C           3.8850    0.1164   -0.6246 C.3     1  UNL1        0.0017
     28 N           4.0908    0.5527    0.7345 N.3     1  UNL1       -0.2965
     29 C           5.3333   -0.0860    1.1827 C.3     1  UNL1        0.0415
     30 C           6.4785    0.3124    0.3619 C.ar    1  UNL1        0.0581
     31 N           6.9475   -0.5545   -0.5506 N.ar    1  UNL1       -0.2583
     32 C           7.9817   -0.3173   -1.3647 C.ar    1  UNL1        0.0279
     33 C           8.6218    0.9006   -1.2713 C.ar    1  UNL1       -0.0433
     34 C           8.1722    1.8199   -0.3473 C.ar    1  UNL1       -0.0557
     35 C           7.1032    1.5523    0.4816 C.ar    1  UNL1       -0.0279
     36 C           6.5970    2.5166    1.4840 C.3     1  UNL1       -0.0380
     37 C           3.0601    0.1420    1.6331 C.3     1  UNL1        0.0017
     38 C           1.6737    0.4243    1.1678 C.3     1  UNL1       -0.0095
     39 C           0.1119    0.3729   -0.7077 C.2     1  UNL1        0.2516
     40 O          -0.0843    1.3967   -1.4058 O.2     1  UNL1       -0.2724
     41 C          -2.8854    0.2280    0.9979 C.ar    1  UNL1       -0.0392
     42 C          -4.2612    0.4450    1.0338 C.ar    1  UNL1       -0.0523
     43 H          -5.2255    2.6050    0.4350 H       1  UNL1        0.0278
     44 H          -6.6747    3.6405    0.5125 H       1  UNL1        0.0278
     45 H          -6.1752    2.6653    1.9803 H       1  UNL1        0.0278
     46 H          -8.9270    2.6115    0.7883 H       1  UNL1        0.0628
     47 H         -12.3738    2.1083    0.4606 H       1  UNL1        0.2954
     48 H          -9.3507   -1.2754   -0.7303 H       1  UNL1        0.0626
     49 H          -6.8564   -1.5505   -0.7744 H       1  UNL1        0.0624
     50 H          -5.1055   -0.5331   -2.0571 H       1  UNL1        0.0624
     51 H          -2.6666   -0.9254   -2.1424 H       1  UNL1        0.0636
     52 H           1.8159   -2.6572   -2.5574 H       1  UNL1        0.0667
     53 H           3.3707   -4.5795   -2.9841 H       1  UNL1        0.0831
     54 H           4.1114   -4.8041    1.0944 H       1  UNL1        0.1047
     55 H           2.3419    1.4216   -1.3103 H       1  UNL1        0.0303
     56 H           2.3850   -0.1992   -2.0870 H       1  UNL1        0.0303
     57 H           4.2067   -0.9430   -0.6900 H       1  UNL1        0.0427
     58 H           4.5910    0.6977   -1.2619 H       1  UNL1        0.0427
     59 H           5.1813   -1.1696    1.1323 H       1  UNL1        0.0491
     60 H           5.5215    0.1650    2.2678 H       1  UNL1        0.0491
     61 H           8.3302   -1.0611   -2.0984 H       1  UNL1        0.0829
     62 H           9.4720    1.1167   -1.9288 H       1  UNL1        0.0633
     63 H           8.6789    2.7842   -0.2735 H       1  UNL1        0.0621
     64 H           5.7187    3.0515    1.1027 H       1  UNL1        0.0278
     65 H           6.4534    2.0611    2.4840 H       1  UNL1        0.0278
     66 H           7.3934    3.3031    1.6332 H       1  UNL1        0.0278
     67 H           3.2218   -0.9064    1.9770 H       1  UNL1        0.0427
     68 H           3.2074    0.7506    2.5765 H       1  UNL1        0.0427
     69 H           1.5637    1.5333    1.0964 H       1  UNL1        0.0303
     70 H           0.9696    0.0219    1.9284 H       1  UNL1        0.0303
     71 H          -2.2590    0.4483    1.8751 H       1  UNL1        0.0636
     72 H          -4.6689    0.8260    1.9422 H       1  UNL1        0.0624
@<TRIPOS>BOND
     1     1     2    1
     2     2     3   ar
     3     3     4   ar
     4     4     5    1
     5     5     6    2
     6     5     7    1
     7     4     8   ar
     8     8     9   ar
     9     9    10   ar
    10    10    11    1
    11    11    12   ar
    12    12    13   ar
    13    13    14   ar
    14    14    15    1
    15    15    16   am
    16    16    17    2
    17    16    18   am
    18    18    19    1
    19    19    20   ar
    20    20    21   ar
    21    21    22   ar
    22    22    23   ar
    23    23    24   ar
    24    18    25    1
    25    25    26    1
    26    26    27    1
    27    27    28    1
    28    28    29    1
    29    29    30    1
    30    30    31   ar
    31    31    32   ar
    32    32    33   ar
    33    33    34   ar
    34    34    35   ar
    35    35    36    1
    36    28    37    1
    37    37    38    1
    38    25    39    1
    39    39    40    2
    40    14    41   ar
    41    41    42   ar
    42    10     2   ar
    43    42    11   ar
    44    39    15   am
    45    24    19   ar
    46    38    25    1
    47    35    30   ar
    48     1    43    1
    49     1    44    1
    50     1    45    1
    51     3    46    1
    52     7    47    1
    53     8    48    1
    54     9    49    1
    55    12    50    1
    56    13    51    1
    57    20    52    1
    58    21    53    1
    59    23    54    1
    60    26    55    1
    61    26    56    1
    62    27    57    1
    63    27    58    1
    64    29    59    1
    65    29    60    1
    66    32    61    1
    67    33    62    1
    68    34    63    1
    69    36    64    1
    70    36    65    1
    71    36    66    1
    72    37    67    1
    73    37    68    1
    74    38    69    1
    75    38    70    1
    76    41    71    1
    77    42    72    1
