@<TRIPOS>MOLECULE
*****
 70 74 0 0 0
SMALL
GASTEIGER

@<TRIPOS>ATOM
      1 C           5.8866   -1.8128   -1.8803 C.3     1  UNL1       -0.0634
      2 C           4.5833   -1.1123   -1.5492 C.3     1  UNL1       -0.0317
      3 C           4.7120   -0.2264   -0.3440 C.3     1  UNL1        0.0874
      4 C           3.3960    0.4232   -0.0943 C.2     1  UNL1        0.2345
      5 O           3.2442    1.6462   -0.0480 O.2     1  UNL1       -0.2737
      6 N           2.2815   -0.4302    0.0985 N.am    1  UNL1       -0.2825
      7 C           0.9555   -0.0255    0.3518 C.ar    1  UNL1        0.0576
      8 C           0.5166    1.2665    0.4661 C.ar    1  UNL1       -0.0384
      9 C          -0.8224    1.5838    0.7267 C.ar    1  UNL1       -0.0593
     10 C          -1.7433    0.5729    0.8762 C.ar    1  UNL1       -0.0518
     11 C          -1.3418   -0.7500    0.7680 C.ar    1  UNL1        0.0107
     12 C          -2.0162   -1.9514    0.8687 C.ar    1  UNL1        0.0256
     13 C          -3.4313   -2.1489    1.1462 C.ar    1  UNL1        0.0780
     14 C          -3.9182   -3.4435    1.2657 C.ar    1  UNL1       -0.0173
     15 C          -5.2535   -3.6673    1.5435 C.ar    1  UNL1        0.0332
     16 N          -6.0579   -2.6028    1.6927 N.ar    1  UNL1       -0.2226
     17 C          -5.6069   -1.3512    1.5808 C.ar    1  UNL1        0.2201
     18 N          -6.4655   -0.2201    1.7472 N.pl3   1  UNL1       -0.2782
     19 C          -7.2594    0.2554    0.6726 C.ar    1  UNL1        0.1152
     20 C          -7.3897   -0.2277   -0.6085 C.ar    1  UNL1        0.0503
     21 N          -8.2630    0.5272   -1.3010 N.ar    1  UNL1       -0.2692
     22 C          -8.6777    0.3422   -2.6968 C.3     1  UNL1        0.0304
     23 N          -8.6722    1.4684   -0.4650 N.ar    1  UNL1       -0.1317
     24 C          -8.0968    1.3476    0.7362 C.ar    1  UNL1        0.2552
     25 O          -8.2752    2.1422    1.8601 O.3     1  UNL1       -0.4774
     26 C          -9.1394    3.2528    1.8930 C.3     1  UNL1        0.0805
     27 N          -4.3057   -1.1582    1.3104 N.ar    1  UNL1       -0.2142
     28 C          -1.0715   -2.9255    0.6669 C.ar    1  UNL1        0.0120
     29 N           0.1336   -2.3782    0.4509 N.ar    1  UNL1       -0.3586
     30 C          -0.0145   -1.0268    0.5105 C.ar    1  UNL1        0.0686
     31 N           5.8060    0.6696   -0.4011 N.3     1  UNL1       -0.2891
     32 C           5.8731    1.5654   -1.5027 C.3     1  UNL1        0.0124
     33 C           7.3498    1.9786   -1.6274 C.3     1  UNL1        0.0114
     34 N           8.1158    1.5544   -0.4727 N.3     1  UNL1       -0.3029
     35 C           8.4622    0.1478   -0.5062 C.3     1  UNL1       -0.0127
     36 C           7.4539    1.9169    0.7766 C.3     1  UNL1        0.0114
     37 C           6.0074    1.4391    0.8058 C.3     1  UNL1        0.0124
     38 H           6.5034   -1.2729   -2.6021 H       1  UNL1        0.0230
     39 H           5.6849   -2.8205   -2.3523 H       1  UNL1        0.0230
     40 H           6.3836   -2.0537   -0.9225 H       1  UNL1        0.0230
     41 H           3.8686   -1.9228   -1.3049 H       1  UNL1        0.0282
     42 H           4.1690   -0.5787   -2.4309 H       1  UNL1        0.0282
     43 H           4.8844   -0.9052    0.5375 H       1  UNL1        0.0558
     44 H           2.4663   -1.4828    0.0517 H       1  UNL1        0.1549
     45 H           1.1854    2.0764    0.3608 H       1  UNL1        0.0637
     46 H          -1.1080    2.6190    0.8067 H       1  UNL1        0.0618
     47 H          -2.7818    0.7930    1.0787 H       1  UNL1        0.0624
     48 H          -3.2632   -4.2760    1.1440 H       1  UNL1        0.0654
     49 H          -5.6628   -4.6625    1.6423 H       1  UNL1        0.0831
     50 H          -6.5037    0.2597    2.6780 H       1  UNL1        0.1552
     51 H          -6.8694   -1.0872   -1.0062 H       1  UNL1        0.0846
     52 H          -9.5852    0.9665   -2.8416 H       1  UNL1        0.0473
     53 H          -7.8708    0.5846   -3.3895 H       1  UNL1        0.0473
     54 H          -9.0338   -0.7094   -2.7574 H       1  UNL1        0.0473
     55 H          -8.7516    4.0366    2.6012 H       1  UNL1        0.0660
     56 H         -10.1783    2.9927    2.1264 H       1  UNL1        0.0660
     57 H          -9.0972    3.7208    0.8698 H       1  UNL1        0.0660
     58 H          -1.2620   -3.9824    0.6778 H       1  UNL1        0.0814
     59 H           1.0155   -2.9010    0.2705 H       1  UNL1        0.1654
     60 H           5.6156    1.1084   -2.4790 H       1  UNL1        0.0439
     61 H           5.3118    2.4920   -1.3141 H       1  UNL1        0.0439
     62 H           7.8346    1.4939   -2.5055 H       1  UNL1        0.0439
     63 H           7.4612    3.0567   -1.7428 H       1  UNL1        0.0439
     64 H           8.4082   -0.2967   -1.5152 H       1  UNL1        0.0391
     65 H           7.8752   -0.4451    0.2452 H       1  UNL1        0.0391
     66 H           9.5408    0.0730   -0.1896 H       1  UNL1        0.0391
     67 H           8.0400    1.4752    1.6019 H       1  UNL1        0.0439
     68 H           7.5431    3.0142    0.8715 H       1  UNL1        0.0439
     69 H           5.3831    2.3803    0.7641 H       1  UNL1        0.0439
     70 H           5.8376    0.8540    1.7073 H       1  UNL1        0.0439
@<TRIPOS>BOND
     1     1     2    1
     2     2     3    1
     3     3     4    1
     4     4     5    2
     5     4     6   am
     6     6     7    1
     7     7     8   ar
     8     8     9   ar
     9     9    10   ar
    10    10    11   ar
    11    11    12   ar
    12    12    13    1
    13    13    14   ar
    14    14    15   ar
    15    15    16   ar
    16    16    17   ar
    17    17    18    1
    18    18    19    1
    19    19    20   ar
    20    20    21   ar
    21    21    22    1
    22    21    23   ar
    23    23    24   ar
    24    24    25    1
    25    25    26    1
    26    17    27   ar
    27    12    28   ar
    28    28    29   ar
    29    29    30   ar
    30     3    31    1
    31    31    32    1
    32    32    33    1
    33    33    34    1
    34    34    35    1
    35    34    36    1
    36    36    37    1
    37    30     7   ar
    38    37    31    1
    39    30    11   ar
    40    27    13   ar
    41    24    19   ar
    42     1    38    1
    43     1    39    1
    44     1    40    1
    45     2    41    1
    46     2    42    1
    47     3    43    1
    48     6    44    1
    49     8    45    1
    50     9    46    1
    51    10    47    1
    52    14    48    1
    53    15    49    1
    54    18    50    1
    55    20    51    1
    56    22    52    1
    57    22    53    1
    58    22    54    1
    59    26    55    1
    60    26    56    1
    61    26    57    1
    62    28    58    1
    63    29    59    1
    64    32    60    1
    65    32    61    1
    66    33    62    1
    67    33    63    1
    68    35    64    1
    69    35    65    1
    70    35    66    1
    71    36    67    1
    72    36    68    1
    73    37    69    1
    74    37    70    1
