
     RDKit          3D

 46 49  0  0  0  0  0  0  0  0999 V2000
   -1.7043    1.2429    0.9407 C   0  0  0  0  0  0  0  0  0  0  0  0
   -2.2019    0.3414   -0.2139 C   0  0  2  0  0  0  0  0  0  0  0  0
   -0.9621   -0.1334   -0.9043 C   0  0  0  0  0  0  0  0  0  0  0  0
    0.3115    0.1903   -0.4709 C   0  0  0  0  0  0  0  0  0  0  0  0
    1.4647   -0.2563   -1.1008 C   0  0  0  0  0  0  0  0  0  0  0  0
    2.7516    0.1502   -0.5583 C   0  0  0  0  0  0  0  0  0  0  0  0
    3.7352   -0.6932   -0.4843 C   0  0  0  0  0  0  0  0  0  0  0  0
    3.5078   -1.9718   -0.9359 F   0  0  0  0  0  0  0  0  0  0  0  0
    5.0351   -0.3328    0.0490 C   0  0  0  0  0  0  0  0  0  0  0  0
    5.3690    0.9059    0.5119 C   0  0  0  0  0  0  0  0  0  0  0  0
    6.6412    1.1985    1.0238 C   0  0  0  0  0  0  0  0  0  0  0  0
    7.5948    0.2027    1.0641 C   0  0  0  0  0  0  0  0  0  0  0  0
    9.2013    0.5095    1.6934 Cl  0  0  0  0  0  0  0  0  0  0  0  0
    7.2227   -1.0316    0.5893 C   0  0  0  0  0  0  0  0  0  0  0  0
    5.9956   -1.2862    0.1033 N   0  0  0  0  0  0  0  0  0  0  0  0
    1.3564   -1.0598   -2.2103 C   0  0  0  0  0  0  0  0  0  0  0  0
    0.0853   -1.4052   -2.6739 C   0  0  0  0  0  0  0  0  0  0  0  0
   -1.0457   -0.9387   -2.0168 C   0  0  0  0  0  0  0  0  0  0  0  0
   -2.2259   -1.3310   -2.5520 F   0  0  0  0  0  0  0  0  0  0  0  0
   -2.9653    1.0959   -1.1520 N   0  0  0  0  0  0  0  0  0  0  0  0
   -4.1630    1.5261   -0.9644 C   0  0  0  0  0  0  0  0  0  0  0  0
   -4.8272    2.2630   -1.9568 N   0  0  0  0  0  0  0  0  0  0  0  0
   -4.8897    1.1016    0.6324 S   0  0  0  0  0  0  0  0  0  0  0  0
   -4.1639   -0.4865    1.1113 C   0  0  2  0  0  0  0  0  0  0  0  0
   -4.5694   -1.0145    2.4394 C   0  0  0  0  0  0  0  0  0  0  0  0
   -4.1826   -0.0729    3.4147 O   0  0  0  0  0  0  0  0  0  0  0  0
   -2.8860   -0.7993    0.4436 C   0  0  1  0  0  0  0  0  0  0  0  0
   -4.0410   -1.5336   -0.0439 C   0  0  0  0  0  0  0  0  0  0  0  0
   -4.8082   -1.2128   -1.1190 F   0  0  0  0  0  0  0  0  0  0  0  0
   -4.1819   -2.8644    0.3861 F   0  0  0  0  0  0  0  0  0  0  0  0
   -1.1497    0.5403    1.6068 H   0  0  0  0  0  0  0  0  0  0  0  0
   -1.1240    2.0909    0.5800 H   0  0  0  0  0  0  0  0  0  0  0  0
   -2.5853    1.5663    1.5465 H   0  0  0  0  0  0  0  0  0  0  0  0
    0.4442    0.8170    0.3919 H   0  0  0  0  0  0  0  0  0  0  0  0
    2.8458    1.1660   -0.2292 H   0  0  0  0  0  0  0  0  0  0  0  0
    4.6304    1.7042    0.4876 H   0  0  0  0  0  0  0  0  0  0  0  0
    6.8808    2.1759    1.3806 H   0  0  0  0  0  0  0  0  0  0  0  0
    7.9436   -1.8531    0.6020 H   0  0  0  0  0  0  0  0  0  0  0  0
    2.2373   -1.4272   -2.7353 H   0  0  0  0  0  0  0  0  0  0  0  0
   -0.0057   -2.0342   -3.5427 H   0  0  0  0  0  0  0  0  0  0  0  0
   -5.8023    2.0425   -2.2331 H   0  0  0  0  0  0  0  0  0  0  0  0
   -4.3467    3.0466   -2.4341 H   0  0  0  0  0  0  0  0  0  0  0  0
   -4.1018   -1.9869    2.6977 H   0  0  0  0  0  0  0  0  0  0  0  0
   -5.6598   -1.1556    2.5630 H   0  0  0  0  0  0  0  0  0  0  0  0
   -4.4863    0.8354    3.1691 H   0  0  0  0  0  0  0  0  0  0  0  0
   -2.1744   -1.3845    1.1033 H   0  0  0  0  0  0  0  0  0  0  0  0
  2  1  1  1
  2  3  1  0
  3  4  2  0
  4  5  1  0
  5  6  1  0
  6  7  2  0
  7  8  1  0
  7  9  1  0
  9 10  2  0
 10 11  1  0
 11 12  2  0
 12 13  1  0
 12 14  1  0
 14 15  2  0
  5 16  2  0
 16 17  1  0
 17 18  2  0
 18 19  1  0
  2 20  1  0
 20 21  2  0
 21 22  1  0
 21 23  1  0
 23 24  1  0
 24 25  1  1
 25 26  1  0
 24 27  1  0
 27 28  1  0
 28 29  1  0
 28 30  1  0
 27  2  1  0
 18  3  1  0
 28 24  1  0
 15  9  1  0
  1 31  1  0
  1 32  1  0
  1 33  1  0
  4 34  1  0
  6 35  1  0
 10 36  1  0
 11 37  1  0
 14 38  1  0
 16 39  1  0
 17 40  1  0
 22 41  1  0
 22 42  1  0
 25 43  1  0
 25 44  1  0
 26 45  1  0
 27 46  1  1
M  END
$$$$
