@<TRIPOS>MOLECULE
*****
 46 49 0 0 0
SMALL
GASTEIGER

@<TRIPOS>ATOM
      1 C          -1.7043    1.2429    0.9407 C.3     1  UNL1       -0.0350
      2 C          -2.2019    0.3414   -0.2139 C.3     1  UNL1        0.0988
      3 C          -0.9621   -0.1334   -0.9043 C.ar    1  UNL1        0.0159
      4 C           0.3115    0.1903   -0.4709 C.ar    1  UNL1       -0.0463
      5 C           1.4647   -0.2563   -1.1008 C.ar    1  UNL1       -0.0217
      6 C           2.7516    0.1502   -0.5583 C.2     1  UNL1       -0.0172
      7 C           3.7352   -0.6932   -0.4843 C.2     1  UNL1        0.1492
      8 F           3.5078   -1.9718   -0.9359 F       1  UNL1       -0.2032
      9 C           5.0351   -0.3328    0.0490 C.ar    1  UNL1        0.0990
     10 C           5.3690    0.9059    0.5119 C.ar    1  UNL1       -0.0321
     11 C           6.6412    1.1985    1.0238 C.ar    1  UNL1       -0.0398
     12 C           7.5948    0.2027    1.0641 C.ar    1  UNL1        0.0591
     13 CL          9.2013    0.5095    1.6934 Cl      1  UNL1       -0.0820
     14 C           7.2227   -1.0316    0.5893 C.ar    1  UNL1        0.0466
     15 N           5.9956   -1.2862    0.1033 N.ar    1  UNL1       -0.2512
     16 C           1.3564   -1.0598   -2.2103 C.ar    1  UNL1       -0.0518
     17 C           0.0853   -1.4052   -2.6739 C.ar    1  UNL1       -0.0255
     18 C          -1.0457   -0.9387   -2.0168 C.ar    1  UNL1        0.1289
     19 F          -2.2259   -1.3310   -2.5520 F       1  UNL1       -0.2051
     20 N          -2.9653    1.0959   -1.1520 N.2     1  UNL1       -0.2519
     21 C          -4.1630    1.5261   -0.9644 C.2     1  UNL1        0.1483
     22 N          -4.8272    2.2630   -1.9568 N.pl3   1  UNL1       -0.3380
     23 S          -4.8897    1.1016    0.6324 S.3     1  UNL1       -0.0755
     24 C          -4.1639   -0.4865    1.1113 C.3     1  UNL1        0.1207
     25 C          -4.5694   -1.0145    2.4394 C.3     1  UNL1        0.0653
     26 O          -4.1826   -0.0729    3.4147 O.3     1  UNL1       -0.3934
     27 C          -2.8860   -0.7993    0.4436 C.3     1  UNL1        0.0757
     28 C          -4.0410   -1.5336   -0.0439 C.3     1  UNL1        0.2730
     29 F          -4.8082   -1.2128   -1.1190 F       1  UNL1       -0.2036
     30 F          -4.1819   -2.8644    0.3861 F       1  UNL1       -0.2036
     31 H          -1.1497    0.5403    1.6068 H       1  UNL1        0.0256
     32 H          -1.1240    2.0909    0.5800 H       1  UNL1        0.0256
     33 H          -2.5853    1.5663    1.5465 H       1  UNL1        0.0256
     34 H           0.4442    0.8170    0.3919 H       1  UNL1        0.0628
     35 H           2.8458    1.1660   -0.2292 H       1  UNL1        0.0653
     36 H           4.6304    1.7042    0.4876 H       1  UNL1        0.0640
     37 H           6.8808    2.1759    1.3806 H       1  UNL1        0.0633
     38 H           7.9436   -1.8531    0.6020 H       1  UNL1        0.0844
     39 H           2.2373   -1.4272   -2.7353 H       1  UNL1        0.0624
     40 H          -0.0057   -2.0342   -3.5427 H       1  UNL1        0.0646
     41 H          -5.8023    2.0425   -2.2331 H       1  UNL1        0.1442
     42 H          -4.3467    3.0466   -2.4341 H       1  UNL1        0.1442
     43 H          -4.1018   -1.9869    2.6977 H       1  UNL1        0.0573
     44 H          -5.6598   -1.1556    2.5630 H       1  UNL1        0.0573
     45 H          -4.4863    0.8354    3.1691 H       1  UNL1        0.2095
     46 H          -2.1744   -1.3845    1.1033 H       1  UNL1        0.0402
@<TRIPOS>BOND
     1     2     1    1
     2     2     3    1
     3     3     4   ar
     4     4     5   ar
     5     5     6    1
     6     6     7    2
     7     7     8    1
     8     7     9    1
     9     9    10   ar
    10    10    11   ar
    11    11    12   ar
    12    12    13    1
    13    12    14   ar
    14    14    15   ar
    15     5    16   ar
    16    16    17   ar
    17    17    18   ar
    18    18    19    1
    19     2    20    1
    20    20    21    2
    21    21    22    1
    22    21    23    1
    23    23    24    1
    24    24    25    1
    25    25    26    1
    26    24    27    1
    27    27    28    1
    28    28    29    1
    29    28    30    1
    30    27     2    1
    31    18     3   ar
    32    28    24    1
    33    15     9   ar
    34     1    31    1
    35     1    32    1
    36     1    33    1
    37     4    34    1
    38     6    35    1
    39    10    36    1
    40    11    37    1
    41    14    38    1
    42    16    39    1
    43    17    40    1
    44    22    41    1
    45    22    42    1
    46    25    43    1
    47    25    44    1
    48    26    45    1
    49    27    46    1
