@<TRIPOS>MOLECULE
*****
 48 51 0 0 0
SMALL
GASTEIGER

@<TRIPOS>ATOM
      1 C          -2.2419    4.3773   -0.7191 C.3     1  UNL1        0.0788
      2 O          -3.4022    3.5900   -0.7697 O.3     1  UNL1       -0.4951
      3 C          -3.4149    2.2326   -0.4641 C.ar    1  UNL1        0.1207
      4 C          -4.6015    1.5420   -0.5388 C.ar    1  UNL1       -0.0192
      5 C          -4.6299    0.2123   -0.2432 C.ar    1  UNL1       -0.0471
      6 C          -3.4566   -0.4395    0.1325 C.ar    1  UNL1        0.0243
      7 C          -3.5435   -1.8040    0.4360 C.ar    1  UNL1        0.1278
      8 O          -4.7624   -2.4592    0.3465 O.3     1  UNL1       -0.4945
      9 C          -4.8538   -3.8274    0.6526 C.3     1  UNL1        0.0788
     10 C          -2.4120   -2.4738    0.8188 C.ar    1  UNL1       -0.0190
     11 C          -1.1944   -1.7882    0.9002 C.ar    1  UNL1       -0.0533
     12 C          -1.0972   -0.4575    0.6056 C.ar    1  UNL1       -0.0255
     13 C           0.1621    0.2845    0.6803 C.3     1  UNL1        0.0221
     14 N           1.3595   -0.4623    0.7270 N.3     1  UNL1       -0.3087
     15 C           1.7556   -1.1964   -0.4143 C.3     1  UNL1        0.0154
     16 C           2.0430   -0.5391   -1.7302 C.3     1  UNL1       -0.0287
     17 C           3.1398   -1.2443   -0.9363 C.3     1  UNL1        0.0010
     18 C           4.2131   -0.3417   -0.5327 C.ar    1  UNL1       -0.0428
     19 C           5.5203   -0.8031   -0.4370 C.ar    1  UNL1       -0.0583
     20 C           6.5869   -0.0377   -0.0810 C.ar    1  UNL1       -0.0615
     21 C           6.3845    1.2997    0.2120 C.ar    1  UNL1       -0.0617
     22 C           5.0959    1.8063    0.1305 C.ar    1  UNL1       -0.0615
     23 C           4.0403    0.9952   -0.2344 C.ar    1  UNL1       -0.0583
     24 C          -2.2486    0.2087    0.2208 C.ar    1  UNL1       -0.0065
     25 C          -2.2552    1.5569   -0.0855 C.ar    1  UNL1       -0.0118
     26 H          -1.6428    4.0825    0.1560 H       1  UNL1        0.0660
     27 H          -2.5317    5.4696   -0.6295 H       1  UNL1        0.0660
     28 H          -1.6619    4.2868   -1.6655 H       1  UNL1        0.0660
     29 H          -5.5088    2.0585   -0.8357 H       1  UNL1        0.0654
     30 H          -5.5547   -0.3643   -0.2950 H       1  UNL1        0.0626
     31 H          -4.5221   -4.0019    1.6996 H       1  UNL1        0.0660
     32 H          -5.9211   -4.1599    0.5419 H       1  UNL1        0.0660
     33 H          -4.2523   -4.4000   -0.0704 H       1  UNL1        0.0660
     34 H          -2.4047   -3.5357    1.0714 H       1  UNL1        0.0654
     35 H          -0.3114   -2.3211    1.2155 H       1  UNL1        0.0622
     36 H           0.1707    0.9763    1.5700 H       1  UNL1        0.0474
     37 H           0.2251    0.9651   -0.2054 H       1  UNL1        0.0474
     38 H           1.9324   -0.4628    1.5543 H       1  UNL1        0.1225
     39 H           1.1746   -2.1579   -0.5628 H       1  UNL1        0.0466
     40 H           2.0641    0.5581   -1.8292 H       1  UNL1        0.0287
     41 H           1.8280   -1.0490   -2.6751 H       1  UNL1        0.0287
     42 H           3.4951   -2.2486   -1.2794 H       1  UNL1        0.0364
     43 H           5.7074   -1.8520   -0.6616 H       1  UNL1        0.0620
     44 H           7.6111   -0.4407   -0.0166 H       1  UNL1        0.0618
     45 H           7.2110    1.9529    0.5014 H       1  UNL1        0.0618
     46 H           4.9912    2.8555    0.3674 H       1  UNL1        0.0618
     47 H           3.0645    1.4553   -0.2784 H       1  UNL1        0.0620
     48 H          -1.3509    2.1025   -0.0276 H       1  UNL1        0.0660
@<TRIPOS>BOND
     1     1     2    1
     2     2     3    1
     3     3     4   ar
     4     4     5   ar
     5     5     6   ar
     6     6     7   ar
     7     7     8    1
     8     8     9    1
     9     7    10   ar
    10    10    11   ar
    11    11    12   ar
    12    12    13    1
    13    13    14    1
    14    14    15    1
    15    15    16    1
    16    16    17    1
    17    17    18    1
    18    18    19   ar
    19    19    20   ar
    20    20    21   ar
    21    21    22   ar
    22    22    23   ar
    23    12    24   ar
    24    24    25   ar
    25    25     3   ar
    26    24     6   ar
    27    17    15    1
    28    23    18   ar
    29     1    26    1
    30     1    27    1
    31     1    28    1
    32     4    29    1
    33     5    30    1
    34     9    31    1
    35     9    32    1
    36     9    33    1
    37    10    34    1
    38    11    35    1
    39    13    36    1
    40    13    37    1
    41    14    38    1
    42    15    39    1
    43    16    40    1
    44    16    41    1
    45    17    42    1
    46    19    43    1
    47    20    44    1
    48    21    45    1
    49    22    46    1
    50    23    47    1
    51    25    48    1
