
     RDKit          3D

 48 51  0  0  0  0  0  0  0  0999 V2000
   -2.2419    4.3773   -0.7191 C   0  0  0  0  0  0  0  0  0  0  0  0
   -3.4022    3.5900   -0.7697 O   0  0  0  0  0  0  0  0  0  0  0  0
   -3.4149    2.2326   -0.4641 C   0  0  0  0  0  0  0  0  0  0  0  0
   -4.6015    1.5420   -0.5388 C   0  0  0  0  0  0  0  0  0  0  0  0
   -4.6299    0.2123   -0.2432 C   0  0  0  0  0  0  0  0  0  0  0  0
   -3.4566   -0.4395    0.1325 C   0  0  0  0  0  0  0  0  0  0  0  0
   -3.5435   -1.8040    0.4360 C   0  0  0  0  0  0  0  0  0  0  0  0
   -4.7624   -2.4592    0.3465 O   0  0  0  0  0  0  0  0  0  0  0  0
   -4.8538   -3.8274    0.6526 C   0  0  0  0  0  0  0  0  0  0  0  0
   -2.4120   -2.4738    0.8188 C   0  0  0  0  0  0  0  0  0  0  0  0
   -1.1944   -1.7882    0.9002 C   0  0  0  0  0  0  0  0  0  0  0  0
   -1.0972   -0.4575    0.6056 C   0  0  0  0  0  0  0  0  0  0  0  0
    0.1621    0.2845    0.6803 C   0  0  0  0  0  0  0  0  0  0  0  0
    1.3595   -0.4623    0.7270 N   0  0  0  0  0  0  0  0  0  0  0  0
    1.7556   -1.1964   -0.4143 C   0  0  1  0  0  0  0  0  0  0  0  0
    2.0430   -0.5391   -1.7302 C   0  0  0  0  0  0  0  0  0  0  0  0
    3.1398   -1.2443   -0.9363 C   0  0  0  0  0  0  0  0  0  0  0  0
    4.2131   -0.3417   -0.5327 C   0  0  0  0  0  0  0  0  0  0  0  0
    5.5203   -0.8031   -0.4370 C   0  0  0  0  0  0  0  0  0  0  0  0
    6.5869   -0.0377   -0.0810 C   0  0  0  0  0  0  0  0  0  0  0  0
    6.3845    1.2997    0.2120 C   0  0  0  0  0  0  0  0  0  0  0  0
    5.0959    1.8063    0.1305 C   0  0  0  0  0  0  0  0  0  0  0  0
    4.0403    0.9952   -0.2344 C   0  0  0  0  0  0  0  0  0  0  0  0
   -2.2486    0.2087    0.2208 C   0  0  0  0  0  0  0  0  0  0  0  0
   -2.2552    1.5569   -0.0855 C   0  0  0  0  0  0  0  0  0  0  0  0
   -1.6428    4.0825    0.1560 H   0  0  0  0  0  0  0  0  0  0  0  0
   -2.5317    5.4696   -0.6295 H   0  0  0  0  0  0  0  0  0  0  0  0
   -1.6619    4.2868   -1.6655 H   0  0  0  0  0  0  0  0  0  0  0  0
   -5.5088    2.0585   -0.8357 H   0  0  0  0  0  0  0  0  0  0  0  0
   -5.5547   -0.3643   -0.2950 H   0  0  0  0  0  0  0  0  0  0  0  0
   -4.5221   -4.0019    1.6996 H   0  0  0  0  0  0  0  0  0  0  0  0
   -5.9211   -4.1599    0.5419 H   0  0  0  0  0  0  0  0  0  0  0  0
   -4.2523   -4.4000   -0.0704 H   0  0  0  0  0  0  0  0  0  0  0  0
   -2.4047   -3.5357    1.0714 H   0  0  0  0  0  0  0  0  0  0  0  0
   -0.3114   -2.3211    1.2155 H   0  0  0  0  0  0  0  0  0  0  0  0
    0.1707    0.9763    1.5700 H   0  0  0  0  0  0  0  0  0  0  0  0
    0.2251    0.9651   -0.2054 H   0  0  0  0  0  0  0  0  0  0  0  0
    1.9324   -0.4628    1.5543 H   0  0  0  0  0  0  0  0  0  0  0  0
    1.1746   -2.1579   -0.5628 H   0  0  0  0  0  0  0  0  0  0  0  0
    2.0641    0.5581   -1.8292 H   0  0  0  0  0  0  0  0  0  0  0  0
    1.8280   -1.0490   -2.6751 H   0  0  0  0  0  0  0  0  0  0  0  0
    3.4951   -2.2486   -1.2794 H   0  0  0  0  0  0  0  0  0  0  0  0
    5.7074   -1.8520   -0.6616 H   0  0  0  0  0  0  0  0  0  0  0  0
    7.6111   -0.4407   -0.0166 H   0  0  0  0  0  0  0  0  0  0  0  0
    7.2110    1.9529    0.5014 H   0  0  0  0  0  0  0  0  0  0  0  0
    4.9912    2.8555    0.3674 H   0  0  0  0  0  0  0  0  0  0  0  0
    3.0645    1.4553   -0.2784 H   0  0  0  0  0  0  0  0  0  0  0  0
   -1.3509    2.1025   -0.0276 H   0  0  0  0  0  0  0  0  0  0  0  0
  1  2  1  0
  2  3  1  0
  3  4  2  0
  4  5  1  0
  5  6  2  0
  6  7  1  0
  7  8  1  0
  8  9  1  0
  7 10  2  0
 10 11  1  0
 11 12  2  0
 12 13  1  0
 13 14  1  0
 14 15  1  0
 15 16  1  0
 16 17  1  0
 17 18  1  0
 18 19  2  0
 19 20  1  0
 20 21  2  0
 21 22  1  0
 22 23  2  0
 12 24  1  0
 24 25  2  0
 25  3  1  0
 24  6  1  0
 17 15  1  0
 23 18  1  0
  1 26  1  0
  1 27  1  0
  1 28  1  0
  4 29  1  0
  5 30  1  0
  9 31  1  0
  9 32  1  0
  9 33  1  0
 10 34  1  0
 11 35  1  0
 13 36  1  0
 13 37  1  0
 14 38  1  0
 15 39  1  6
 16 40  1  0
 16 41  1  0
 17 42  1  0
 19 43  1  0
 20 44  1  0
 21 45  1  0
 22 46  1  0
 23 47  1  0
 25 48  1  0
M  END
$$$$
