@<TRIPOS>MOLECULE
*****
 34 36 0 0 0
SMALL
GASTEIGER

@<TRIPOS>ATOM
      1 C           0.4961    4.1277   -0.4509 C.3     1  UNL1        0.0820
      2 O          -0.3400    2.9877   -0.6560 O.3     1  UNL1       -0.4646
      3 C           0.1047    1.7457   -0.2484 C.2     1  UNL1        0.3362
      4 O           1.2338    1.6775    0.2885 O.2     1  UNL1       -0.2453
      5 C          -0.6665    0.5162   -0.4079 C.2     1  UNL1        0.0532
      6 C          -0.2264   -0.6574   -0.0151 C.2     1  UNL1       -0.0282
      7 C           1.2365   -0.8632   -0.0322 C.ar    1  UNL1       -0.0212
      8 C           1.8176   -1.4260    1.1042 C.ar    1  UNL1       -0.0533
      9 C           3.1688   -1.6638    1.1251 C.ar    1  UNL1       -0.0472
     10 C           4.0007   -1.3729    0.0644 C.ar    1  UNL1        0.0179
     11 BR          5.8911   -1.7198    0.1200 Br      1  UNL1       -0.0503
     12 C           3.3936   -0.8171   -1.0460 C.ar    1  UNL1       -0.0472
     13 C           2.0347   -0.5616   -1.1063 C.ar    1  UNL1       -0.0533
     14 C          -1.0343   -1.7987    0.4285 C.3     1  UNL1       -0.0147
     15 C          -2.4061   -1.8820   -0.1913 C.3     1  UNL1        0.0099
     16 C          -3.3182   -0.9009    0.4617 C.3     1  UNL1       -0.0395
     17 C          -2.9988    0.4734    0.1037 C.3     1  UNL1       -0.0358
     18 C          -2.0290    0.5811   -1.0359 C.3     1  UNL1        0.0375
     19 S          -2.2447   -1.0641   -1.8360 S.3     1  UNL1       -0.1487
     20 H           1.5651    3.8550   -0.6889 H       1  UNL1        0.0661
     21 H           0.2454    4.9659   -1.1384 H       1  UNL1        0.0661
     22 H           0.4804    4.4961    0.5792 H       1  UNL1        0.0661
     23 H           1.1732   -1.6596    1.9595 H       1  UNL1        0.0624
     24 H           3.6125   -2.1040    2.0201 H       1  UNL1        0.0629
     25 H           4.0077   -0.5746   -1.8973 H       1  UNL1        0.0629
     26 H           1.5689   -0.1218   -1.9990 H       1  UNL1        0.0624
     27 H          -1.0975   -1.8985    1.5309 H       1  UNL1        0.0324
     28 H          -0.4868   -2.7401    0.1080 H       1  UNL1        0.0324
     29 H          -2.8085   -2.8768   -0.2833 H       1  UNL1        0.0415
     30 H          -4.3519   -1.1473    0.1082 H       1  UNL1        0.0276
     31 H          -3.3510   -1.0422    1.5706 H       1  UNL1        0.0276
     32 H          -2.6057    1.0054    1.0224 H       1  UNL1        0.0279
     33 H          -3.9078    1.0599   -0.1911 H       1  UNL1        0.0279
     34 H          -2.1574    1.4007   -1.7176 H       1  UNL1        0.0463
@<TRIPOS>BOND
     1     1     2    1
     2     2     3    1
     3     3     4    2
     4     3     5    1
     5     5     6    2
     6     6     7    1
     7     7     8   ar
     8     8     9   ar
     9     9    10   ar
    10    10    11    1
    11    10    12   ar
    12    12    13   ar
    13     6    14    1
    14    14    15    1
    15    15    16    1
    16    16    17    1
    17    17    18    1
    18    18    19    1
    19    18     5    1
    20    13     7   ar
    21    19    15    1
    22     1    20    1
    23     1    21    1
    24     1    22    1
    25     8    23    1
    26     9    24    1
    27    12    25    1
    28    13    26    1
    29    14    27    1
    30    14    28    1
    31    15    29    1
    32    16    30    1
    33    16    31    1
    34    17    32    1
    35    17    33    1
    36    18    34    1
