
     RDKit          3D

 34 36  0  0  0  0  0  0  0  0999 V2000
    0.4961    4.1277   -0.4509 C   0  0  0  0  0  0  0  0  0  0  0  0
   -0.3400    2.9877   -0.6560 O   0  0  0  0  0  0  0  0  0  0  0  0
    0.1047    1.7457   -0.2484 C   0  0  0  0  0  0  0  0  0  0  0  0
    1.2338    1.6775    0.2885 O   0  0  0  0  0  0  0  0  0  0  0  0
   -0.6665    0.5162   -0.4079 C   0  0  0  0  0  0  0  0  0  0  0  0
   -0.2264   -0.6574   -0.0151 C   0  0  0  0  0  0  0  0  0  0  0  0
    1.2365   -0.8632   -0.0322 C   0  0  0  0  0  0  0  0  0  0  0  0
    1.8176   -1.4260    1.1042 C   0  0  0  0  0  0  0  0  0  0  0  0
    3.1688   -1.6638    1.1251 C   0  0  0  0  0  0  0  0  0  0  0  0
    4.0007   -1.3729    0.0644 C   0  0  0  0  0  0  0  0  0  0  0  0
    5.8911   -1.7198    0.1200 Br  0  0  0  0  0  0  0  0  0  0  0  0
    3.3936   -0.8171   -1.0460 C   0  0  0  0  0  0  0  0  0  0  0  0
    2.0347   -0.5616   -1.1063 C   0  0  0  0  0  0  0  0  0  0  0  0
   -1.0343   -1.7987    0.4285 C   0  0  0  0  0  0  0  0  0  0  0  0
   -2.4061   -1.8820   -0.1913 C   0  0  0  0  0  0  0  0  0  0  0  0
   -3.3182   -0.9009    0.4617 C   0  0  0  0  0  0  0  0  0  0  0  0
   -2.9988    0.4734    0.1037 C   0  0  0  0  0  0  0  0  0  0  0  0
   -2.0290    0.5811   -1.0359 C   0  0  0  0  0  0  0  0  0  0  0  0
   -2.2447   -1.0641   -1.8360 S   0  0  0  0  0  0  0  0  0  0  0  0
    1.5651    3.8550   -0.6889 H   0  0  0  0  0  0  0  0  0  0  0  0
    0.2454    4.9659   -1.1384 H   0  0  0  0  0  0  0  0  0  0  0  0
    0.4804    4.4961    0.5792 H   0  0  0  0  0  0  0  0  0  0  0  0
    1.1732   -1.6596    1.9595 H   0  0  0  0  0  0  0  0  0  0  0  0
    3.6125   -2.1040    2.0201 H   0  0  0  0  0  0  0  0  0  0  0  0
    4.0077   -0.5746   -1.8973 H   0  0  0  0  0  0  0  0  0  0  0  0
    1.5689   -0.1218   -1.9990 H   0  0  0  0  0  0  0  0  0  0  0  0
   -1.0975   -1.8985    1.5309 H   0  0  0  0  0  0  0  0  0  0  0  0
   -0.4868   -2.7401    0.1080 H   0  0  0  0  0  0  0  0  0  0  0  0
   -2.8085   -2.8768   -0.2833 H   0  0  0  0  0  0  0  0  0  0  0  0
   -4.3519   -1.1473    0.1082 H   0  0  0  0  0  0  0  0  0  0  0  0
   -3.3510   -1.0422    1.5706 H   0  0  0  0  0  0  0  0  0  0  0  0
   -2.6057    1.0054    1.0224 H   0  0  0  0  0  0  0  0  0  0  0  0
   -3.9078    1.0599   -0.1911 H   0  0  0  0  0  0  0  0  0  0  0  0
   -2.1574    1.4007   -1.7176 H   0  0  0  0  0  0  0  0  0  0  0  0
  1  2  1  0
  2  3  1  0
  3  4  2  0
  3  5  1  0
  5  6  2  0
  6  7  1  0
  7  8  2  0
  8  9  1  0
  9 10  2  0
 10 11  1  0
 10 12  1  0
 12 13  2  0
  6 14  1  0
 14 15  1  0
 15 16  1  0
 16 17  1  0
 17 18  1  0
 18 19  1  0
 18  5  1  0
 13  7  1  0
 19 15  1  0
  1 20  1  0
  1 21  1  0
  1 22  1  0
  8 23  1  0
  9 24  1  0
 12 25  1  0
 13 26  1  0
 14 27  1  0
 14 28  1  0
 15 29  1  0
 16 30  1  0
 16 31  1  0
 17 32  1  0
 17 33  1  0
 18 34  1  0
M  END
$$$$
