
     RDKit          3D

 37 40  0  0  0  0  0  0  0  0999 V2000
   -0.4516   -1.1120   -0.2814 O   0  0  0  0  0  0  0  0  0  0  0  0
   -0.1262   -0.1941    0.5113 C   0  0  0  0  0  0  0  0  0  0  0  0
   -1.1971    0.4954    1.2595 C   0  0  0  0  0  0  0  0  0  0  0  0
   -2.5213   -0.0485    0.9071 C   0  0  0  0  0  0  0  0  0  0  0  0
   -3.1829   -0.9097    1.7646 C   0  0  0  0  0  0  0  0  0  0  0  0
   -4.4200   -1.4259    1.4457 C   0  0  0  0  0  0  0  0  0  0  0  0
   -5.0199   -1.0799    0.2437 C   0  0  0  0  0  0  0  0  0  0  0  0
   -4.3640   -0.2180   -0.6208 C   0  0  0  0  0  0  0  0  0  0  0  0
   -4.9296    0.1465   -1.8210 C   0  0  0  0  0  0  0  0  0  0  0  0
   -4.2669    0.9823   -2.6321 N   0  0  0  0  0  0  0  0  0  0  0  0
   -3.0615    1.4895   -2.3295 C   0  0  0  0  0  0  0  0  0  0  0  0
   -2.4568    1.1442   -1.1242 C   0  0  0  0  0  0  0  0  0  0  0  0
   -3.1273    0.2865   -0.2816 C   0  0  0  0  0  0  0  0  0  0  0  0
    1.2501    0.1291    0.6450 N   0  0  0  0  0  0  0  0  0  0  0  0
    2.2318   -0.5811   -0.1070 C   0  0  0  0  0  0  0  0  0  0  0  0
    1.8483   -1.8722   -1.1917 S   0  0  0  0  0  0  0  0  0  0  0  0
    3.4484   -2.2401   -1.7243 C   0  0  0  0  0  0  0  0  0  0  0  0
    4.2551   -1.3046   -1.0081 C   0  0  0  0  0  0  0  0  0  0  0  0
    6.0359   -1.3273   -1.2629 Cl  0  0  0  0  0  0  0  0  0  0  0  0
    3.5896   -0.4753   -0.1923 C   0  0  0  0  0  0  0  0  0  0  0  0
    4.2756    0.5715    0.6327 C   0  0  0  0  0  0  0  0  0  0  0  0
    3.6842    1.4425    1.4712 N   0  0  0  0  0  0  0  0  0  0  0  0
    4.5468    2.2300    2.0456 N   0  0  0  0  0  0  0  0  0  0  0  0
    5.7538    1.9015    1.6002 C   0  0  0  0  0  0  0  0  0  0  0  0
    5.5745    0.8785    0.7304 N   0  0  0  0  0  0  0  0  0  0  0  0
   -1.1473    1.5993    1.1814 H   0  0  0  0  0  0  0  0  0  0  0  0
   -1.0213    0.2647    2.3413 H   0  0  0  0  0  0  0  0  0  0  0  0
   -2.7649   -1.2221    2.7259 H   0  0  0  0  0  0  0  0  0  0  0  0
   -4.9366   -2.1053    2.1270 H   0  0  0  0  0  0  0  0  0  0  0  0
   -6.0046   -1.4896   -0.0106 H   0  0  0  0  0  0  0  0  0  0  0  0
   -5.9039   -0.2725   -2.0529 H   0  0  0  0  0  0  0  0  0  0  0  0
   -2.5466    2.1674   -3.0119 H   0  0  0  0  0  0  0  0  0  0  0  0
   -1.4884    1.5254   -0.8349 H   0  0  0  0  0  0  0  0  0  0  0  0
    1.4995    0.8673    1.2828 H   0  0  0  0  0  0  0  0  0  0  0  0
    3.8362   -3.0064   -2.4463 H   0  0  0  0  0  0  0  0  0  0  0  0
    6.7266    2.3222    1.8394 H   0  0  0  0  0  0  0  0  0  0  0  0
    6.3822    0.4408    0.2420 H   0  0  0  0  0  0  0  0  0  0  0  0
  1  2  2  0
  2  3  1  0
  3  4  1  0
  4  5  2  0
  5  6  1  0
  6  7  2  0
  7  8  1  0
  8  9  2  0
  9 10  1  0
 10 11  2  0
 11 12  1  0
 12 13  2  0
  2 14  1  0
 14 15  1  0
 15 16  1  0
 16 17  1  0
 17 18  2  0
 18 19  1  0
 18 20  1  0
 20 21  1  0
 21 22  2  0
 22 23  1  0
 23 24  2  0
 24 25  1  0
 13  4  1  0
 20 15  2  0
 25 21  1  0
 13  8  1  0
  3 26  1  0
  3 27  1  0
  5 28  1  0
  6 29  1  0
  7 30  1  0
  9 31  1  0
 11 32  1  0
 12 33  1  0
 14 34  1  0
 17 35  1  0
 24 36  1  0
 25 37  1  0
M  END
$$$$
