@<TRIPOS>MOLECULE
*****
 37 40 0 0 0
SMALL
GASTEIGER

@<TRIPOS>ATOM
      1 O          -0.4516   -1.1120   -0.2814 O.2     1  UNL1       -0.2751
      2 C          -0.1262   -0.1941    0.5113 C.2     1  UNL1        0.2219
      3 C          -1.1971    0.4954    1.2595 C.3     1  UNL1        0.0500
      4 C          -2.5213   -0.0485    0.9071 C.ar    1  UNL1       -0.0308
      5 C          -3.1829   -0.9097    1.7646 C.ar    1  UNL1       -0.0575
      6 C          -4.4200   -1.4259    1.4457 C.ar    1  UNL1       -0.0609
      7 C          -5.0199   -1.0799    0.2437 C.ar    1  UNL1       -0.0526
      8 C          -4.3640   -0.2180   -0.6208 C.ar    1  UNL1        0.0005
      9 C          -4.9296    0.1465   -1.8210 C.ar    1  UNL1        0.0353
     10 N          -4.2669    0.9823   -2.6321 N.ar    1  UNL1       -0.2626
     11 C          -3.0615    1.4895   -2.3295 C.ar    1  UNL1        0.0282
     12 C          -2.4568    1.1442   -1.1242 C.ar    1  UNL1       -0.0356
     13 C          -3.1273    0.2865   -0.2816 C.ar    1  UNL1       -0.0114
     14 N           1.2501    0.1291    0.6450 N.am    1  UNL1       -0.2791
     15 C           2.2318   -0.5811   -0.1070 C.ar    1  UNL1        0.0839
     16 S           1.8483   -1.8722   -1.1917 S.2     1  UNL1       -0.0797
     17 C           3.4484   -2.2401   -1.7243 C.ar    1  UNL1       -0.0035
     18 C           4.2551   -1.3046   -1.0081 C.ar    1  UNL1        0.0605
     19 CL          6.0359   -1.3273   -1.2629 Cl      1  UNL1       -0.0822
     20 C           3.5896   -0.4753   -0.1923 C.ar    1  UNL1        0.0658
     21 C           4.2756    0.5715    0.6327 C.ar    1  UNL1        0.1652
     22 N           3.6842    1.4425    1.4712 N.ar    1  UNL1       -0.1295
     23 N           4.5468    2.2300    2.0456 N.ar    1  UNL1       -0.1377
     24 C           5.7538    1.9015    1.6002 C.ar    1  UNL1        0.1175
     25 N           5.5745    0.8785    0.7304 N.ar    1  UNL1       -0.3276
     26 H          -1.1473    1.5993    1.1814 H       1  UNL1        0.0407
     27 H          -1.0213    0.2647    2.3413 H       1  UNL1        0.0407
     28 H          -2.7649   -1.2221    2.7259 H       1  UNL1        0.0621
     29 H          -4.9366   -2.1053    2.1270 H       1  UNL1        0.0618
     30 H          -6.0046   -1.4896   -0.0106 H       1  UNL1        0.0624
     31 H          -5.9039   -0.2725   -2.0529 H       1  UNL1        0.0836
     32 H          -2.5466    2.1674   -3.0119 H       1  UNL1        0.0830
     33 H          -1.4884    1.5254   -0.8349 H       1  UNL1        0.0639
     34 H           1.4995    0.8673    1.2828 H       1  UNL1        0.1553
     35 H           3.8362   -3.0064   -2.4463 H       1  UNL1        0.0709
     36 H           6.7266    2.3222    1.8394 H       1  UNL1        0.1046
     37 H           6.3822    0.4408    0.2420 H       1  UNL1        0.1683
@<TRIPOS>BOND
     1     1     2    2
     2     2     3    1
     3     3     4    1
     4     4     5   ar
     5     5     6   ar
     6     6     7   ar
     7     7     8   ar
     8     8     9   ar
     9     9    10   ar
    10    10    11   ar
    11    11    12   ar
    12    12    13   ar
    13     2    14   am
    14    14    15    1
    15    15    16   ar
    16    16    17   ar
    17    17    18   ar
    18    18    19    1
    19    18    20   ar
    20    20    21    1
    21    21    22   ar
    22    22    23   ar
    23    23    24   ar
    24    24    25   ar
    25    13     4   ar
    26    20    15   ar
    27    25    21   ar
    28    13     8   ar
    29     3    26    1
    30     3    27    1
    31     5    28    1
    32     6    29    1
    33     7    30    1
    34     9    31    1
    35    11    32    1
    36    12    33    1
    37    14    34    1
    38    17    35    1
    39    24    36    1
    40    25    37    1
