@<TRIPOS>MOLECULE
*****
 53 57 0 0 0
SMALL
GASTEIGER

@<TRIPOS>ATOM
      1 C           0.3932    0.1526   -0.8585 C.3     1  UNL1        0.0440
      2 C          -0.2767    1.4277   -1.3159 C.3     1  UNL1       -0.0090
      3 C          -1.4262    1.7315   -0.4473 C.ar    1  UNL1       -0.0418
      4 C          -1.9753    0.7274    0.3161 C.ar    1  UNL1       -0.0317
      5 C          -3.0438    1.0479    1.1168 C.ar    1  UNL1       -0.0161
      6 C          -3.5608    2.3338    1.1637 C.ar    1  UNL1        0.1172
      7 O          -4.6332    2.7520    1.9382 O.3     1  UNL1       -0.5068
      8 C          -2.9711    3.3094    0.3740 C.ar    1  UNL1       -0.0199
      9 C          -1.8992    3.0332   -0.4427 C.ar    1  UNL1       -0.0548
     10 C          -1.5130   -0.6855    0.3469 C.3     1  UNL1        0.0275
     11 C          -2.6471   -1.6289    0.2453 C.3     1  UNL1       -0.0406
     12 C          -2.2862   -2.9791   -0.3192 C.3     1  UNL1       -0.0521
     13 C          -1.6549   -2.8974   -1.6874 C.3     1  UNL1       -0.0504
     14 C          -1.1711   -1.4809   -2.0151 C.3     1  UNL1       -0.0217
     15 C          -0.5297   -1.0059   -0.7660 C.3     1  UNL1        0.0914
     16 O           0.2487   -2.0896   -0.2889 O.3     1  UNL1       -0.3861
     17 C          -0.7013   -0.8355    1.6100 C.3     1  UNL1       -0.0278
     18 C           0.5610   -0.0664    1.5790 C.3     1  UNL1        0.0002
     19 N           1.1218    0.2625    0.3362 N.3     1  UNL1       -0.2960
     20 C           2.3227    0.9871    0.3337 C.3     1  UNL1        0.0021
     21 C           3.4610    0.1197    0.8217 C.3     1  UNL1       -0.0282
     22 C           4.7972    0.8465    0.8647 C.3     1  UNL1       -0.0490
     23 C           4.9940    0.4678   -0.5866 C.3     1  UNL1       -0.0525
     24 C           4.0787   -0.7169   -0.3214 C.3     1  UNL1       -0.0490
     25 H           1.1293   -0.0891   -1.6793 H       1  UNL1        0.0494
     26 H           0.4823    2.2376   -1.2678 H       1  UNL1        0.0329
     27 H          -0.5714    1.2766   -2.3724 H       1  UNL1        0.0329
     28 H          -3.5699    0.3574    1.7655 H       1  UNL1        0.0657
     29 H          -5.4424    3.1455    1.4554 H       1  UNL1        0.2921
     30 H          -3.3231    4.3384    0.3552 H       1  UNL1        0.0654
     31 H          -1.4357    3.8004   -1.0640 H       1  UNL1        0.0622
     32 H          -3.1779   -1.8154    1.2009 H       1  UNL1        0.0275
     33 H          -3.4201   -1.2013   -0.4309 H       1  UNL1        0.0275
     34 H          -1.6825   -3.5302    0.4215 H       1  UNL1        0.0266
     35 H          -3.2267   -3.5563   -0.4239 H       1  UNL1        0.0266
     36 H          -2.2228   -3.3561   -2.4920 H       1  UNL1        0.0266
     37 H          -0.7055   -3.4859   -1.6098 H       1  UNL1        0.0266
     38 H          -2.0346   -0.9211   -2.3812 H       1  UNL1        0.0294
     39 H          -0.3570   -1.5927   -2.7804 H       1  UNL1        0.0294
     40 H           1.0957   -2.0775   -0.8039 H       1  UNL1        0.2103
     41 H          -0.5299   -1.9007    1.8673 H       1  UNL1        0.0287
     42 H          -1.3338   -0.4262    2.4435 H       1  UNL1        0.0287
     43 H           1.3128   -0.6825    2.1641 H       1  UNL1        0.0427
     44 H           0.5014    0.8652    2.2276 H       1  UNL1        0.0427
     45 H           2.6066    1.3183   -0.7105 H       1  UNL1        0.0429
     46 H           2.2966    1.9224    0.9283 H       1  UNL1        0.0429
     47 H           3.2335   -0.4762    1.7113 H       1  UNL1        0.0313
     48 H           5.5074    0.3151    1.5326 H       1  UNL1        0.0268
     49 H           4.7030    1.9280    1.0775 H       1  UNL1        0.0268
     50 H           4.5326    1.1529   -1.3043 H       1  UNL1        0.0265
     51 H           6.0247    0.1352   -0.8343 H       1  UNL1        0.0265
     52 H           3.3426   -0.9004   -1.1007 H       1  UNL1        0.0268
     53 H           4.5762   -1.5946    0.1076 H       1  UNL1        0.0268
@<TRIPOS>BOND
     1     1     2    1
     2     2     3    1
     3     3     4   ar
     4     4     5   ar
     5     5     6   ar
     6     6     7    1
     7     6     8   ar
     8     8     9   ar
     9     4    10    1
    10    10    11    1
    11    11    12    1
    12    12    13    1
    13    13    14    1
    14    14    15    1
    15    15    16    1
    16    10    17    1
    17    17    18    1
    18    18    19    1
    19    19    20    1
    20    20    21    1
    21    21    22    1
    22    22    23    1
    23    23    24    1
    24    15     1    1
    25    24    21    1
    26    19     1    1
    27     9     3   ar
    28    15    10    1
    29     1    25    1
    30     2    26    1
    31     2    27    1
    32     5    28    1
    33     7    29    1
    34     8    30    1
    35     9    31    1
    36    11    32    1
    37    11    33    1
    38    12    34    1
    39    12    35    1
    40    13    36    1
    41    13    37    1
    42    14    38    1
    43    14    39    1
    44    16    40    1
    45    17    41    1
    46    17    42    1
    47    18    43    1
    48    18    44    1
    49    20    45    1
    50    20    46    1
    51    21    47    1
    52    22    48    1
    53    22    49    1
    54    23    50    1
    55    23    51    1
    56    24    52    1
    57    24    53    1
