@<TRIPOS>MOLECULE
*****
 99 101 0 0 0
SMALL
GASTEIGER

@<TRIPOS>ATOM
      1 C          -4.4506   -4.8451    0.5592 C.3     1  UNL1       -0.0650
      2 C          -4.6328   -3.3991    0.0844 C.3     1  UNL1       -0.0512
      3 C          -3.3515   -2.9208   -0.5896 C.3     1  UNL1       -0.0171
      4 C          -2.2134   -2.9841    0.4097 C.3     1  UNL1       -0.0603
      5 C          -3.4617   -1.6947   -1.3867 C.3     1  UNL1        0.1020
      6 N          -2.2211   -1.2895   -2.0497 N.am    1  UNL1       -0.3022
      7 C          -1.1401   -0.6084   -1.4711 C.2     1  UNL1        0.2340
      8 O          -1.1569   -0.3032   -0.2436 O.2     1  UNL1       -0.2738
      9 C           0.0571   -0.2220   -2.3034 C.3     1  UNL1        0.0999
     10 C           0.6525   -1.3009   -3.1099 C.3     1  UNL1       -0.0177
     11 C           1.1794   -2.4833   -2.3380 C.3     1  UNL1        0.0259
     12 C           1.8005   -3.4873   -3.2662 C.2     1  UNL1        0.2106
     13 N           2.4091   -4.6642   -2.8160 N.am    1  UNL1       -0.3293
     14 O           1.7639   -3.2440   -4.5112 O.2     1  UNL1       -0.2760
     15 N           1.0176    0.4882   -1.4748 N.am    1  UNL1       -0.3025
     16 C           1.2120    1.8789   -1.5317 C.2     1  UNL1        0.2344
     17 O           0.4877    2.5194   -2.3715 O.2     1  UNL1       -0.2737
     18 C           2.1871    2.6354   -0.6879 C.3     1  UNL1        0.1065
     19 C           2.9311    3.6857   -1.4291 C.3     1  UNL1        0.0014
     20 C           3.7442    3.2510   -2.5699 C.ar    1  UNL1       -0.0201
     21 C           3.3256    3.2806   -3.9075 C.ar    1  UNL1        0.0060
     22 N           4.2956    2.8009   -4.6931 N.ar    1  UNL1       -0.3604
     23 C           5.3348    2.4561   -3.9415 C.ar    1  UNL1        0.0467
     24 C           6.5691    1.9337   -4.2687 C.ar    1  UNL1       -0.0378
     25 C           7.4908    1.6798   -3.2788 C.ar    1  UNL1       -0.0598
     26 C           7.1899    1.9433   -1.9548 C.ar    1  UNL1       -0.0611
     27 C           5.9650    2.4588   -1.6507 C.ar    1  UNL1       -0.0523
     28 C           5.0142    2.7267   -2.6234 C.ar    1  UNL1        0.0029
     29 N           3.0095    1.7844    0.1060 N.am    1  UNL1       -0.2695
     30 C           2.7516    1.5903    1.5091 C.2     1  UNL1        0.4012
     31 O           1.7800    2.1780    2.0289 O.2     1  UNL1       -0.2265
     32 O           3.5427    0.7706    2.3124 O.3     1  UNL1       -0.4456
     33 C           3.1900    0.6257    3.6989 C.3     1  UNL1        0.1191
     34 C           4.1892   -0.2682    4.3231 C.ar    1  UNL1       -0.0103
     35 C           4.0240   -1.6358    4.2750 C.ar    1  UNL1       -0.0554
     36 C           4.9013   -2.5307    4.8430 C.ar    1  UNL1       -0.0614
     37 C           5.9975   -1.9813    5.4890 C.ar    1  UNL1       -0.0617
     38 C           6.2115   -0.6309    5.5675 C.ar    1  UNL1       -0.0614
     39 C           5.2889    0.2326    4.9729 C.ar    1  UNL1       -0.0554
     40 C          -4.0026   -0.4756   -0.7598 C.2     1  UNL1        0.2341
     41 O          -3.3465    0.6381   -0.7747 O.2     1  UNL1       -0.2738
     42 N          -5.2469   -0.3451   -0.0916 N.am    1  UNL1       -0.3069
     43 C          -5.6813    0.9286    0.5109 C.3     1  UNL1        0.0531
     44 C          -6.1100    0.7428    1.9026 C.2     1  UNL1       -0.0459
     45 C          -5.5469    1.4607    2.8628 C.2     1  UNL1        0.0495
     46 S          -4.2987    2.6518    2.6161 S.O2    1  UNL1       -0.0127
     47 C          -4.0356    3.6034    4.1200 C.3     1  UNL1        0.0589
     48 O          -4.6579    3.6623    1.5608 O.2     1  UNL1       -0.1702
     49 O          -3.0195    1.9888    2.2133 O.2     1  UNL1       -0.1702
     50 C          -6.9228    1.3452   -0.2876 C.3     1  UNL1        0.0667
     51 C          -8.0068    0.3417   -0.2010 C.2     1  UNL1        0.3068
     52 O          -8.0142   -0.7150   -0.9044 O.2     1  UNL1       -0.2509
     53 O          -9.0649    0.5208    0.6611 O.3     1  UNL1       -0.4806
     54 H          -4.0064   -4.8472    1.5716 H       1  UNL1        0.0230
     55 H          -5.5117   -5.2139    0.6876 H       1  UNL1        0.0230
     56 H          -3.9677   -5.4847   -0.1761 H       1  UNL1        0.0230
     57 H          -5.4903   -3.3080   -0.5784 H       1  UNL1        0.0266
     58 H          -4.8068   -2.8259    1.0094 H       1  UNL1        0.0266
     59 H          -3.1317   -3.7649   -1.3335 H       1  UNL1        0.0321
     60 H          -2.2673   -4.0018    0.9252 H       1  UNL1        0.0233
     61 H          -1.2155   -2.9761   -0.0443 H       1  UNL1        0.0233
     62 H          -2.2679   -2.2509    1.2129 H       1  UNL1        0.0233
     63 H          -4.1456   -1.9706   -2.2787 H       1  UNL1        0.0597
     64 H          -2.0819   -1.5179   -3.0901 H       1  UNL1        0.1495
     65 H          -0.3579    0.5573   -3.0003 H       1  UNL1        0.0595
     66 H          -0.1268   -1.7461   -3.8078 H       1  UNL1        0.0292
     67 H           1.4046   -0.8895   -3.8130 H       1  UNL1        0.0292
     68 H           0.4100   -2.9727   -1.7364 H       1  UNL1        0.0359
     69 H           1.9913   -2.1400   -1.6736 H       1  UNL1        0.0359
     70 H           3.1808   -4.6288   -2.1279 H       1  UNL1        0.1449
     71 H           2.0904   -5.5812   -3.1695 H       1  UNL1        0.1449
     72 H           1.5868   -0.0733   -0.8037 H       1  UNL1        0.1495
     73 H           1.5595    3.2214    0.0925 H       1  UNL1        0.0599
     74 H           2.2287    4.5046   -1.8025 H       1  UNL1        0.0337
     75 H           3.5892    4.2842   -0.7146 H       1  UNL1        0.0337
     76 H           2.3602    3.6410   -4.2069 H       1  UNL1        0.0810
     77 H           4.2384    2.7155   -5.7184 H       1  UNL1        0.1653
     78 H           6.8370    1.7144   -5.3077 H       1  UNL1        0.0638
     79 H           8.4852    1.2654   -3.4745 H       1  UNL1        0.0618
     80 H           7.9193    1.7450   -1.1792 H       1  UNL1        0.0618
     81 H           5.7137    2.6730   -0.6016 H       1  UNL1        0.0624
     82 H           3.8349    1.2362   -0.2400 H       1  UNL1        0.1528
     83 H           3.1854    1.6472    4.1147 H       1  UNL1        0.0749
     84 H           2.1630    0.1719    3.6786 H       1  UNL1        0.0749
     85 H           3.1507   -2.0259    3.7636 H       1  UNL1        0.0621
     86 H           4.7505   -3.5842    4.7888 H       1  UNL1        0.0618
     87 H           6.7258   -2.6406    5.9582 H       1  UNL1        0.0618
     88 H           7.0964   -0.2490    6.0908 H       1  UNL1        0.0618
     89 H           5.4382    1.3002    5.0249 H       1  UNL1        0.0621
     90 H          -5.9062   -1.1238   -0.0158 H       1  UNL1        0.1493
     91 H          -4.8884    1.6797    0.3926 H       1  UNL1        0.0548
     92 H          -6.8855    0.0316    2.1873 H       1  UNL1        0.0603
     93 H          -5.8738    1.3119    3.9083 H       1  UNL1        0.0816
     94 H          -3.5463    2.9869    4.8784 H       1  UNL1        0.0468
     95 H          -3.4472    4.4974    3.8146 H       1  UNL1        0.0468
     96 H          -5.0444    3.9748    4.4051 H       1  UNL1        0.0468
     97 H          -6.5788    1.4400   -1.3509 H       1  UNL1        0.0399
     98 H          -7.3274    2.3086    0.0869 H       1  UNL1        0.0399
     99 H          -9.9953    0.1335    0.5144 H       1  UNL1        0.2951
@<TRIPOS>BOND
     1     1     2    1
     2     2     3    1
     3     3     4    1
     4     3     5    1
     5     5     6    1
     6     6     7   am
     7     7     8    2
     8     7     9    1
     9     9    10    1
    10    10    11    1
    11    11    12    1
    12    12    13   am
    13    12    14    2
    14     9    15    1
    15    15    16   am
    16    16    17    2
    17    16    18    1
    18    18    19    1
    19    19    20    1
    20    20    21   ar
    21    21    22   ar
    22    22    23   ar
    23    23    24   ar
    24    24    25   ar
    25    25    26   ar
    26    26    27   ar
    27    27    28   ar
    28    18    29    1
    29    29    30   am
    30    30    31    2
    31    30    32    1
    32    32    33    1
    33    33    34    1
    34    34    35   ar
    35    35    36   ar
    36    36    37   ar
    37    37    38   ar
    38    38    39   ar
    39     5    40    1
    40    40    41    2
    41    40    42   am
    42    42    43    1
    43    43    44    1
    44    44    45    2
    45    45    46    1
    46    46    47    1
    47    46    48    2
    48    46    49    2
    49    43    50    1
    50    50    51    1
    51    51    52    2
    52    51    53    1
    53    28    20   ar
    54    39    34   ar
    55    28    23   ar
    56     1    54    1
    57     1    55    1
    58     1    56    1
    59     2    57    1
    60     2    58    1
    61     3    59    1
    62     4    60    1
    63     4    61    1
    64     4    62    1
    65     5    63    1
    66     6    64    1
    67     9    65    1
    68    10    66    1
    69    10    67    1
    70    11    68    1
    71    11    69    1
    72    13    70    1
    73    13    71    1
    74    15    72    1
    75    18    73    1
    76    19    74    1
    77    19    75    1
    78    21    76    1
    79    22    77    1
    80    24    78    1
    81    25    79    1
    82    26    80    1
    83    27    81    1
    84    29    82    1
    85    33    83    1
    86    33    84    1
    87    35    85    1
    88    36    86    1
    89    37    87    1
    90    38    88    1
    91    39    89    1
    92    42    90    1
    93    43    91    1
    94    44    92    1
    95    45    93    1
    96    47    94    1
    97    47    95    1
    98    47    96    1
    99    50    97    1
   100    50    98    1
   101    53    99    1
