@<TRIPOS>MOLECULE
*****
 26 26 0 0 0
SMALL
GASTEIGER

@<TRIPOS>ATOM
      1 C          -1.1950   -0.7141   -0.1484 C.3     1  UNL1        0.1245
      2 C          -0.0255   -0.9406    0.8025 C.3     1  UNL1       -0.0086
      3 C           1.1036   -0.0454    0.4965 C.ar    1  UNL1       -0.0464
      4 C           1.3544    1.2164    0.9972 C.ar    1  UNL1       -0.0585
      5 C           2.4658    1.9354    0.6086 C.ar    1  UNL1       -0.0615
      6 C           3.3821    1.4237   -0.3030 C.ar    1  UNL1       -0.0617
      7 C           3.1541    0.1698   -0.8154 C.ar    1  UNL1       -0.0615
      8 C           2.0509   -0.5228   -0.4182 C.ar    1  UNL1       -0.0585
      9 C          -1.6537    0.7211   -0.0088 C.3     1  UNL1        0.2208
     10 N          -2.7652    1.0140   -0.8896 N.pl3   1  UNL1        0.0388
     11 O          -4.0268    0.5119   -1.0206 O.co2   1  UNL1       -0.5818
     12 O          -3.1596    1.7256   -1.8347 O.2     1  UNL1        0.0344
     13 C          -2.3336   -1.6032    0.2105 C.2     1  UNL1        0.3145
     14 O          -1.9328   -2.9458    0.1140 O.3     1  UNL1       -0.4803
     15 O          -3.5545   -1.5107    0.5764 O.2     1  UNL1       -0.2504
     16 H          -0.8456   -0.9102   -1.1686 H       1  UNL1        0.0482
     17 H          -0.3299   -0.8036    1.8616 H       1  UNL1        0.0323
     18 H           0.2814   -1.9812    0.6982 H       1  UNL1        0.0323
     19 H           0.6169    1.5741    1.7025 H       1  UNL1        0.0620
     20 H           2.6332    2.9234    1.0207 H       1  UNL1        0.0618
     21 H           4.2609    1.9611   -0.6270 H       1  UNL1        0.0618
     22 H           3.8554   -0.2330   -1.5190 H       1  UNL1        0.0618
     23 H           1.9289   -1.5038   -0.8583 H       1  UNL1        0.0620
     24 H          -1.9481    0.9236    1.0532 H       1  UNL1        0.1096
     25 H          -0.7850    1.3448   -0.2292 H       1  UNL1        0.1096
     26 H          -2.5325   -3.7307    0.3042 H       1  UNL1        0.2951
@<TRIPOS>UNITY_ATOM_ATTR
10 1
charge 1
11 1
charge -1
@<TRIPOS>BOND
     1     1     2    1
     2     2     3    1
     3     3     4   ar
     4     4     5   ar
     5     5     6   ar
     6     6     7   ar
     7     7     8   ar
     8     1     9    1
     9     9    10    1
    10    10    11    1
    11    10    12    2
    12     1    13    1
    13    13    14    1
    14    13    15    2
    15     8     3   ar
    16     1    16    1
    17     2    17    1
    18     2    18    1
    19     4    19    1
    20     5    20    1
    21     6    21    1
    22     7    22    1
    23     8    23    1
    24     9    24    1
    25     9    25    1
    26    14    26    1
