
     RDKit          3D

 36 38  0  0  0  0  0  0  0  0999 V2000
   -6.2438   -0.0078    1.2187 C   0  0  0  0  0  0  0  0  0  0  0  0
   -5.1992   -0.3384    2.1273 O   0  0  0  0  0  0  0  0  0  0  0  0
   -3.8791   -0.3677    1.6734 C   0  0  0  0  0  0  0  0  0  0  0  0
   -2.8546   -0.6856    2.5392 C   0  0  0  0  0  0  0  0  0  0  0  0
   -1.5392   -0.7178    2.0989 C   0  0  0  0  0  0  0  0  0  0  0  0
   -1.2020   -0.4386    0.8000 C   0  0  0  0  0  0  0  0  0  0  0  0
    0.0711   -0.4548    0.3130 C   0  0  0  0  0  0  0  0  0  0  0  0
    0.3925   -0.1673   -1.0129 C   0  0  0  0  0  0  0  0  0  0  0  0
    1.7856   -0.2047   -1.4633 C   0  0  0  0  0  0  0  0  0  0  0  0
    2.0781   -0.5584   -2.7585 C   0  0  0  0  0  0  0  0  0  0  0  0
    3.3651   -0.6020   -3.2077 N   0  0  0  0  0  0  0  0  0  0  0  0
    4.3525   -0.2929   -2.3638 C   0  0  0  0  0  0  0  0  0  0  0  0
    4.1225    0.0666   -1.0629 C   0  0  0  0  0  0  0  0  0  0  0  0
    5.2296    0.4042   -0.1478 C   0  0  0  0  0  0  0  0  0  0  0  0
    4.9129    0.7804    1.2283 C   0  0  0  0  0  0  0  0  0  0  0  0
    6.3979    0.3524   -0.5952 O   0  0  0  0  0  0  0  0  0  0  0  0
    2.8132    0.1089   -0.6132 C   0  0  0  0  0  0  0  0  0  0  0  0
   -0.6368    0.1478   -1.8652 C   0  0  0  0  0  0  0  0  0  0  0  0
   -1.9244    0.1685   -1.3906 C   0  0  0  0  0  0  0  0  0  0  0  0
   -2.2225   -0.1191   -0.0745 C   0  0  0  0  0  0  0  0  0  0  0  0
   -3.5329   -0.0885    0.3702 C   0  0  0  0  0  0  0  0  0  0  0  0
   -7.2207   -0.1807    1.6818 H   0  0  0  0  0  0  0  0  0  0  0  0
   -6.0702    1.0235    0.8854 H   0  0  0  0  0  0  0  0  0  0  0  0
   -6.1305   -0.6707    0.3183 H   0  0  0  0  0  0  0  0  0  0  0  0
   -3.1211   -0.9092    3.5779 H   0  0  0  0  0  0  0  0  0  0  0  0
   -0.7579   -0.9692    2.7966 H   0  0  0  0  0  0  0  0  0  0  0  0
    0.8701   -0.7055    0.9991 H   0  0  0  0  0  0  0  0  0  0  0  0
    1.2610   -0.8004   -3.4100 H   0  0  0  0  0  0  0  0  0  0  0  0
    5.3632   -0.3300   -2.7273 H   0  0  0  0  0  0  0  0  0  0  0  0
    4.6667   -0.0998    1.8656 H   0  0  0  0  0  0  0  0  0  0  0  0
    5.7593    1.3234    1.7337 H   0  0  0  0  0  0  0  0  0  0  0  0
    4.0519    1.4786    1.2921 H   0  0  0  0  0  0  0  0  0  0  0  0
    2.5689    0.3884    0.4136 H   0  0  0  0  0  0  0  0  0  0  0  0
   -0.4149    0.3757   -2.9011 H   0  0  0  0  0  0  0  0  0  0  0  0
   -2.7727    0.4124   -2.0273 H   0  0  0  0  0  0  0  0  0  0  0  0
   -4.3394    0.1617   -0.3119 H   0  0  0  0  0  0  0  0  0  0  0  0
  1  2  1  0
  2  3  1  0
  3  4  2  0
  4  5  1  0
  5  6  2  0
  6  7  1  0
  7  8  2  0
  8  9  1  0
  9 10  2  0
 10 11  1  0
 11 12  2  0
 12 13  1  0
 13 14  1  0
 14 15  1  0
 14 16  2  0
 13 17  2  0
  8 18  1  0
 18 19  2  0
 19 20  1  0
 20 21  2  0
 21  3  1  0
 20  6  1  0
 17  9  1  0
  1 22  1  0
  1 23  1  0
  1 24  1  0
  4 25  1  0
  5 26  1  0
  7 27  1  0
 10 28  1  0
 12 29  1  0
 15 30  1  0
 15 31  1  0
 15 32  1  0
 17 33  1  0
 18 34  1  0
 19 35  1  0
 21 36  1  0
M  END
$$$$
