@<TRIPOS>MOLECULE
*****
 36 38 0 0 0
SMALL
GASTEIGER

@<TRIPOS>ATOM
      1 C          -6.2438   -0.0078    1.2187 C.3     1  UNL1        0.0788
      2 O          -5.1992   -0.3384    2.1273 O.3     1  UNL1       -0.4951
      3 C          -3.8791   -0.3677    1.6734 C.ar    1  UNL1        0.1207
      4 C          -2.8546   -0.6856    2.5392 C.ar    1  UNL1       -0.0194
      5 C          -1.5392   -0.7178    2.0989 C.ar    1  UNL1       -0.0506
      6 C          -1.2020   -0.4386    0.8000 C.ar    1  UNL1       -0.0171
      7 C           0.0711   -0.4548    0.3130 C.ar    1  UNL1       -0.0463
      8 C           0.3925   -0.1673   -1.0129 C.ar    1  UNL1       -0.0158
      9 C           1.7856   -0.2047   -1.4633 C.ar    1  UNL1        0.0009
     10 C           2.0781   -0.5584   -2.7585 C.ar    1  UNL1        0.0353
     11 N           3.3651   -0.6020   -3.2077 N.ar    1  UNL1       -0.2620
     12 C           4.3525   -0.2929   -2.3638 C.ar    1  UNL1        0.0380
     13 C           4.1225    0.0666   -1.0629 C.ar    1  UNL1        0.0358
     14 C           5.2296    0.4042   -0.1478 C.2     1  UNL1        0.1616
     15 C           4.9129    0.7804    1.2283 C.3     1  UNL1       -0.0014
     16 O           6.3979    0.3524   -0.5952 O.2     1  UNL1       -0.2923
     17 C           2.8132    0.1089   -0.6132 C.ar    1  UNL1       -0.0406
     18 C          -0.6368    0.1478   -1.8652 C.ar    1  UNL1       -0.0534
     19 C          -1.9244    0.1685   -1.3906 C.ar    1  UNL1       -0.0533
     20 C          -2.2225   -0.1191   -0.0745 C.ar    1  UNL1       -0.0144
     21 C          -3.5329   -0.0885    0.3702 C.ar    1  UNL1       -0.0122
     22 H          -7.2207   -0.1807    1.6818 H       1  UNL1        0.0660
     23 H          -6.0702    1.0235    0.8854 H       1  UNL1        0.0660
     24 H          -6.1305   -0.6707    0.3183 H       1  UNL1        0.0660
     25 H          -3.1211   -0.9092    3.5779 H       1  UNL1        0.0654
     26 H          -0.7579   -0.9692    2.7966 H       1  UNL1        0.0625
     27 H           0.8701   -0.7055    0.9991 H       1  UNL1        0.0630
     28 H           1.2610   -0.8004   -3.4100 H       1  UNL1        0.0836
     29 H           5.3632   -0.3300   -2.7273 H       1  UNL1        0.0836
     30 H           4.6667   -0.0998    1.8656 H       1  UNL1        0.0309
     31 H           5.7593    1.3234    1.7337 H       1  UNL1        0.0309
     32 H           4.0519    1.4786    1.2921 H       1  UNL1        0.0309
     33 H           2.5689    0.3884    0.4136 H       1  UNL1        0.0631
     34 H          -0.4149    0.3757   -2.9011 H       1  UNL1        0.0624
     35 H          -2.7727    0.4124   -2.0273 H       1  UNL1        0.0624
     36 H          -4.3394    0.1617   -0.3119 H       1  UNL1        0.0660
@<TRIPOS>BOND
     1     1     2    1
     2     2     3    1
     3     3     4   ar
     4     4     5   ar
     5     5     6   ar
     6     6     7   ar
     7     7     8   ar
     8     8     9    1
     9     9    10   ar
    10    10    11   ar
    11    11    12   ar
    12    12    13   ar
    13    13    14    1
    14    14    15    1
    15    14    16    2
    16    13    17   ar
    17     8    18   ar
    18    18    19   ar
    19    19    20   ar
    20    20    21   ar
    21    21     3   ar
    22    20     6   ar
    23    17     9   ar
    24     1    22    1
    25     1    23    1
    26     1    24    1
    27     4    25    1
    28     5    26    1
    29     7    27    1
    30    10    28    1
    31    12    29    1
    32    15    30    1
    33    15    31    1
    34    15    32    1
    35    17    33    1
    36    18    34    1
    37    19    35    1
    38    21    36    1
