@<TRIPOS>MOLECULE
*****
 56 59 0 0 0
SMALL
GASTEIGER

@<TRIPOS>ATOM
      1 C          -6.9186    2.4230    1.8799 C.3     1  UNL1        0.0467
      2 N          -6.0085    1.5941    1.1119 N.pl3   1  UNL1       -0.2410
      3 C          -5.0798    2.1740    0.1865 C.cat   1  UNL1        0.3671
      4 N          -4.7956    3.4114    0.0933 N.2     1  UNL1       -0.1142
      5 C          -3.8394    3.6818   -0.9180 C.3     1  UNL1        0.1330
      6 C          -3.3682    2.3341   -1.3902 C.3     1  UNL1        0.0948
      7 N          -4.3272    1.4665   -0.7744 N.pl3   1  UNL1       -0.2178
      8 C          -4.4920    0.0463   -1.1061 C.3     1  UNL1        0.0859
      9 C          -3.2011   -0.6038   -0.8198 C.ar    1  UNL1       -0.0158
     10 C          -2.2446   -0.6847   -1.8062 C.ar    1  UNL1       -0.0550
     11 C          -1.0166   -1.2939   -1.5616 C.ar    1  UNL1       -0.0493
     12 C          -0.7109   -1.8359   -0.3341 C.ar    1  UNL1        0.0370
     13 C           0.5569   -2.4795   -0.0387 C.2     1  UNL1        0.2483
     14 O           0.7408   -2.9437    1.1143 O.2     1  UNL1       -0.2699
     15 N           1.6051   -2.6229   -0.9586 N.am    1  UNL1       -0.2808
     16 C           2.8681   -3.2658   -0.6593 C.ar    1  UNL1        0.0459
     17 C           3.0121   -4.6047   -0.8658 C.ar    1  UNL1       -0.0384
     18 C           4.1860   -5.2410   -0.5950 C.ar    1  UNL1       -0.0416
     19 C           5.2700   -4.5482   -0.1017 C.ar    1  UNL1        0.0418
     20 CL          6.7959   -5.3363    0.2575 Cl      1  UNL1       -0.0835
     21 C           5.1097   -3.1771    0.1055 C.ar    1  UNL1       -0.0295
     22 C           3.9264   -2.5337   -0.1670 C.ar    1  UNL1        0.0596
     23 C           3.7317   -1.0810    0.0440 C.2     1  UNL1        0.2511
     24 O           2.6077   -0.6148   -0.2426 O.2     1  UNL1       -0.2697
     25 N           4.7471   -0.2508    0.5407 N.am    1  UNL1       -0.2663
     26 C           4.6145    1.1363    0.7599 C.ar    1  UNL1        0.1252
     27 C           3.5126    1.9092    0.5389 C.ar    1  UNL1       -0.0201
     28 C           3.5021    3.2967    0.7987 C.ar    1  UNL1       -0.0387
     29 C           4.6235    3.9224    1.2917 C.ar    1  UNL1        0.0592
     30 CL          4.7145    5.6314    1.6463 Cl      1  UNL1       -0.0820
     31 C           5.7188    3.1128    1.5034 C.ar    1  UNL1        0.0480
     32 N           5.7083    1.7980    1.2504 N.ar    1  UNL1       -0.2387
     33 C          -1.6745   -1.7489    0.6431 C.ar    1  UNL1       -0.0493
     34 C          -2.9095   -1.1409    0.4114 C.ar    1  UNL1       -0.0550
     35 H          -7.9343    2.3136    1.4557 H       1  UNL1        0.0595
     36 H          -6.9602    2.0982    2.9370 H       1  UNL1        0.0595
     37 H          -6.6040    3.4866    1.7864 H       1  UNL1        0.0595
     38 H          -6.0655    0.5626    1.2676 H       1  UNL1        0.2441
     39 H          -2.9975    4.2624   -0.4385 H       1  UNL1        0.0723
     40 H          -4.2387    4.2351   -1.7914 H       1  UNL1        0.0723
     41 H          -2.3422    2.1829   -1.0597 H       1  UNL1        0.0667
     42 H          -3.3787    2.2724   -2.5016 H       1  UNL1        0.0667
     43 H          -4.6715    0.0249   -2.2099 H       1  UNL1        0.0685
     44 H          -5.3334   -0.3927   -0.5354 H       1  UNL1        0.0685
     45 H          -2.4738   -0.2638   -2.7699 H       1  UNL1        0.0621
     46 H          -0.2703   -1.3559   -2.3348 H       1  UNL1        0.0625
     47 H           1.5043   -2.2572   -1.9235 H       1  UNL1        0.1552
     48 H           2.1830   -5.1690   -1.2496 H       1  UNL1        0.0637
     49 H           4.2944   -6.3263   -0.7652 H       1  UNL1        0.0633
     50 H           5.9578   -2.6312    0.4922 H       1  UNL1        0.0640
     51 H           5.6894   -0.7133    0.7674 H       1  UNL1        0.1566
     52 H           2.6202    1.4642    0.1567 H       1  UNL1        0.0652
     53 H           2.6158    3.8821    0.6141 H       1  UNL1        0.0634
     54 H           6.6136    3.6155    1.8974 H       1  UNL1        0.0845
     55 H          -1.5070   -2.1479    1.6209 H       1  UNL1        0.0625
     56 H          -3.6667   -1.0736    1.1825 H       1  UNL1        0.0621
@<TRIPOS>BOND
     1     1     2    1
     2     2     3    1
     3     3     4    2
     4     4     5    1
     5     5     6    1
     6     6     7    1
     7     7     8    1
     8     8     9    1
     9     9    10   ar
    10    10    11   ar
    11    11    12   ar
    12    12    13    1
    13    13    14    2
    14    13    15   am
    15    15    16    1
    16    16    17   ar
    17    17    18   ar
    18    18    19   ar
    19    19    20    1
    20    19    21   ar
    21    21    22   ar
    22    22    23    1
    23    23    24    2
    24    23    25   am
    25    25    26    1
    26    26    27   ar
    27    27    28   ar
    28    28    29   ar
    29    29    30    1
    30    29    31   ar
    31    31    32   ar
    32    12    33   ar
    33    33    34   ar
    34     7     3    1
    35    34     9   ar
    36    22    16   ar
    37    32    26   ar
    38     1    35    1
    39     1    36    1
    40     1    37    1
    41     2    38    1
    42     5    39    1
    43     5    40    1
    44     6    41    1
    45     6    42    1
    46     8    43    1
    47     8    44    1
    48    10    45    1
    49    11    46    1
    50    15    47    1
    51    17    48    1
    52    18    49    1
    53    21    50    1
    54    25    51    1
    55    27    52    1
    56    28    53    1
    57    31    54    1
    58    33    55    1
    59    34    56    1
