
     RDKit          3D

 37 40  0  0  0  0  0  0  0  0999 V2000
    0.2928    0.7455    0.7534 O   0  0  0  0  0  0  0  0  0  0  0  0
    0.7117   -0.0266    1.6531 C   0  0  0  0  0  0  0  0  0  0  0  0
   -0.1480   -1.0304    2.1183 N   0  0  0  0  0  0  0  0  0  0  0  0
   -1.5068   -1.1494    1.5427 C   0  0  0  0  0  0  0  0  0  0  0  0
   -2.1715   -0.6190    0.7354 N   0  0  0  0  0  0  0  0  0  0  0  0
   -3.3966   -0.8860    0.3592 C   0  0  0  0  0  0  0  0  0  0  0  0
   -4.1766   -0.1509   -0.6887 C   0  0  0  0  0  0  0  0  0  0  0  0
   -3.6243    0.9123   -1.3610 C   0  0  0  0  0  0  0  0  0  0  0  0
   -4.3181    1.6085   -2.3310 C   0  0  0  0  0  0  0  0  0  0  0  0
   -5.5694    1.2105   -2.6035 N   0  0  0  0  0  0  0  0  0  0  0  0
   -6.1500    0.1782   -1.9730 C   0  0  0  0  0  0  0  0  0  0  0  0
   -5.4517   -0.5135   -1.0048 C   0  0  0  0  0  0  0  0  0  0  0  0
   -3.9781   -1.9613    1.0277 C   0  0  0  0  0  0  0  0  0  0  0  0
   -2.6136   -2.4613    2.1588 S   0  0  0  0  0  0  0  0  0  0  0  0
    2.0951    0.1818    2.1612 C   0  0  0  0  0  0  0  0  0  0  0  0
    2.8953   -1.0906    2.1690 C   0  0  0  0  0  0  0  0  0  0  0  0
    3.4231   -1.3598    0.8853 O   0  0  0  0  0  0  0  0  0  0  0  0
    3.9494   -0.2634    0.1840 C   0  0  0  0  0  0  0  0  0  0  0  0
    4.8323   -0.4897   -0.8519 C   0  0  0  0  0  0  0  0  0  0  0  0
    5.3713    0.5806   -1.5665 C   0  0  0  0  0  0  0  0  0  0  0  0
    5.0106    1.8625   -1.2240 C   0  0  0  0  0  0  0  0  0  0  0  0
    4.1331    2.1239   -0.1969 C   0  0  0  0  0  0  0  0  0  0  0  0
    3.6133    1.0317    0.4963 C   0  0  0  0  0  0  0  0  0  0  0  0
    2.7341    1.2493    1.5285 O   0  0  0  0  0  0  0  0  0  0  0  0
    0.1565   -1.6737    2.8455 H   0  0  0  0  0  0  0  0  0  0  0  0
   -2.6103    1.2063   -1.1148 H   0  0  0  0  0  0  0  0  0  0  0  0
   -3.8291    2.4338   -2.8226 H   0  0  0  0  0  0  0  0  0  0  0  0
   -7.1838   -0.1153   -2.2296 H   0  0  0  0  0  0  0  0  0  0  0  0
   -5.9189   -1.3403   -0.5008 H   0  0  0  0  0  0  0  0  0  0  0  0
   -4.9285   -2.4350    0.9737 H   0  0  0  0  0  0  0  0  0  0  0  0
    1.9706    0.4789    3.2439 H   0  0  0  0  0  0  0  0  0  0  0  0
    2.2228   -1.9084    2.5089 H   0  0  0  0  0  0  0  0  0  0  0  0
    3.7099   -1.0241    2.9347 H   0  0  0  0  0  0  0  0  0  0  0  0
    5.1135   -1.5181   -1.1169 H   0  0  0  0  0  0  0  0  0  0  0  0
    6.0711    0.3923   -2.3871 H   0  0  0  0  0  0  0  0  0  0  0  0
    5.4313    2.6903   -1.7813 H   0  0  0  0  0  0  0  0  0  0  0  0
    3.8376    3.1304    0.0866 H   0  0  0  0  0  0  0  0  0  0  0  0
  1  2  2  0
  2  3  1  0
  3  4  1  0
  4  5  2  0
  5  6  1  0
  6  7  1  0
  7  8  2  0
  8  9  1  0
  9 10  2  0
 10 11  1  0
 11 12  2  0
  6 13  2  0
 13 14  1  0
  2 15  1  0
 15 16  1  0
 16 17  1  0
 17 18  1  0
 18 19  2  0
 19 20  1  0
 20 21  2  0
 21 22  1  0
 22 23  2  0
 23 24  1  0
 14  4  1  0
 24 15  1  0
 12  7  1  0
 23 18  1  0
  3 25  1  0
  8 26  1  0
  9 27  1  0
 11 28  1  0
 12 29  1  0
 13 30  1  0
 15 31  1  0
 16 32  1  0
 16 33  1  0
 19 34  1  0
 20 35  1  0
 21 36  1  0
 22 37  1  0
M  END
$$$$
