@<TRIPOS>MOLECULE
*****
 37 40 0 0 0
SMALL
GASTEIGER

@<TRIPOS>ATOM
      1 O           0.2928    0.7455    0.7534 O.2     1  UNL1       -0.2712
      2 C           0.7117   -0.0266    1.6531 C.2     1  UNL1        0.2628
      3 N          -0.1480   -1.0304    2.1183 N.am    1  UNL1       -0.2615
      4 C          -1.5068   -1.1494    1.5427 C.ar    1  UNL1        0.1650
      5 N          -2.1715   -0.6190    0.7354 N.ar    1  UNL1       -0.2246
      6 C          -3.3966   -0.8860    0.3592 C.ar    1  UNL1        0.0803
      7 C          -4.1766   -0.1509   -0.6887 C.ar    1  UNL1        0.0038
      8 C          -3.6243    0.9123   -1.3610 C.ar    1  UNL1       -0.0344
      9 C          -4.3181    1.6085   -2.3310 C.ar    1  UNL1        0.0282
     10 N          -5.5694    1.2105   -2.6035 N.ar    1  UNL1       -0.2632
     11 C          -6.1500    0.1782   -1.9730 C.ar    1  UNL1        0.0282
     12 C          -5.4517   -0.5135   -1.0048 C.ar    1  UNL1       -0.0344
     13 C          -3.9781   -1.9613    1.0277 C.ar    1  UNL1        0.0049
     14 S          -2.6136   -2.4613    2.1588 S.2     1  UNL1       -0.0599
     15 C           2.0951    0.1818    2.1612 C.3     1  UNL1        0.2094
     16 C           2.8953   -1.0906    2.1690 C.3     1  UNL1        0.1352
     17 O           3.4231   -1.3598    0.8853 O.3     1  UNL1       -0.4841
     18 C           3.9494   -0.2634    0.1840 C.ar    1  UNL1        0.1621
     19 C           4.8323   -0.4897   -0.8519 C.ar    1  UNL1       -0.0163
     20 C           5.3713    0.5806   -1.5665 C.ar    1  UNL1       -0.0581
     21 C           5.0106    1.8625   -1.2240 C.ar    1  UNL1       -0.0581
     22 C           4.1331    2.1239   -0.1969 C.ar    1  UNL1       -0.0163
     23 C           3.6133    1.0317    0.4963 C.ar    1  UNL1        0.1632
     24 O           2.7341    1.2493    1.5285 O.3     1  UNL1       -0.4725
     25 H           0.1565   -1.6737    2.8455 H       1  UNL1        0.1568
     26 H          -2.6103    1.2063   -1.1148 H       1  UNL1        0.0639
     27 H          -3.8291    2.4338   -2.8226 H       1  UNL1        0.0830
     28 H          -7.1838   -0.1153   -2.2296 H       1  UNL1        0.0830
     29 H          -5.9189   -1.3403   -0.5008 H       1  UNL1        0.0639
     30 H          -4.9285   -2.4350    0.9737 H       1  UNL1        0.0716
     31 H           1.9706    0.4789    3.2439 H       1  UNL1        0.0867
     32 H           2.2228   -1.9084    2.5089 H       1  UNL1        0.0739
     33 H           3.7099   -1.0241    2.9347 H       1  UNL1        0.0739
     34 H           5.1135   -1.5181   -1.1169 H       1  UNL1        0.0655
     35 H           6.0711    0.3923   -2.3871 H       1  UNL1        0.0619
     36 H           5.4313    2.6903   -1.7813 H       1  UNL1        0.0619
     37 H           3.8376    3.1304    0.0866 H       1  UNL1        0.0655
@<TRIPOS>BOND
     1     1     2    2
     2     2     3   am
     3     3     4    1
     4     4     5   ar
     5     5     6   ar
     6     6     7    1
     7     7     8   ar
     8     8     9   ar
     9     9    10   ar
    10    10    11   ar
    11    11    12   ar
    12     6    13   ar
    13    13    14   ar
    14     2    15    1
    15    15    16    1
    16    16    17    1
    17    17    18    1
    18    18    19   ar
    19    19    20   ar
    20    20    21   ar
    21    21    22   ar
    22    22    23   ar
    23    23    24    1
    24    14     4   ar
    25    24    15    1
    26    12     7   ar
    27    23    18   ar
    28     3    25    1
    29     8    26    1
    30     9    27    1
    31    11    28    1
    32    12    29    1
    33    13    30    1
    34    15    31    1
    35    16    32    1
    36    16    33    1
    37    19    34    1
    38    20    35    1
    39    21    36    1
    40    22    37    1
