
     RDKit          3D

 50 51  0  0  0  0  0  0  0  0999 V2000
   -1.3930   -1.7253    3.1664 C   0  0  0  0  0  0  0  0  0  0  0  0
   -2.1668   -0.9504    2.2730 O   0  0  0  0  0  0  0  0  0  0  0  0
   -1.5287   -0.2572    1.2506 C   0  0  0  0  0  0  0  0  0  0  0  0
   -0.1526   -0.3404    1.1375 C   0  0  0  0  0  0  0  0  0  0  0  0
    0.5331    0.3319    0.1432 C   0  0  0  0  0  0  0  0  0  0  0  0
    2.0000    0.1999    0.0875 C   0  0  0  0  0  0  0  0  0  0  0  0
    2.7505    0.3617    1.2363 C   0  0  0  0  0  0  0  0  0  0  0  0
    4.1299    0.2504    1.2185 C   0  0  0  0  0  0  0  0  0  0  0  0
    4.9125    0.4267    2.4522 C   0  0  0  0  0  0  0  0  0  0  0  0
    4.7795   -0.0259    0.0440 C   0  0  0  0  0  0  0  0  0  0  0  0
    6.0249   -0.1454   -0.0724 O   0  0  0  0  0  0  0  0  0  0  0  0
    4.0432   -0.1843   -1.0813 N   0  0  0  0  0  0  0  0  0  0  0  0
    4.7134   -0.4778   -2.3391 C   0  0  0  0  0  0  0  0  0  0  0  0
    2.6774   -0.0757   -1.0723 C   0  0  0  0  0  0  0  0  0  0  0  0
    1.9134   -0.2605   -2.3147 C   0  0  0  0  0  0  0  0  0  0  0  0
   -0.1651    1.0887   -0.7383 C   0  0  0  0  0  0  0  0  0  0  0  0
   -1.5267    1.1846   -0.6454 C   0  0  0  0  0  0  0  0  0  0  0  0
   -2.2687    1.9443   -1.5240 O   0  0  0  0  0  0  0  0  0  0  0  0
   -1.5757    2.6369   -2.5443 C   0  0  0  0  0  0  0  0  0  0  0  0
   -2.2203    0.5161    0.3441 C   0  0  0  0  0  0  0  0  0  0  0  0
   -3.6826    0.5947    0.4117 C   0  0  0  0  0  0  0  0  0  0  0  0
   -4.4314   -0.4177   -0.1970 N   0  0  0  0  0  0  0  0  0  0  0  0
   -5.8334   -0.2607    0.0372 C   0  0  0  0  0  0  0  0  0  0  0  0
   -3.9316   -1.7314   -0.0304 C   0  0  0  0  0  0  0  0  0  0  0  0
   -0.6465   -1.0878    3.7130 H   0  0  0  0  0  0  0  0  0  0  0  0
   -0.8354   -2.5469    2.6375 H   0  0  0  0  0  0  0  0  0  0  0  0
   -2.0617   -2.2591    3.8808 H   0  0  0  0  0  0  0  0  0  0  0  0
    0.3937   -0.9623    1.8669 H   0  0  0  0  0  0  0  0  0  0  0  0
    2.2198    0.5826    2.1731 H   0  0  0  0  0  0  0  0  0  0  0  0
    5.2132   -0.5775    2.8642 H   0  0  0  0  0  0  0  0  0  0  0  0
    4.2698    0.8682    3.2598 H   0  0  0  0  0  0  0  0  0  0  0  0
    5.8441    1.0080    2.3021 H   0  0  0  0  0  0  0  0  0  0  0  0
    4.5128   -1.5615   -2.5355 H   0  0  0  0  0  0  0  0  0  0  0  0
    5.7985   -0.3645   -2.2334 H   0  0  0  0  0  0  0  0  0  0  0  0
    4.2871    0.0759   -3.1884 H   0  0  0  0  0  0  0  0  0  0  0  0
    1.9666    0.6051   -3.0057 H   0  0  0  0  0  0  0  0  0  0  0  0
    0.8902   -0.6451   -2.1493 H   0  0  0  0  0  0  0  0  0  0  0  0
    2.4279   -1.0999   -2.8761 H   0  0  0  0  0  0  0  0  0  0  0  0
    0.4100    1.6066   -1.5071 H   0  0  0  0  0  0  0  0  0  0  0  0
   -0.8695    1.9665   -3.0699 H   0  0  0  0  0  0  0  0  0  0  0  0
   -2.3042    3.1232   -3.2527 H   0  0  0  0  0  0  0  0  0  0  0  0
   -0.9968    3.4917   -2.1127 H   0  0  0  0  0  0  0  0  0  0  0  0
   -3.9245    0.5561    1.5260 H   0  0  0  0  0  0  0  0  0  0  0  0
   -4.0322    1.6165    0.0960 H   0  0  0  0  0  0  0  0  0  0  0  0
   -6.3363    0.3028   -0.7960 H   0  0  0  0  0  0  0  0  0  0  0  0
   -6.3692   -1.2241    0.1418 H   0  0  0  0  0  0  0  0  0  0  0  0
   -6.0379    0.2993    0.9883 H   0  0  0  0  0  0  0  0  0  0  0  0
   -4.1577   -2.2038    0.9649 H   0  0  0  0  0  0  0  0  0  0  0  0
   -2.8305   -1.8190   -0.1748 H   0  0  0  0  0  0  0  0  0  0  0  0
   -4.4325   -2.4345   -0.7555 H   0  0  0  0  0  0  0  0  0  0  0  0
  1  2  1  0
  2  3  1  0
  3  4  2  0
  4  5  1  0
  5  6  1  0
  6  7  1  0
  7  8  2  0
  8  9  1  0
  8 10  1  0
 10 11  2  0
 10 12  1  0
 12 13  1  0
 12 14  1  0
 14 15  1  0
  5 16  2  0
 16 17  1  0
 17 18  1  0
 18 19  1  0
 17 20  2  0
 20 21  1  0
 21 22  1  0
 22 23  1  0
 22 24  1  0
 20  3  1  0
 14  6  2  0
  1 25  1  0
  1 26  1  0
  1 27  1  0
  4 28  1  0
  7 29  1  0
  9 30  1  0
  9 31  1  0
  9 32  1  0
 13 33  1  0
 13 34  1  0
 13 35  1  0
 15 36  1  0
 15 37  1  0
 15 38  1  0
 16 39  1  0
 19 40  1  0
 19 41  1  0
 19 42  1  0
 21 43  1  0
 21 44  1  0
 23 45  1  0
 23 46  1  0
 23 47  1  0
 24 48  1  0
 24 49  1  0
 24 50  1  0
M  END
$$$$
