@<TRIPOS>MOLECULE
*****
 50 51 0 0 0
SMALL
GASTEIGER

@<TRIPOS>ATOM
      1 C          -1.3930   -1.7253    3.1664 C.3     1  UNL1        0.0788
      2 O          -2.1668   -0.9504    2.2730 O.3     1  UNL1       -0.4947
      3 C          -1.5287   -0.2572    1.2506 C.ar    1  UNL1        0.1285
      4 C          -0.1526   -0.3404    1.1375 C.ar    1  UNL1       -0.0116
      5 C           0.5331    0.3319    0.1432 C.ar    1  UNL1       -0.0093
      6 C           2.0000    0.1999    0.0875 C.ar    1  UNL1        0.0019
      7 C           2.7505    0.3617    1.2363 C.ar    1  UNL1       -0.0443
      8 C           4.1299    0.2504    1.2185 C.ar    1  UNL1        0.0146
      9 C           4.9125    0.4267    2.4522 C.3     1  UNL1       -0.0346
     10 C           4.7795   -0.0259    0.0440 C.ar    1  UNL1        0.2542
     11 O           6.0249   -0.1454   -0.0724 O.2     1  UNL1       -0.2674
     12 N           4.0432   -0.1843   -1.0813 N.ar    1  UNL1       -0.3149
     13 C           4.7134   -0.4778   -2.3391 C.3     1  UNL1        0.0150
     14 C           2.6774   -0.0757   -1.0723 C.ar    1  UNL1        0.0263
     15 C           1.9134   -0.2605   -2.3147 C.3     1  UNL1       -0.0236
     16 C          -0.1651    1.0887   -0.7383 C.ar    1  UNL1       -0.0116
     17 C          -1.5267    1.1846   -0.6454 C.ar    1  UNL1        0.1285
     18 O          -2.2687    1.9443   -1.5240 O.3     1  UNL1       -0.4947
     19 C          -1.5757    2.6369   -2.5443 C.3     1  UNL1        0.0788
     20 C          -2.2203    0.5161    0.3441 C.ar    1  UNL1        0.0497
     21 C          -3.6826    0.5947    0.4117 C.3     1  UNL1        0.0304
     22 N          -4.4314   -0.4177   -0.1970 N.3     1  UNL1       -0.3039
     23 C          -5.8334   -0.2607    0.0372 C.3     1  UNL1       -0.0127
     24 C          -3.9316   -1.7314   -0.0304 C.3     1  UNL1       -0.0127
     25 H          -0.6465   -1.0878    3.7130 H       1  UNL1        0.0660
     26 H          -0.8354   -2.5469    2.6375 H       1  UNL1        0.0660
     27 H          -2.0617   -2.2591    3.8808 H       1  UNL1        0.0660
     28 H           0.3937   -0.9623    1.8669 H       1  UNL1        0.0660
     29 H           2.2198    0.5826    2.1731 H       1  UNL1        0.0628
     30 H           5.2132   -0.5775    2.8642 H       1  UNL1        0.0279
     31 H           4.2698    0.8682    3.2598 H       1  UNL1        0.0279
     32 H           5.8441    1.0080    2.3021 H       1  UNL1        0.0279
     33 H           4.5128   -1.5615   -2.5355 H       1  UNL1        0.0457
     34 H           5.7985   -0.3645   -2.2334 H       1  UNL1        0.0457
     35 H           4.2871    0.0759   -3.1884 H       1  UNL1        0.0457
     36 H           1.9666    0.6051   -3.0057 H       1  UNL1        0.0292
     37 H           0.8902   -0.6451   -2.1493 H       1  UNL1        0.0292
     38 H           2.4279   -1.0999   -2.8761 H       1  UNL1        0.0292
     39 H           0.4100    1.6066   -1.5071 H       1  UNL1        0.0660
     40 H          -0.8695    1.9665   -3.0699 H       1  UNL1        0.0660
     41 H          -2.3042    3.1232   -3.2527 H       1  UNL1        0.0660
     42 H          -0.9968    3.4917   -2.1127 H       1  UNL1        0.0660
     43 H          -3.9245    0.5561    1.5260 H       1  UNL1        0.0478
     44 H          -4.0322    1.6165    0.0960 H       1  UNL1        0.0478
     45 H          -6.3363    0.3028   -0.7960 H       1  UNL1        0.0391
     46 H          -6.3692   -1.2241    0.1418 H       1  UNL1        0.0391
     47 H          -6.0379    0.2993    0.9883 H       1  UNL1        0.0391
     48 H          -4.1577   -2.2038    0.9649 H       1  UNL1        0.0391
     49 H          -2.8305   -1.8190   -0.1748 H       1  UNL1        0.0391
     50 H          -4.4325   -2.4345   -0.7555 H       1  UNL1        0.0391
@<TRIPOS>BOND
     1     1     2    1
     2     2     3    1
     3     3     4   ar
     4     4     5   ar
     5     5     6    1
     6     6     7   ar
     7     7     8   ar
     8     8     9    1
     9     8    10   ar
    10    10    11    2
    11    10    12   ar
    12    12    13    1
    13    12    14   ar
    14    14    15    1
    15     5    16   ar
    16    16    17   ar
    17    17    18    1
    18    18    19    1
    19    17    20   ar
    20    20    21    1
    21    21    22    1
    22    22    23    1
    23    22    24    1
    24    20     3   ar
    25    14     6   ar
    26     1    25    1
    27     1    26    1
    28     1    27    1
    29     4    28    1
    30     7    29    1
    31     9    30    1
    32     9    31    1
    33     9    32    1
    34    13    33    1
    35    13    34    1
    36    13    35    1
    37    15    36    1
    38    15    37    1
    39    15    38    1
    40    16    39    1
    41    19    40    1
    42    19    41    1
    43    19    42    1
    44    21    43    1
    45    21    44    1
    46    23    45    1
    47    23    46    1
    48    23    47    1
    49    24    48    1
    50    24    49    1
    51    24    50    1
