@<TRIPOS>MOLECULE
*****
 41 43 0 0 0
SMALL
GASTEIGER

@<TRIPOS>ATOM
      1 O           1.8835   -0.6130   -0.3588 O.2     1  UNL1       -0.2750
      2 C           2.0008   -0.6226    0.8843 C.2     1  UNL1        0.2245
      3 C           0.8287   -1.0108    1.7048 C.3     1  UNL1        0.0824
      4 C          -0.3336   -1.3344    0.8403 C.ar    1  UNL1        0.1206
      5 N          -1.1970   -0.3878    0.4866 N.ar    1  UNL1       -0.2186
      6 C          -2.2917   -0.6018   -0.3056 C.ar    1  UNL1        0.1285
      7 N          -3.1642    0.4603   -0.6320 N.pl3   1  UNL1       -0.3106
      8 C          -2.9810    1.8027   -0.0502 C.3     1  UNL1        0.0370
      9 C          -4.4267    2.3005    0.1164 C.3     1  UNL1        0.0634
     10 O          -5.2893    1.2488    0.3985 O.3     1  UNL1       -0.3767
     11 C          -5.5565    0.4359   -0.7024 C.3     1  UNL1        0.0634
     12 C          -4.2793    0.3522   -1.5323 C.3     1  UNL1        0.0370
     13 C          -2.4536   -1.8985   -0.7303 C.ar    1  UNL1        0.0427
     14 C          -1.5761   -2.9083   -0.3826 C.ar    1  UNL1        0.2533
     15 O          -1.7354   -4.0822   -0.7758 O.2     1  UNL1       -0.2677
     16 N          -0.5354   -2.6014    0.3957 N.ar    1  UNL1       -0.3104
     17 N           3.2353   -0.2676    1.4948 N.am    1  UNL1       -0.2851
     18 C           4.3058    0.0918    0.6135 C.ar    1  UNL1        0.0346
     19 C           5.1932   -0.8386    0.1226 C.ar    1  UNL1       -0.0377
     20 C           6.2256   -0.5035   -0.7251 C.ar    1  UNL1       -0.0236
     21 C           6.3582    0.8215   -1.0842 C.ar    1  UNL1        0.1374
     22 F           7.3450    1.2343   -1.9126 F       1  UNL1       -0.2043
     23 C           5.4865    1.7945   -0.6136 C.ar    1  UNL1        0.0548
     24 BR          5.6994    3.6004   -1.1273 Br      1  UNL1       -0.0473
     25 C           4.4754    1.4043    0.2288 C.ar    1  UNL1       -0.0237
     26 H           1.0798   -1.9165    2.2954 H       1  UNL1        0.0438
     27 H           0.5623   -0.1713    2.3958 H       1  UNL1        0.0438
     28 H          -2.4552    2.4769   -0.7250 H       1  UNL1        0.0487
     29 H          -2.5407    1.7331    0.9651 H       1  UNL1        0.0487
     30 H          -4.6866    2.7681   -0.8557 H       1  UNL1        0.0575
     31 H          -4.5135    3.0287    0.9331 H       1  UNL1        0.0575
     32 H          -5.7296   -0.5996   -0.3223 H       1  UNL1        0.0575
     33 H          -6.3874    0.8279   -1.2940 H       1  UNL1        0.0575
     34 H          -4.2760    1.1930   -2.2912 H       1  UNL1        0.0487
     35 H          -4.2978   -0.5930   -2.0973 H       1  UNL1        0.0487
     36 H          -3.3158   -2.1434   -1.3694 H       1  UNL1        0.0706
     37 H           0.1796   -3.3001    0.7092 H       1  UNL1        0.1700
     38 H           3.3510   -0.2702    2.5347 H       1  UNL1        0.1548
     39 H           5.0847   -1.8746    0.4070 H       1  UNL1        0.0637
     40 H           6.9390   -1.2066   -1.1285 H       1  UNL1        0.0647
     41 H           3.7886    2.1708    0.5996 H       1  UNL1        0.0648
@<TRIPOS>BOND
     1     1     2    2
     2     2     3    1
     3     3     4    1
     4     4     5   ar
     5     5     6   ar
     6     6     7    1
     7     7     8    1
     8     8     9    1
     9     9    10    1
    10    10    11    1
    11    11    12    1
    12     6    13   ar
    13    13    14   ar
    14    14    15    2
    15    14    16   ar
    16     2    17   am
    17    17    18    1
    18    18    19   ar
    19    19    20   ar
    20    20    21   ar
    21    21    22    1
    22    21    23   ar
    23    23    24    1
    24    23    25   ar
    25    16     4   ar
    26    25    18   ar
    27    12     7    1
    28     3    26    1
    29     3    27    1
    30     8    28    1
    31     8    29    1
    32     9    30    1
    33     9    31    1
    34    11    32    1
    35    11    33    1
    36    12    34    1
    37    12    35    1
    38    13    36    1
    39    16    37    1
    40    17    38    1
    41    19    39    1
    42    20    40    1
    43    25    41    1
