
     RDKit          3D

 41 43  0  0  0  0  0  0  0  0999 V2000
    1.8835   -0.6130   -0.3588 O   0  0  0  0  0  0  0  0  0  0  0  0
    2.0008   -0.6226    0.8843 C   0  0  0  0  0  0  0  0  0  0  0  0
    0.8287   -1.0108    1.7048 C   0  0  0  0  0  0  0  0  0  0  0  0
   -0.3336   -1.3344    0.8403 C   0  0  0  0  0  0  0  0  0  0  0  0
   -1.1970   -0.3878    0.4866 N   0  0  0  0  0  0  0  0  0  0  0  0
   -2.2917   -0.6018   -0.3056 C   0  0  0  0  0  0  0  0  0  0  0  0
   -3.1642    0.4603   -0.6320 N   0  0  0  0  0  0  0  0  0  0  0  0
   -2.9810    1.8027   -0.0502 C   0  0  0  0  0  0  0  0  0  0  0  0
   -4.4267    2.3005    0.1164 C   0  0  0  0  0  0  0  0  0  0  0  0
   -5.2893    1.2488    0.3985 O   0  0  0  0  0  0  0  0  0  0  0  0
   -5.5565    0.4359   -0.7024 C   0  0  0  0  0  0  0  0  0  0  0  0
   -4.2793    0.3522   -1.5323 C   0  0  0  0  0  0  0  0  0  0  0  0
   -2.4536   -1.8985   -0.7303 C   0  0  0  0  0  0  0  0  0  0  0  0
   -1.5761   -2.9083   -0.3826 C   0  0  0  0  0  0  0  0  0  0  0  0
   -1.7354   -4.0822   -0.7758 O   0  0  0  0  0  0  0  0  0  0  0  0
   -0.5354   -2.6014    0.3957 N   0  0  0  0  0  0  0  0  0  0  0  0
    3.2353   -0.2676    1.4948 N   0  0  0  0  0  0  0  0  0  0  0  0
    4.3058    0.0918    0.6135 C   0  0  0  0  0  0  0  0  0  0  0  0
    5.1932   -0.8386    0.1226 C   0  0  0  0  0  0  0  0  0  0  0  0
    6.2256   -0.5035   -0.7251 C   0  0  0  0  0  0  0  0  0  0  0  0
    6.3582    0.8215   -1.0842 C   0  0  0  0  0  0  0  0  0  0  0  0
    7.3450    1.2343   -1.9126 F   0  0  0  0  0  0  0  0  0  0  0  0
    5.4865    1.7945   -0.6136 C   0  0  0  0  0  0  0  0  0  0  0  0
    5.6994    3.6004   -1.1273 Br  0  0  0  0  0  0  0  0  0  0  0  0
    4.4754    1.4043    0.2288 C   0  0  0  0  0  0  0  0  0  0  0  0
    1.0798   -1.9165    2.2954 H   0  0  0  0  0  0  0  0  0  0  0  0
    0.5623   -0.1713    2.3958 H   0  0  0  0  0  0  0  0  0  0  0  0
   -2.4552    2.4769   -0.7250 H   0  0  0  0  0  0  0  0  0  0  0  0
   -2.5407    1.7331    0.9651 H   0  0  0  0  0  0  0  0  0  0  0  0
   -4.6866    2.7681   -0.8557 H   0  0  0  0  0  0  0  0  0  0  0  0
   -4.5135    3.0287    0.9331 H   0  0  0  0  0  0  0  0  0  0  0  0
   -5.7296   -0.5996   -0.3223 H   0  0  0  0  0  0  0  0  0  0  0  0
   -6.3874    0.8279   -1.2940 H   0  0  0  0  0  0  0  0  0  0  0  0
   -4.2760    1.1930   -2.2912 H   0  0  0  0  0  0  0  0  0  0  0  0
   -4.2978   -0.5930   -2.0973 H   0  0  0  0  0  0  0  0  0  0  0  0
   -3.3158   -2.1434   -1.3694 H   0  0  0  0  0  0  0  0  0  0  0  0
    0.1796   -3.3001    0.7092 H   0  0  0  0  0  0  0  0  0  0  0  0
    3.3510   -0.2702    2.5347 H   0  0  0  0  0  0  0  0  0  0  0  0
    5.0847   -1.8746    0.4070 H   0  0  0  0  0  0  0  0  0  0  0  0
    6.9390   -1.2066   -1.1285 H   0  0  0  0  0  0  0  0  0  0  0  0
    3.7886    2.1708    0.5996 H   0  0  0  0  0  0  0  0  0  0  0  0
  1  2  2  0
  2  3  1  0
  3  4  1  0
  4  5  2  0
  5  6  1  0
  6  7  1  0
  7  8  1  0
  8  9  1  0
  9 10  1  0
 10 11  1  0
 11 12  1  0
  6 13  2  0
 13 14  1  0
 14 15  2  0
 14 16  1  0
  2 17  1  0
 17 18  1  0
 18 19  2  0
 19 20  1  0
 20 21  2  0
 21 22  1  0
 21 23  1  0
 23 24  1  0
 23 25  2  0
 16  4  1  0
 25 18  1  0
 12  7  1  0
  3 26  1  0
  3 27  1  0
  8 28  1  0
  8 29  1  0
  9 30  1  0
  9 31  1  0
 11 32  1  0
 11 33  1  0
 12 34  1  0
 12 35  1  0
 13 36  1  0
 16 37  1  0
 17 38  1  0
 19 39  1  0
 20 40  1  0
 25 41  1  0
M  END
$$$$
