@<TRIPOS>MOLECULE
*****
 38 38 0 0 0
SMALL
GASTEIGER

@<TRIPOS>ATOM
      1 C           0.0866   -2.4790   -1.2663 C.3     1  UNL1       -0.0638
      2 C           0.3420   -1.0541   -1.6158 C.3     1  UNL1       -0.0377
      3 C           0.8649   -0.2072   -0.4736 C.3     1  UNL1        0.0377
      4 N           2.0875   -0.7793   -0.0483 N.3     1  UNL1       -0.3083
      5 C           2.8076   -0.1992    1.0138 C.3     1  UNL1        0.0023
      6 C           4.1210   -0.9993    1.1339 C.3     1  UNL1       -0.0499
      7 C           3.1910    1.2323    0.8802 C.3     1  UNL1       -0.0499
      8 C          -0.0989   -0.0654    0.6383 C.3     1  UNL1        0.0955
      9 O           0.3334    0.7602    1.6647 O.3     1  UNL1       -0.3856
     10 C          -1.4221    0.4833    0.2152 C.ar    1  UNL1       -0.0140
     11 C          -2.5331   -0.3108   -0.0194 C.ar    1  UNL1       -0.0109
     12 C          -3.7550    0.1713   -0.4076 C.ar    1  UNL1        0.1586
     13 O          -4.8048   -0.7141   -0.6163 O.3     1  UNL1       -0.5033
     14 C          -3.8491    1.5445   -0.5659 C.ar    1  UNL1        0.1582
     15 O          -5.1040    2.0251   -0.9632 O.3     1  UNL1       -0.5033
     16 C          -2.7663    2.3803   -0.3432 C.ar    1  UNL1       -0.0162
     17 C          -1.5354    1.8470    0.0525 C.ar    1  UNL1       -0.0524
     18 H          -0.0343   -2.6555   -0.1769 H       1  UNL1        0.0230
     19 H          -0.7732   -2.8944   -1.8483 H       1  UNL1        0.0230
     20 H           0.9731   -3.0755   -1.5670 H       1  UNL1        0.0230
     21 H           1.0317   -1.0165   -2.4832 H       1  UNL1        0.0279
     22 H          -0.6284   -0.6351   -2.0148 H       1  UNL1        0.0279
     23 H           1.1089    0.7710   -0.9501 H       1  UNL1        0.0489
     24 H           2.6126   -1.3222   -0.7509 H       1  UNL1        0.1225
     25 H           2.2775   -0.3431    1.9790 H       1  UNL1        0.0455
     26 H           4.6663   -0.6708    2.0281 H       1  UNL1        0.0245
     27 H           3.8931   -2.0846    1.1720 H       1  UNL1        0.0245
     28 H           4.6658   -0.8214    0.1862 H       1  UNL1        0.0245
     29 H           4.2146    1.3175    0.4410 H       1  UNL1        0.0245
     30 H           2.4637    1.8703    0.3302 H       1  UNL1        0.0245
     31 H           3.2790    1.6683    1.8969 H       1  UNL1        0.0245
     32 H          -0.3237   -1.0429    1.1162 H       1  UNL1        0.0659
     33 H           0.0086    0.4488    2.5531 H       1  UNL1        0.2103
     34 H          -2.3473   -1.3686    0.1342 H       1  UNL1        0.0659
     35 H          -5.7752   -0.3969   -0.6386 H       1  UNL1        0.2923
     36 H          -5.6260    2.6965   -0.4147 H       1  UNL1        0.2923
     37 H          -2.9382    3.4173   -0.4909 H       1  UNL1        0.0655
     38 H          -0.7140    2.5019    0.2194 H       1  UNL1        0.0622
@<TRIPOS>BOND
     1     1     2    1
     2     2     3    1
     3     3     4    1
     4     4     5    1
     5     5     6    1
     6     5     7    1
     7     3     8    1
     8     8     9    1
     9     8    10    1
    10    10    11   ar
    11    11    12   ar
    12    12    13    1
    13    12    14   ar
    14    14    15    1
    15    14    16   ar
    16    16    17   ar
    17    17    10   ar
    18     1    18    1
    19     1    19    1
    20     1    20    1
    21     2    21    1
    22     2    22    1
    23     3    23    1
    24     4    24    1
    25     5    25    1
    26     6    26    1
    27     6    27    1
    28     6    28    1
    29     7    29    1
    30     7    30    1
    31     7    31    1
    32     8    32    1
    33     9    33    1
    34    11    34    1
    35    13    35    1
    36    15    36    1
    37    16    37    1
    38    17    38    1
