
     RDKit          3D

 44 48  0  0  0  0  0  0  0  0999 V2000
    9.9967    1.8447   -0.5013 O   0  0  0  0  0  0  0  0  0  0  0  0
    8.9510    1.2504   -0.1653 C   0  0  0  0  0  0  0  0  0  0  0  0
    8.1718    1.8283    0.8170 O   0  0  0  0  0  0  0  0  0  0  0  0
    8.5309   -0.0215   -0.7700 C   0  0  0  0  0  0  0  0  0  0  0  0
    7.2812   -0.4829   -0.1830 N   0  0  0  0  0  0  0  0  0  0  0  0
    7.1691   -1.2640    0.8773 N   0  0  0  0  0  0  0  0  0  0  0  0
    5.8788   -1.4842    1.1259 N   0  0  0  0  0  0  0  0  0  0  0  0
    5.1565   -0.8312    0.2060 C   0  0  0  0  0  0  0  0  0  0  0  0
    3.7057   -0.7599    0.0544 C   0  0  0  0  0  0  0  0  0  0  0  0
    2.9831   -0.1136   -0.9909 C   0  0  0  0  0  0  0  0  0  0  0  0
    1.6944   -0.2266   -0.8381 N   0  0  0  0  0  0  0  0  0  0  0  0
    1.0467   -0.7357   -0.0407 C   0  0  0  0  0  0  0  0  0  0  0  0
   -0.2981   -1.0014    0.4029 N   0  0  0  0  0  0  0  0  0  0  0  0
   -1.3625   -1.9007    0.0128 C   0  0  0  0  0  0  0  0  0  0  0  0
   -2.2960   -0.8394    0.5481 C   0  0  0  0  0  0  0  0  0  0  0  0
   -1.1684   -0.4466    1.4530 C   0  0  0  0  0  0  0  0  0  0  0  0
   -3.6186   -1.1504    1.0247 C   0  0  0  0  0  0  0  0  0  0  0  0
   -4.1522   -0.1330    0.1371 N   0  0  0  0  0  0  0  0  0  0  0  0
   -5.3887    0.4646   -0.2171 C   0  0  0  0  0  0  0  0  0  0  0  0
   -5.5478    1.8386   -0.0087 C   0  0  0  0  0  0  0  0  0  0  0  0
   -6.7322    2.4230   -0.3550 C   0  0  0  0  0  0  0  0  0  0  0  0
   -6.9157    3.7372   -0.1678 F   0  0  0  0  0  0  0  0  0  0  0  0
   -7.7494    1.6633   -0.9003 C   0  0  0  0  0  0  0  0  0  0  0  0
   -7.6091    0.2902   -1.1153 C   0  0  0  0  0  0  0  0  0  0  0  0
   -6.3968   -0.2816   -0.7559 C   0  0  0  0  0  0  0  0  0  0  0  0
   -6.1760   -1.9986   -1.0115 Cl  0  0  0  0  0  0  0  0  0  0  0  0
   -2.8086    0.1628   -0.3961 C   0  0  0  0  0  0  0  0  0  0  0  0
    2.4649   -1.4121    1.0685 S   0  0  0  0  0  0  0  0  0  0  0  0
    6.0537   -0.2292   -0.5797 N   0  0  0  0  0  0  0  0  0  0  0  0
    8.0744    2.8319    0.9417 H   0  0  0  0  0  0  0  0  0  0  0  0
    9.3041   -0.8129   -0.6654 H   0  0  0  0  0  0  0  0  0  0  0  0
    8.2931    0.1480   -1.8623 H   0  0  0  0  0  0  0  0  0  0  0  0
    3.5325    0.4114   -1.8143 H   0  0  0  0  0  0  0  0  0  0  0  0
   -1.5428   -2.0117   -1.0658 H   0  0  0  0  0  0  0  0  0  0  0  0
   -1.3832   -2.8218    0.5950 H   0  0  0  0  0  0  0  0  0  0  0  0
   -1.0824   -1.0040    2.4090 H   0  0  0  0  0  0  0  0  0  0  0  0
   -1.1033    0.6250    1.6103 H   0  0  0  0  0  0  0  0  0  0  0  0
   -3.8119   -0.7973    2.0820 H   0  0  0  0  0  0  0  0  0  0  0  0
   -4.0534   -2.1628    0.8812 H   0  0  0  0  0  0  0  0  0  0  0  0
   -4.7667    2.4423    0.4146 H   0  0  0  0  0  0  0  0  0  0  0  0
   -8.6956    2.1062   -1.1814 H   0  0  0  0  0  0  0  0  0  0  0  0
   -8.3920   -0.3232   -1.5411 H   0  0  0  0  0  0  0  0  0  0  0  0
   -2.5720    1.2362   -0.1518 H   0  0  0  0  0  0  0  0  0  0  0  0
   -2.6649   -0.0576   -1.4541 H   0  0  0  0  0  0  0  0  0  0  0  0
  1  2  2  0
  2  3  1  0
  2  4  1  0
  4  5  1  0
  5  6  1  0
  6  7  2  0
  7  8  1  0
  8  9  1  0
  9 10  2  0
 10 11  1  0
 11 12  2  0
 12 13  1  0
 13 14  1  0
 14 15  1  0
 15 16  1  0
 15 17  1  0
 17 18  1  0
 18 19  1  0
 19 20  2  0
 20 21  1  0
 21 22  1  0
 21 23  2  0
 23 24  1  0
 24 25  2  0
 25 26  1  0
 18 27  1  0
 12 28  1  0
  8 29  2  0
 29  5  1  0
 28  9  1  0
 16 13  1  0
 25 19  1  0
 27 15  1  0
  3 30  1  0
  4 31  1  0
  4 32  1  0
 10 33  1  0
 14 34  1  0
 14 35  1  0
 16 36  1  0
 16 37  1  0
 17 38  1  0
 17 39  1  0
 20 40  1  0
 23 41  1  0
 24 42  1  0
 27 43  1  0
 27 44  1  0
M  END
$$$$
