@<TRIPOS>MOLECULE
*****
 44 48 0 0 0
SMALL
GASTEIGER

@<TRIPOS>ATOM
      1 O           9.9967    1.8447   -0.5013 O.2     1  UNL1       -0.2489
      2 C           8.9510    1.2504   -0.1653 C.2     1  UNL1        0.3282
      3 O           8.1718    1.8283    0.8170 O.3     1  UNL1       -0.4793
      4 C           8.5309   -0.0215   -0.7700 C.3     1  UNL1        0.1593
      5 N           7.2812   -0.4829   -0.1830 N.ar    1  UNL1       -0.1519
      6 N           7.1691   -1.2640    0.8773 N.ar    1  UNL1       -0.0452
      7 N           5.8788   -1.4842    1.1259 N.ar    1  UNL1       -0.1072
      8 C           5.1565   -0.8312    0.2060 C.ar    1  UNL1        0.2126
      9 C           3.7057   -0.7599    0.0544 C.ar    1  UNL1        0.0810
     10 C           2.9831   -0.1136   -0.9909 C.ar    1  UNL1        0.0477
     11 N           1.6944   -0.2266   -0.8381 N.ar    1  UNL1       -0.2324
     12 C           1.0467   -0.7357   -0.0407 C.ar    1  UNL1        0.1613
     13 N          -0.2981   -1.0014    0.4029 N.pl3   1  UNL1       -0.3082
     14 C          -1.3625   -1.9007    0.0128 C.3     1  UNL1        0.0239
     15 C          -2.2960   -0.8394    0.5481 C.3     1  UNL1        0.0334
     16 C          -1.1684   -0.4466    1.4530 C.3     1  UNL1        0.0239
     17 C          -3.6186   -1.1504    1.0247 C.3     1  UNL1        0.0222
     18 N          -4.1522   -0.1330    0.1371 N.pl3   1  UNL1       -0.3273
     19 C          -5.3887    0.4646   -0.2171 C.ar    1  UNL1        0.0510
     20 C          -5.5478    1.8386   -0.0087 C.ar    1  UNL1       -0.0040
     21 C          -6.7322    2.4230   -0.3550 C.ar    1  UNL1        0.1252
     22 F          -6.9157    3.7372   -0.1678 F       1  UNL1       -0.2054
     23 C          -7.7494    1.6633   -0.9003 C.ar    1  UNL1       -0.0250
     24 C          -7.6091    0.2902   -1.1153 C.ar    1  UNL1       -0.0389
     25 C          -6.3968   -0.2816   -0.7559 C.ar    1  UNL1        0.0621
     26 CL         -6.1760   -1.9986   -1.0115 Cl      1  UNL1       -0.0816
     27 C          -2.8086    0.1628   -0.3961 C.3     1  UNL1        0.0222
     28 S           2.4649   -1.4121    1.0685 S.2     1  UNL1       -0.0490
     29 N           6.0537   -0.2292   -0.5797 N.ar    1  UNL1       -0.1293
     30 H           8.0744    2.8319    0.9417 H       1  UNL1        0.2951
     31 H           9.3041   -0.8129   -0.6654 H       1  UNL1        0.0644
     32 H           8.2931    0.1480   -1.8623 H       1  UNL1        0.0644
     33 H           3.5325    0.4114   -1.8143 H       1  UNL1        0.0843
     34 H          -1.5428   -2.0117   -1.0658 H       1  UNL1        0.0471
     35 H          -1.3832   -2.8218    0.5950 H       1  UNL1        0.0471
     36 H          -1.0824   -1.0040    2.4090 H       1  UNL1        0.0471
     37 H          -1.1033    0.6250    1.6103 H       1  UNL1        0.0471
     38 H          -3.8119   -0.7973    2.0820 H       1  UNL1        0.0471
     39 H          -4.0534   -2.1628    0.8812 H       1  UNL1        0.0471
     40 H          -4.7667    2.4423    0.4146 H       1  UNL1        0.0665
     41 H          -8.6956    2.1062   -1.1814 H       1  UNL1        0.0647
     42 H          -8.3920   -0.3232   -1.5411 H       1  UNL1        0.0634
     43 H          -2.5720    1.2362   -0.1518 H       1  UNL1        0.0471
     44 H          -2.6649   -0.0576   -1.4541 H       1  UNL1        0.0471
@<TRIPOS>BOND
     1     1     2    2
     2     2     3    1
     3     2     4    1
     4     4     5    1
     5     5     6   ar
     6     6     7   ar
     7     7     8   ar
     8     8     9    1
     9     9    10   ar
    10    10    11   ar
    11    11    12   ar
    12    12    13    1
    13    13    14    1
    14    14    15    1
    15    15    16    1
    16    15    17    1
    17    17    18    1
    18    18    19    1
    19    19    20   ar
    20    20    21   ar
    21    21    22    1
    22    21    23   ar
    23    23    24   ar
    24    24    25   ar
    25    25    26    1
    26    18    27    1
    27    12    28   ar
    28     8    29   ar
    29    29     5   ar
    30    28     9   ar
    31    16    13    1
    32    25    19   ar
    33    27    15    1
    34     3    30    1
    35     4    31    1
    36     4    32    1
    37    10    33    1
    38    14    34    1
    39    14    35    1
    40    16    36    1
    41    16    37    1
    42    17    38    1
    43    17    39    1
    44    20    40    1
    45    23    41    1
    46    24    42    1
    47    27    43    1
    48    27    44    1
