@<TRIPOS>MOLECULE
*****
 41 43 0 0 0
SMALL
GASTEIGER

@<TRIPOS>ATOM
      1 O          -0.2097    0.1614   -0.2979 O.2     1  UNL1       -0.2260
      2 C          -0.5084   -0.7552    0.4968 C.2     1  UNL1        0.4056
      3 N          -1.8874   -1.0299    0.7040 N.am    1  UNL1       -0.2805
      4 C          -2.9424   -0.2975    0.0381 C.3     1  UNL1        0.0187
      5 C          -4.2659   -0.8500    0.4897 C.3     1  UNL1       -0.0120
      6 C          -5.4161   -0.1768   -0.1268 C.ar    1  UNL1       -0.0459
      7 C          -5.9611    0.9229    0.4995 C.ar    1  UNL1       -0.0585
      8 C          -7.0249    1.5997   -0.0070 C.ar    1  UNL1       -0.0615
      9 C          -7.5982    1.2031   -1.1758 C.ar    1  UNL1       -0.0617
     10 C          -7.0949    0.1108   -1.8445 C.ar    1  UNL1       -0.0615
     11 C          -5.9993   -0.5761   -1.3109 C.ar    1  UNL1       -0.0585
     12 O           0.5205   -1.4434    1.1233 O.3     1  UNL1       -0.4115
     13 C           1.8456   -1.0806    0.8377 C.ar    1  UNL1        0.1333
     14 C           2.3881   -0.1071    1.6519 C.ar    1  UNL1       -0.0185
     15 C           3.6730    0.3152    1.4545 C.ar    1  UNL1       -0.0486
     16 C           4.4155   -0.2409    0.4373 C.ar    1  UNL1        0.0066
     17 C           5.7717    0.1977    0.2210 C.2     1  UNL1        0.0987
     18 N           6.5846   -0.2009   -0.6553 N.2     1  UNL1       -0.2757
     19 C           7.8752    0.3343   -0.7261 C.3     1  UNL1        0.0503
     20 C           7.9557    1.7077   -0.0942 C.3     1  UNL1        0.0193
     21 S           6.6241    1.4505    1.1631 S.3     1  UNL1       -0.1039
     22 C           3.8585   -1.2223   -0.3782 C.ar    1  UNL1       -0.0486
     23 C           2.5618   -1.6455   -0.1757 C.ar    1  UNL1       -0.0185
     24 H          -2.1198   -1.7868    1.3605 H       1  UNL1        0.1520
     25 H          -2.8081    0.7684    0.3198 H       1  UNL1        0.0466
     26 H          -2.8603   -0.3662   -1.0641 H       1  UNL1        0.0466
     27 H          -4.3967   -0.7967    1.5884 H       1  UNL1        0.0328
     28 H          -4.2951   -1.9312    0.2312 H       1  UNL1        0.0328
     29 H          -5.5207    1.2531    1.4274 H       1  UNL1        0.0620
     30 H          -7.4318    2.4687    0.5171 H       1  UNL1        0.0618
     31 H          -8.4524    1.7737   -1.5505 H       1  UNL1        0.0618
     32 H          -7.5540   -0.2063   -2.7800 H       1  UNL1        0.0618
     33 H          -5.5958   -1.4324   -1.8244 H       1  UNL1        0.0620
     34 H           1.8011    0.3377    2.4619 H       1  UNL1        0.0654
     35 H           4.1268    1.0903    2.0913 H       1  UNL1        0.0625
     36 H           8.6073   -0.3177   -0.1935 H       1  UNL1        0.0517
     37 H           8.1641    0.4048   -1.8005 H       1  UNL1        0.0517
     38 H           7.6794    2.5136   -0.7881 H       1  UNL1        0.0398
     39 H           8.8733    1.8676    0.4713 H       1  UNL1        0.0398
     40 H           4.4953   -1.6166   -1.1573 H       1  UNL1        0.0625
     41 H           2.1214   -2.4010   -0.7974 H       1  UNL1        0.0654
@<TRIPOS>BOND
     1     1     2    2
     2     2     3   am
     3     3     4    1
     4     4     5    1
     5     5     6    1
     6     6     7   ar
     7     7     8   ar
     8     8     9   ar
     9     9    10   ar
    10    10    11   ar
    11     2    12    1
    12    12    13    1
    13    13    14   ar
    14    14    15   ar
    15    15    16   ar
    16    16    17    1
    17    17    18    2
    18    18    19    1
    19    19    20    1
    20    20    21    1
    21    16    22   ar
    22    22    23   ar
    23    11     6   ar
    24    23    13   ar
    25    21    17    1
    26     3    24    1
    27     4    25    1
    28     4    26    1
    29     5    27    1
    30     5    28    1
    31     7    29    1
    32     8    30    1
    33     9    31    1
    34    10    32    1
    35    11    33    1
    36    14    34    1
    37    15    35    1
    38    19    36    1
    39    19    37    1
    40    20    38    1
    41    20    39    1
    42    22    40    1
    43    23    41    1
