
     RDKit          3D

 41 43  0  0  0  0  0  0  0  0999 V2000
   -0.2097    0.1614   -0.2979 O   0  0  0  0  0  0  0  0  0  0  0  0
   -0.5084   -0.7552    0.4968 C   0  0  0  0  0  0  0  0  0  0  0  0
   -1.8874   -1.0299    0.7040 N   0  0  0  0  0  0  0  0  0  0  0  0
   -2.9424   -0.2975    0.0381 C   0  0  0  0  0  0  0  0  0  0  0  0
   -4.2659   -0.8500    0.4897 C   0  0  0  0  0  0  0  0  0  0  0  0
   -5.4161   -0.1768   -0.1268 C   0  0  0  0  0  0  0  0  0  0  0  0
   -5.9611    0.9229    0.4995 C   0  0  0  0  0  0  0  0  0  0  0  0
   -7.0249    1.5997   -0.0070 C   0  0  0  0  0  0  0  0  0  0  0  0
   -7.5982    1.2031   -1.1758 C   0  0  0  0  0  0  0  0  0  0  0  0
   -7.0949    0.1108   -1.8445 C   0  0  0  0  0  0  0  0  0  0  0  0
   -5.9993   -0.5761   -1.3109 C   0  0  0  0  0  0  0  0  0  0  0  0
    0.5205   -1.4434    1.1233 O   0  0  0  0  0  0  0  0  0  0  0  0
    1.8456   -1.0806    0.8377 C   0  0  0  0  0  0  0  0  0  0  0  0
    2.3881   -0.1071    1.6519 C   0  0  0  0  0  0  0  0  0  0  0  0
    3.6730    0.3152    1.4545 C   0  0  0  0  0  0  0  0  0  0  0  0
    4.4155   -0.2409    0.4373 C   0  0  0  0  0  0  0  0  0  0  0  0
    5.7717    0.1977    0.2210 C   0  0  0  0  0  0  0  0  0  0  0  0
    6.5846   -0.2009   -0.6553 N   0  0  0  0  0  0  0  0  0  0  0  0
    7.8752    0.3343   -0.7261 C   0  0  0  0  0  0  0  0  0  0  0  0
    7.9557    1.7077   -0.0942 C   0  0  0  0  0  0  0  0  0  0  0  0
    6.6241    1.4505    1.1631 S   0  0  0  0  0  0  0  0  0  0  0  0
    3.8585   -1.2223   -0.3782 C   0  0  0  0  0  0  0  0  0  0  0  0
    2.5618   -1.6455   -0.1757 C   0  0  0  0  0  0  0  0  0  0  0  0
   -2.1198   -1.7868    1.3605 H   0  0  0  0  0  0  0  0  0  0  0  0
   -2.8081    0.7684    0.3198 H   0  0  0  0  0  0  0  0  0  0  0  0
   -2.8603   -0.3662   -1.0641 H   0  0  0  0  0  0  0  0  0  0  0  0
   -4.3967   -0.7967    1.5884 H   0  0  0  0  0  0  0  0  0  0  0  0
   -4.2951   -1.9312    0.2312 H   0  0  0  0  0  0  0  0  0  0  0  0
   -5.5207    1.2531    1.4274 H   0  0  0  0  0  0  0  0  0  0  0  0
   -7.4318    2.4687    0.5171 H   0  0  0  0  0  0  0  0  0  0  0  0
   -8.4524    1.7737   -1.5505 H   0  0  0  0  0  0  0  0  0  0  0  0
   -7.5540   -0.2063   -2.7800 H   0  0  0  0  0  0  0  0  0  0  0  0
   -5.5958   -1.4324   -1.8244 H   0  0  0  0  0  0  0  0  0  0  0  0
    1.8011    0.3377    2.4619 H   0  0  0  0  0  0  0  0  0  0  0  0
    4.1268    1.0903    2.0913 H   0  0  0  0  0  0  0  0  0  0  0  0
    8.6073   -0.3177   -0.1935 H   0  0  0  0  0  0  0  0  0  0  0  0
    8.1641    0.4048   -1.8005 H   0  0  0  0  0  0  0  0  0  0  0  0
    7.6794    2.5136   -0.7881 H   0  0  0  0  0  0  0  0  0  0  0  0
    8.8733    1.8676    0.4713 H   0  0  0  0  0  0  0  0  0  0  0  0
    4.4953   -1.6166   -1.1573 H   0  0  0  0  0  0  0  0  0  0  0  0
    2.1214   -2.4010   -0.7974 H   0  0  0  0  0  0  0  0  0  0  0  0
  1  2  2  0
  2  3  1  0
  3  4  1  0
  4  5  1  0
  5  6  1  0
  6  7  2  0
  7  8  1  0
  8  9  2  0
  9 10  1  0
 10 11  2  0
  2 12  1  0
 12 13  1  0
 13 14  2  0
 14 15  1  0
 15 16  2  0
 16 17  1  0
 17 18  2  0
 18 19  1  0
 19 20  1  0
 20 21  1  0
 16 22  1  0
 22 23  2  0
 11  6  1  0
 23 13  1  0
 21 17  1  0
  3 24  1  0
  4 25  1  0
  4 26  1  0
  5 27  1  0
  5 28  1  0
  7 29  1  0
  8 30  1  0
  9 31  1  0
 10 32  1  0
 11 33  1  0
 14 34  1  0
 15 35  1  0
 19 36  1  0
 19 37  1  0
 20 38  1  0
 20 39  1  0
 22 40  1  0
 23 41  1  0
M  END
$$$$
