@<TRIPOS>MOLECULE
*****
 73 78 0 0 0
SMALL
GASTEIGER

@<TRIPOS>ATOM
      1 C          -6.4244    2.8871   -1.3899 C.3     1  UNL1        0.0032
      2 N          -6.6844    2.5492   -0.0260 N.am    1  UNL1       -0.3024
      3 C          -8.0472    2.8302    0.4572 C.3     1  UNL1        0.0032
      4 C          -5.7674    1.9715    0.8361 C.2     1  UNL1        0.2627
      5 O          -6.1429    1.7422    2.0365 O.2     1  UNL1       -0.2684
      6 C          -4.4107    1.6252    0.4157 C.ar    1  UNL1        0.1070
      7 C          -3.3922    2.5509    0.1639 C.ar    1  UNL1       -0.0209
      8 C          -2.2432    1.8853   -0.1414 C.ar    1  UNL1        0.0378
      9 C          -0.9503    2.3260   -0.4316 C.ar    1  UNL1        0.0419
     10 N           0.0060    1.4152   -0.6560 N.ar    1  UNL1       -0.2219
     11 C          -0.2512    0.0967   -0.6095 C.ar    1  UNL1        0.2224
     12 N           0.8194   -0.8649   -0.7579 N.pl3   1  UNL1       -0.2685
     13 C           2.1221   -0.5022   -0.3405 C.ar    1  UNL1        0.1250
     14 C           3.1728   -1.3807   -0.4024 C.ar    1  UNL1       -0.0208
     15 C           4.4372   -1.0243    0.0885 C.ar    1  UNL1       -0.0449
     16 C           4.6499    0.2112    0.6405 C.ar    1  UNL1        0.0551
     17 C           5.8808    0.6736    1.2375 C.2     1  UNL1        0.2484
     18 O           5.7511    1.1219    2.4377 O.2     1  UNL1       -0.2699
     19 N           7.1592    0.6808    0.6558 N.am    1  UNL1       -0.2916
     20 C           8.3592    1.1589    1.3293 C.3     1  UNL1        0.0206
     21 C           9.4814    0.8140    0.3665 C.3     1  UNL1        0.0026
     22 C           9.5774   -0.6666    0.2751 C.3     1  UNL1       -0.0446
     23 C           8.3198   -1.0674   -0.4685 C.3     1  UNL1       -0.0315
     24 C           7.5396    0.2342   -0.6320 C.3     1  UNL1        0.0525
     25 C           8.7385    1.1519   -0.9420 C.3     1  UNL1        0.0780
     26 O           9.4571    0.6969   -2.0230 O.3     1  UNL1       -0.3896
     27 C           3.5459    1.0734    0.6765 C.ar    1  UNL1        0.0418
     28 N           2.3549    0.7176    0.2068 N.ar    1  UNL1       -0.2394
     29 N          -1.4948   -0.3035   -0.3327 N.ar    1  UNL1       -0.1962
     30 C          -2.5201    0.5399   -0.0915 C.ar    1  UNL1        0.1466
     31 N          -3.8340    0.4146    0.2466 N.ar    1  UNL1       -0.3180
     32 C          -4.4464   -0.8782    0.4163 C.3     1  UNL1        0.0366
     33 C          -3.8794   -1.9827   -0.4242 C.3     1  UNL1       -0.0320
     34 C          -3.5921   -3.1475    0.5478 C.3     1  UNL1       -0.0512
     35 C          -4.8756   -3.4208    1.3117 C.3     1  UNL1       -0.0530
     36 C          -5.9888   -3.4652    0.3266 C.3     1  UNL1       -0.0530
     37 C          -6.5332   -2.1844   -0.1621 C.3     1  UNL1       -0.0512
     38 C          -5.9400   -0.9132    0.4043 C.3     1  UNL1       -0.0320
     39 H          -7.2704    2.5393   -2.0440 H       1  UNL1        0.0428
     40 H          -5.4806    2.4286   -1.7099 H       1  UNL1        0.0428
     41 H          -6.3838    3.9986   -1.4695 H       1  UNL1        0.0428
     42 H          -8.5087    3.6905   -0.0646 H       1  UNL1        0.0428
     43 H          -8.0389    3.0552    1.5460 H       1  UNL1        0.0428
     44 H          -8.7197    1.9559    0.2275 H       1  UNL1        0.0428
     45 H          -3.5463    3.6300    0.2162 H       1  UNL1        0.0647
     46 H          -0.8095    3.3909   -0.4532 H       1  UNL1        0.0838
     47 H           0.6158   -1.7745   -1.1605 H       1  UNL1        0.1564
     48 H           3.0616   -2.3609   -0.8240 H       1  UNL1        0.0652
     49 H           5.2836   -1.7121    0.0478 H       1  UNL1        0.0627
     50 H           8.4967    0.4860    2.2254 H       1  UNL1        0.0468
     51 H           8.3266    2.2011    1.6280 H       1  UNL1        0.0468
     52 H          10.3947    1.3579    0.5055 H       1  UNL1        0.0341
     53 H          10.5117   -0.9562   -0.2573 H       1  UNL1        0.0270
     54 H           9.6191   -1.1493    1.2788 H       1  UNL1        0.0270
     55 H           8.6301   -1.4114   -1.4613 H       1  UNL1        0.0284
     56 H           7.7855   -1.8064    0.1397 H       1  UNL1        0.0284
     57 H           6.8013    0.2334   -1.4073 H       1  UNL1        0.0526
     58 H           8.4528    2.2081   -0.9895 H       1  UNL1        0.0615
     59 H          10.3641    1.1015   -1.9752 H       1  UNL1        0.2099
     60 H           3.6539    2.0653    1.0953 H       1  UNL1        0.0838
     61 H          -4.1662   -1.1337    1.5044 H       1  UNL1        0.0528
     62 H          -2.9879   -1.7909   -0.9695 H       1  UNL1        0.0285
     63 H          -4.6321   -2.3547   -1.1769 H       1  UNL1        0.0285
     64 H          -3.2923   -4.0221   -0.0086 H       1  UNL1        0.0266
     65 H          -2.8766   -2.7460    1.2839 H       1  UNL1        0.0266
     66 H          -4.7640   -4.4789    1.6998 H       1  UNL1        0.0265
     67 H          -5.0299   -2.7958    2.1846 H       1  UNL1        0.0265
     68 H          -5.6140   -4.0493   -0.5545 H       1  UNL1        0.0265
     69 H          -6.7921   -4.1454    0.7566 H       1  UNL1        0.0265
     70 H          -7.6304   -2.1493    0.1491 H       1  UNL1        0.0266
     71 H          -6.6364   -2.1317   -1.2907 H       1  UNL1        0.0266
     72 H          -6.3862   -0.8342    1.4336 H       1  UNL1        0.0285
     73 H          -6.3854   -0.1058   -0.2065 H       1  UNL1        0.0285
@<TRIPOS>BOND
     1     1     2    1
     2     2     3    1
     3     2     4   am
     4     4     5    2
     5     4     6    1
     6     6     7   ar
     7     7     8   ar
     8     8     9   ar
     9     9    10   ar
    10    10    11   ar
    11    11    12    1
    12    12    13    1
    13    13    14   ar
    14    14    15   ar
    15    15    16   ar
    16    16    17    1
    17    17    18    2
    18    17    19   am
    19    19    20    1
    20    20    21    1
    21    21    22    1
    22    22    23    1
    23    23    24    1
    24    24    25    1
    25    25    26    1
    26    16    27   ar
    27    27    28   ar
    28    11    29   ar
    29    29    30   ar
    30    30    31   ar
    31    31    32    1
    32    32    33    1
    33    33    34    1
    34    34    35    1
    35    35    36    1
    36    36    37    1
    37    37    38    1
    38    31     6   ar
    39    38    32    1
    40    30     8   ar
    41    28    13   ar
    42    24    19    1
    43    25    21    1
    44     1    39    1
    45     1    40    1
    46     1    41    1
    47     3    42    1
    48     3    43    1
    49     3    44    1
    50     7    45    1
    51     9    46    1
    52    12    47    1
    53    14    48    1
    54    15    49    1
    55    20    50    1
    56    20    51    1
    57    21    52    1
    58    22    53    1
    59    22    54    1
    60    23    55    1
    61    23    56    1
    62    24    57    1
    63    25    58    1
    64    26    59    1
    65    27    60    1
    66    32    61    1
    67    33    62    1
    68    33    63    1
    69    34    64    1
    70    34    65    1
    71    35    66    1
    72    35    67    1
    73    36    68    1
    74    36    69    1
    75    37    70    1
    76    37    71    1
    77    38    72    1
    78    38    73    1
