@<TRIPOS>MOLECULE
*****
 29 30 0 0 0
SMALL
GASTEIGER

@<TRIPOS>ATOM
      1 O          -3.8256    2.2211    1.8579 O.3     1  UNL1       -0.4770
      2 C          -2.6727    1.6324    1.3785 C.2     1  UNL1        0.3402
      3 O          -1.7942    2.1972    2.0642 O.2     1  UNL1       -0.2450
      4 C          -2.6924    0.6156    0.3220 C.ar    1  UNL1        0.0987
      5 C          -1.5699    0.0105   -0.1871 C.ar    1  UNL1        0.1369
      6 N          -0.2948    0.3339    0.2739 N.pl3   1  UNL1       -0.2988
      7 C           0.9810   -0.1589   -0.1016 C.ar    1  UNL1        0.0329
      8 C           1.1625   -1.1232   -1.0670 C.ar    1  UNL1       -0.0405
      9 C           2.3784   -1.6268   -1.4596 C.ar    1  UNL1       -0.0595
     10 C           3.5203   -1.1453   -0.8552 C.ar    1  UNL1       -0.0500
     11 C           3.4036   -0.1910    0.1063 C.ar    1  UNL1        0.0566
     12 C           2.1571    0.2699    0.4525 C.ar    1  UNL1       -0.0289
     13 C           4.6070    0.3371    0.7644 C.3     1  UNL1        0.4175
     14 F           5.6552   -0.5490    0.5850 F       1  UNL1       -0.1659
     15 F           4.9620    1.6067    0.3331 F       1  UNL1       -0.1659
     16 F           4.3809    0.4304    2.1415 F       1  UNL1       -0.1659
     17 N          -1.7777   -0.8914   -1.1364 N.ar    1  UNL1       -0.2394
     18 C          -2.9771   -1.2372   -1.6136 C.ar    1  UNL1        0.0297
     19 C          -4.1126   -0.6592   -1.1338 C.ar    1  UNL1       -0.0427
     20 C          -3.9327    0.2648   -0.1646 C.ar    1  UNL1       -0.0430
     21 H          -3.9293    3.2071    2.0564 H       1  UNL1        0.2954
     22 H          -0.2032    1.0538    1.0207 H       1  UNL1        0.1536
     23 H           0.3595   -1.5800   -1.6124 H       1  UNL1        0.0636
     24 H           2.5331   -2.3827   -2.2150 H       1  UNL1        0.0618
     25 H           4.5095   -1.4953   -1.1137 H       1  UNL1        0.0623
     26 H           2.1287    1.0369    1.2317 H       1  UNL1        0.0642
     27 H          -3.0365   -2.0000   -2.4048 H       1  UNL1        0.0830
     28 H          -5.0848   -0.9227   -1.5035 H       1  UNL1        0.0633
     29 H          -4.8353    0.7451    0.2383 H       1  UNL1        0.0627
@<TRIPOS>BOND
     1     1     2    1
     2     2     3    2
     3     2     4    1
     4     4     5   ar
     5     5     6    1
     6     6     7    1
     7     7     8   ar
     8     8     9   ar
     9     9    10   ar
    10    10    11   ar
    11    11    12   ar
    12    11    13    1
    13    13    14    1
    14    13    15    1
    15    13    16    1
    16     5    17   ar
    17    17    18   ar
    18    18    19   ar
    19    19    20   ar
    20    20     4   ar
    21    12     7   ar
    22     1    21    1
    23     6    22    1
    24     8    23    1
    25     9    24    1
    26    10    25    1
    27    12    26    1
    28    18    27    1
    29    19    28    1
    30    20    29    1
