@<TRIPOS>MOLECULE
*****
 49 52 0 0 0
SMALL
GASTEIGER

@<TRIPOS>ATOM
      1 C          -3.8242    0.8888    0.7005 C.3     1  UNL1        0.1455
      2 C          -2.5686    0.5771    1.4606 C.3     1  UNL1        0.0667
      3 N          -1.4457    0.2497    0.6093 N.ar    1  UNL1       -0.3352
      4 C          -0.1941    0.4825    1.0331 C.ar    1  UNL1        0.0214
      5 C           0.9336    0.1972    0.2849 C.ar    1  UNL1        0.1030
      6 C           2.2130    0.5049    0.8890 C.2     1  UNL1        0.2496
      7 O           2.2940    1.0160    2.0488 O.2     1  UNL1       -0.2700
      8 N           3.4933    0.3065    0.3401 N.am    1  UNL1       -0.3070
      9 C           4.6310    0.7061    1.1707 C.3     1  UNL1        0.0399
     10 C           5.9106    0.4417    0.4856 C.ar    1  UNL1        0.0050
     11 C           6.6362   -0.6655    0.8945 C.ar    1  UNL1       -0.0516
     12 C           7.8341   -0.9917    0.3127 C.ar    1  UNL1       -0.0260
     13 C           8.2762   -0.1609   -0.6982 C.ar    1  UNL1        0.1261
     14 F           9.4524   -0.4655   -1.2825 F       1  UNL1       -0.2054
     15 C           7.5849    0.9532   -1.1372 C.ar    1  UNL1        0.0091
     16 C           6.3927    1.2267   -0.5153 C.ar    1  UNL1        0.1308
     17 F           5.6736    2.3136   -0.9114 F       1  UNL1       -0.2051
     18 C           0.6603   -0.3523   -0.9469 C.ar    1  UNL1        0.2357
     19 O           1.6520   -0.6280   -1.6630 O.2     1  UNL1       -0.2831
     20 C          -0.6136   -0.6003   -1.4038 C.ar    1  UNL1        0.1936
     21 O          -0.8028   -1.1574   -2.6597 O.3     1  UNL1       -0.5017
     22 C          -1.6761   -0.2831   -0.5876 C.ar    1  UNL1        0.1505
     23 C          -3.0341   -0.5598   -1.1030 C.2     1  UNL1        0.2690
     24 O          -3.3078   -1.0574   -2.2138 O.2     1  UNL1       -0.2682
     25 N          -4.0785   -0.2134   -0.2242 N.am    1  UNL1       -0.2660
     26 C          -5.3450   -0.8629   -0.1834 C.3     1  UNL1        0.0281
     27 C          -5.5593   -1.9253   -1.2009 C.3     1  UNL1       -0.0463
     28 C          -6.4269    0.2004   -0.1784 C.3     1  UNL1       -0.0108
     29 C          -6.0966    1.1928    0.9205 C.3     1  UNL1        0.0517
     30 O          -4.8980    0.9478    1.5518 O.3     1  UNL1       -0.3568
     31 H          -3.6504    1.8303    0.1338 H       1  UNL1        0.0828
     32 H          -2.8150   -0.2763    2.1345 H       1  UNL1        0.0534
     33 H          -2.2872    1.4395    2.0782 H       1  UNL1        0.0534
     34 H          -0.0904    0.9237    2.0314 H       1  UNL1        0.0818
     35 H           3.5780   -0.0992   -0.5935 H       1  UNL1        0.1493
     36 H           4.5875    1.8053    1.3684 H       1  UNL1        0.0513
     37 H           4.5367    0.1173    2.1051 H       1  UNL1        0.0513
     38 H           6.2426   -1.2946    1.7011 H       1  UNL1        0.0623
     39 H           8.3840   -1.8601    0.6463 H       1  UNL1        0.0646
     40 H           7.9761    1.5616   -1.9250 H       1  UNL1        0.0675
     41 H          -1.0226   -2.1478   -2.7039 H       1  UNL1        0.2924
     42 H          -5.4040   -1.3713    0.8266 H       1  UNL1        0.0499
     43 H          -4.6938   -2.6139   -1.1670 H       1  UNL1        0.0248
     44 H          -5.8220   -1.5492   -2.1907 H       1  UNL1        0.0248
     45 H          -6.4177   -2.5567   -0.8228 H       1  UNL1        0.0248
     46 H          -7.4359   -0.2720   -0.0198 H       1  UNL1        0.0305
     47 H          -6.3661    0.7429   -1.1422 H       1  UNL1        0.0305
     48 H          -6.8923    1.0913    1.6917 H       1  UNL1        0.0561
     49 H          -6.1741    2.2480    0.5347 H       1  UNL1        0.0561
@<TRIPOS>BOND
     1     1     2    1
     2     2     3    1
     3     3     4   ar
     4     4     5   ar
     5     5     6    1
     6     6     7    2
     7     6     8   am
     8     8     9    1
     9     9    10    1
    10    10    11   ar
    11    11    12   ar
    12    12    13   ar
    13    13    14    1
    14    13    15   ar
    15    15    16   ar
    16    16    17    1
    17     5    18   ar
    18    18    19    2
    19    18    20   ar
    20    20    21    1
    21    20    22   ar
    22    22    23    1
    23    23    24    2
    24    23    25   am
    25    25    26    1
    26    26    27    1
    27    26    28    1
    28    28    29    1
    29    29    30    1
    30    25     1    1
    31    30     1    1
    32    22     3   ar
    33    16    10   ar
    34     1    31    1
    35     2    32    1
    36     2    33    1
    37     4    34    1
    38     8    35    1
    39     9    36    1
    40     9    37    1
    41    11    38    1
    42    12    39    1
    43    15    40    1
    44    21    41    1
    45    26    42    1
    46    27    43    1
    47    27    44    1
    48    27    45    1
    49    28    46    1
    50    28    47    1
    51    29    48    1
    52    29    49    1
