@<TRIPOS>MOLECULE
*****
 49 50 0 0 0
SMALL
GASTEIGER

@<TRIPOS>ATOM
      1 C          -4.8143   -2.0268    0.8739 C.3     1  UNL1       -0.0652
      2 C          -4.2957   -1.6569   -0.4876 C.3     1  UNL1       -0.0548
      3 C          -3.4555   -0.3977   -0.4694 C.3     1  UNL1       -0.0404
      4 C          -2.2565   -0.5755    0.4279 C.3     1  UNL1       -0.0004
      5 N          -1.4222    0.5960    0.4795 N.3     1  UNL1       -0.2915
      6 C          -1.9709    1.7095    1.1163 C.3     1  UNL1       -0.0004
      7 C          -2.0039    3.0031    0.3827 C.3     1  UNL1       -0.0401
      8 C          -0.5732    3.2054   -0.1301 C.3     1  UNL1       -0.0500
      9 C          -0.3955    2.1332   -1.1743 C.3     1  UNL1       -0.0288
     10 C          -0.5839    0.7499   -0.6539 C.3     1  UNL1        0.0875
     11 C           0.7431    0.1720   -0.3093 C.2     1  UNL1        0.2345
     12 O           0.6392   -0.2392    0.8862 O.2     1  UNL1       -0.2737
     13 N           1.9268    0.0569   -1.0749 N.am    1  UNL1       -0.2837
     14 C           2.9937   -0.5673   -0.3715 C.ar    1  UNL1        0.0393
     15 C           3.8822    0.1929    0.3700 C.ar    1  UNL1       -0.0290
     16 C           3.7019    1.6875    0.4230 C.3     1  UNL1       -0.0379
     17 C           4.9346   -0.4151    1.0642 C.ar    1  UNL1       -0.0571
     18 C           5.0557   -1.7847    0.9853 C.ar    1  UNL1       -0.0611
     19 C           4.1735   -2.5582    0.2465 C.ar    1  UNL1       -0.0571
     20 C           3.1457   -1.9364   -0.4274 C.ar    1  UNL1       -0.0290
     21 C           2.2233   -2.8149   -1.2059 C.3     1  UNL1       -0.0379
     22 H          -4.1481   -2.6984    1.4392 H       1  UNL1        0.0230
     23 H          -5.0699   -1.1231    1.4896 H       1  UNL1        0.0230
     24 H          -5.7742   -2.5792    0.7352 H       1  UNL1        0.0230
     25 H          -5.0821   -1.5940   -1.2507 H       1  UNL1        0.0263
     26 H          -3.6126   -2.4873   -0.8111 H       1  UNL1        0.0263
     27 H          -3.1957   -0.1552   -1.4986 H       1  UNL1        0.0277
     28 H          -4.0947    0.3910   -0.0012 H       1  UNL1        0.0277
     29 H          -1.6422   -1.4149    0.0425 H       1  UNL1        0.0427
     30 H          -2.5397   -0.8214    1.4601 H       1  UNL1        0.0427
     31 H          -3.0222    1.5337    1.4889 H       1  UNL1        0.0427
     32 H          -1.4000    1.8955    2.0661 H       1  UNL1        0.0427
     33 H          -2.2902    3.8029    1.0911 H       1  UNL1        0.0278
     34 H          -2.6360    3.0078   -0.5304 H       1  UNL1        0.0278
     35 H           0.1249    3.1098    0.7026 H       1  UNL1        0.0266
     36 H          -0.5300    4.1896   -0.5942 H       1  UNL1        0.0266
     37 H          -1.0914    2.3685   -2.0052 H       1  UNL1        0.0285
     38 H           0.6262    2.2610   -1.5842 H       1  UNL1        0.0285
     39 H          -0.9977    0.1284   -1.4751 H       1  UNL1        0.0559
     40 H           1.7722    0.4692   -2.0443 H       1  UNL1        0.1549
     41 H           4.4580    2.1012    1.1116 H       1  UNL1        0.0278
     42 H           2.7136    1.9995    0.7449 H       1  UNL1        0.0278
     43 H           3.8359    2.0528   -0.6348 H       1  UNL1        0.0278
     44 H           5.6366    0.1700    1.6490 H       1  UNL1        0.0621
     45 H           5.8807   -2.2473    1.5341 H       1  UNL1        0.0618
     46 H           4.3179   -3.6484    0.2210 H       1  UNL1        0.0621
     47 H           1.7290   -2.2818   -2.0439 H       1  UNL1        0.0278
     48 H           2.8715   -3.5940   -1.6917 H       1  UNL1        0.0278
     49 H           1.5119   -3.3693   -0.5617 H       1  UNL1        0.0278
@<TRIPOS>BOND
     1     1     2    1
     2     2     3    1
     3     3     4    1
     4     4     5    1
     5     5     6    1
     6     6     7    1
     7     7     8    1
     8     8     9    1
     9     9    10    1
    10    10    11    1
    11    11    12    2
    12    11    13   am
    13    13    14    1
    14    14    15   ar
    15    15    16    1
    16    15    17   ar
    17    17    18   ar
    18    18    19   ar
    19    19    20   ar
    20    20    21    1
    21    10     5    1
    22    20    14   ar
    23     1    22    1
    24     1    23    1
    25     1    24    1
    26     2    25    1
    27     2    26    1
    28     3    27    1
    29     3    28    1
    30     4    29    1
    31     4    30    1
    32     6    31    1
    33     6    32    1
    34     7    33    1
    35     7    34    1
    36     8    35    1
    37     8    36    1
    38     9    37    1
    39     9    38    1
    40    10    39    1
    41    13    40    1
    42    16    41    1
    43    16    42    1
    44    16    43    1
    45    17    44    1
    46    18    45    1
    47    19    46    1
    48    21    47    1
    49    21    48    1
    50    21    49    1
