
     RDKit          3D

123128  0  0  0  0  0  0  0  0999 V2000
   -4.7620   -5.2434    2.4454 C   0  0  0  0  0  0  0  0  0  0  0  0
   -4.6451   -4.2301    1.5283 O   0  0  0  0  0  0  0  0  0  0  0  0
   -3.3273   -3.7821    1.5320 C   0  0  1  0  0  0  0  0  0  0  0  0
   -2.7928   -3.8558    0.1471 C   0  0  0  0  0  0  0  0  0  0  0  0
   -1.5442   -3.4656   -0.0992 C   0  0  0  0  0  0  0  0  0  0  0  0
   -0.8416   -3.4367   -1.2628 O   0  0  0  0  0  0  0  0  0  0  0  0
    0.2095   -4.2984   -1.5988 C   0  0  1  0  0  0  0  0  0  0  0  0
    0.1965   -5.6025   -0.9075 C   0  0  0  0  0  0  0  0  0  0  0  0
    0.1978   -4.4912   -3.0523 O   0  0  0  0  0  0  0  0  0  0  0  0
    0.2910   -3.1450   -3.4972 C   0  0  0  0  0  0  0  0  0  0  0  0
    1.1308   -2.6300   -2.5041 C   0  0  0  0  0  0  0  0  0  0  0  0
    1.5394   -3.5737   -1.5045 C   0  0  0  0  0  0  0  0  0  0  0  0
    2.5171   -3.8241   -0.7828 O   0  0  0  0  0  0  0  0  0  0  0  0
    1.4677   -1.3001   -2.5849 C   0  0  0  0  0  0  0  0  0  0  0  0
    1.0084   -0.4816   -3.5952 C   0  0  0  0  0  0  0  0  0  0  0  0
    0.1676   -0.9931   -4.5920 C   0  0  0  0  0  0  0  0  0  0  0  0
   -0.3197   -0.2318   -5.6187 O   0  0  0  0  0  0  0  0  0  0  0  0
   -0.1746   -2.3257   -4.5201 C   0  0  0  0  0  0  0  0  0  0  0  0
   -1.0595   -2.9946   -5.5173 C   0  0  0  0  0  0  0  0  0  0  0  0
    1.3847    0.9299   -3.6647 C   0  0  0  0  0  0  0  0  0  0  0  0
    0.9146    1.6186   -4.6276 O   0  0  0  0  0  0  0  0  0  0  0  0
    2.2872    1.4721   -2.6140 C   0  0  0  0  0  0  0  0  0  0  0  0
    2.5407    2.8475   -2.8025 N   0  0  0  0  0  0  0  0  0  0  0  0
    1.9454    4.0726   -2.5228 C   0  0  0  0  0  0  0  0  0  0  0  0
    1.1726    3.2905   -2.0083 O   0  0  0  0  0  0  0  0  0  0  0  0
    1.3428    5.3364   -2.2417 C   0  0  0  0  0  0  0  0  0  0  0  0
    2.2553    6.1302   -3.0533 C   0  0  0  0  0  0  0  0  0  0  0  0
    0.3222    5.7448   -1.5222 C   0  0  0  0  0  0  0  0  0  0  0  0
   -0.4522    4.7885   -0.7726 C   0  0  0  0  0  0  0  0  0  0  0  0
   -1.0073    3.7731   -0.1762 C   0  0  0  0  0  0  0  0  0  0  0  0
   -2.1775    3.5955    0.7223 C   0  0  2  0  0  0  0  0  0  0  0  0
   -1.6473    3.2054    2.0870 C   0  0  0  0  0  0  0  0  0  0  0  0
   -3.0963    2.5713    0.1202 C   0  0  2  0  0  0  0  0  0  0  0  0
   -3.4190    3.0683   -1.1648 O   0  0  0  0  0  0  0  0  0  0  0  0
   -4.3710    2.3661    0.9145 C   0  0  1  0  0  0  0  0  0  0  0  0
   -5.3748    3.4301    0.8409 C   0  0  0  0  0  0  0  0  0  0  0  0
   -4.8623    0.9614    0.6920 C   0  0  1  0  0  0  0  0  0  0  0  0
   -5.0234    0.6112   -0.6144 O   0  0  0  0  0  0  0  0  0  0  0  0
   -4.1017   -0.0186    1.5580 C   0  0  1  0  0  0  0  0  0  0  0  0
   -4.3970    0.2567    3.0068 C   0  0  0  0  0  0  0  0  0  0  0  0
   -4.1842   -1.4399    1.1367 C   0  0  2  0  0  0  0  0  0  0  0  0
   -5.5380   -1.9163    1.1127 O   0  0  0  0  0  0  0  0  0  0  0  0
   -6.0394   -2.3827   -0.1137 C   0  0  0  0  0  0  0  0  0  0  0  0
   -7.4126   -2.9101   -0.3269 C   0  0  0  0  0  0  0  0  0  0  0  0
   -5.3784   -2.4092   -1.1880 O   0  0  0  0  0  0  0  0  0  0  0  0
   -3.3454   -2.3492    2.0327 C   0  0  2  0  0  0  0  0  0  0  0  0
   -2.0201   -1.7838    2.3736 C   0  0  0  0  0  0  0  0  0  0  0  0
    2.6934    0.6386   -1.6882 C   0  0  0  0  0  0  0  0  0  0  0  0
    3.5934    1.1377   -0.7189 N   0  0  0  0  0  0  0  0  0  0  0  0
    3.7453   -0.0656    0.1027 C   0  0  0  0  0  0  0  0  0  0  0  0
    3.2284    0.1483    1.4841 C   0  0  0  0  0  0  0  0  0  0  0  0
    4.1724    0.7788    2.4503 C   0  0  0  0  0  0  0  0  0  0  0  0
    5.5193    0.2382    2.4190 N   0  0  0  0  0  0  0  0  0  0  0  0
    5.6338   -0.8758    1.5177 C   0  0  0  0  0  0  0  0  0  0  0  0
    5.1973   -0.5045    0.1129 C   0  0  0  0  0  0  0  0  0  0  0  0
    6.4645    1.2879    2.2242 C   0  0  0  0  0  0  0  0  0  0  0  0
    7.8997    0.8583    2.1413 C   0  0  0  0  0  0  0  0  0  0  0  0
    8.3793    0.1550    3.3688 C   0  0  0  0  0  0  0  0  0  0  0  0
    8.7801    2.1031    1.9766 C   0  0  0  0  0  0  0  0  0  0  0  0
    2.9918   -1.1166   -0.5068 N   0  0  0  0  0  0  0  0  0  0  0  0
    2.3548   -0.7628   -1.5617 C   0  0  0  0  0  0  0  0  0  0  0  0
   -4.0828   -6.1062    2.2008 H   0  0  0  0  0  0  0  0  0  0  0  0
   -4.5284   -4.9440    3.4906 H   0  0  0  0  0  0  0  0  0  0  0  0
   -5.8034   -5.6555    2.4951 H   0  0  0  0  0  0  0  0  0  0  0  0
   -2.7762   -4.3811    2.2701 H   0  0  0  0  0  0  0  0  0  0  0  0
   -3.3184   -4.2070   -0.7346 H   0  0  0  0  0  0  0  0  0  0  0  0
   -0.7369   -3.0715    0.5055 H   0  0  0  0  0  0  0  0  0  0  0  0
    1.2320   -5.9516   -0.7612 H   0  0  0  0  0  0  0  0  0  0  0  0
   -0.3537   -5.5286    0.0499 H   0  0  0  0  0  0  0  0  0  0  0  0
   -0.3398   -6.3260   -1.5638 H   0  0  0  0  0  0  0  0  0  0  0  0
    0.2909    0.0772   -6.3919 H   0  0  0  0  0  0  0  0  0  0  0  0
   -0.8959   -2.4544   -6.4879 H   0  0  0  0  0  0  0  0  0  0  0  0
   -0.7105   -4.0335   -5.6897 H   0  0  0  0  0  0  0  0  0  0  0  0
   -2.1194   -2.9407   -5.2477 H   0  0  0  0  0  0  0  0  0  0  0  0
    3.4379    2.6275   -3.2190 H   0  0  0  0  0  0  0  0  0  0  0  0
    3.3315    6.0859   -2.7883 H   0  0  0  0  0  0  0  0  0  0  0  0
    1.8927    7.2024   -2.9816 H   0  0  0  0  0  0  0  0  0  0  0  0
    2.0990    5.9015   -4.1387 H   0  0  0  0  0  0  0  0  0  0  0  0
    0.2755    6.8025   -1.6553 H   0  0  0  0  0  0  0  0  0  0  0  0
   -1.1370    5.5744   -0.4040 H   0  0  0  0  0  0  0  0  0  0  0  0
   -0.6537    2.7239   -0.2265 H   0  0  0  0  0  0  0  0  0  0  0  0
   -2.7724    4.5288    0.8178 H   0  0  0  0  0  0  0  0  0  0  0  0
   -1.8633    4.0134    2.8230 H   0  0  0  0  0  0  0  0  0  0  0  0
   -0.5296    3.1091    2.0831 H   0  0  0  0  0  0  0  0  0  0  0  0
   -2.0185    2.2359    2.4513 H   0  0  0  0  0  0  0  0  0  0  0  0
   -2.6032    1.6145   -0.0066 H   0  0  0  0  0  0  0  0  0  0  0  0
   -3.1773    3.9999   -1.2921 H   0  0  0  0  0  0  0  0  0  0  0  0
   -4.0108    2.3572    2.0131 H   0  0  0  0  0  0  0  0  0  0  0  0
   -6.3896    2.9684    0.9767 H   0  0  0  0  0  0  0  0  0  0  0  0
   -5.3251    4.1991    1.6642 H   0  0  0  0  0  0  0  0  0  0  0  0
   -5.4032    3.9309   -0.1494 H   0  0  0  0  0  0  0  0  0  0  0  0
   -5.9315    0.9783    1.1160 H   0  0  0  0  0  0  0  0  0  0  0  0
   -5.9093    0.7847   -1.0134 H   0  0  0  0  0  0  0  0  0  0  0  0
   -2.9912    0.2659    1.4497 H   0  0  0  0  0  0  0  0  0  0  0  0
   -3.5765    0.7744    3.5267 H   0  0  0  0  0  0  0  0  0  0  0  0
   -4.7178   -0.6626    3.5195 H   0  0  0  0  0  0  0  0  0  0  0  0
   -5.2931    0.9400    3.0440 H   0  0  0  0  0  0  0  0  0  0  0  0
   -3.7902   -1.5409    0.1155 H   0  0  0  0  0  0  0  0  0  0  0  0
   -8.0074   -2.6151    0.5674 H   0  0  0  0  0  0  0  0  0  0  0  0
   -7.8634   -2.4303   -1.1960 H   0  0  0  0  0  0  0  0  0  0  0  0
   -7.4421   -4.0136   -0.3819 H   0  0  0  0  0  0  0  0  0  0  0  0
   -3.9264   -2.4245    3.0052 H   0  0  0  0  0  0  0  0  0  0  0  0
   -2.1421   -1.1126    3.2770 H   0  0  0  0  0  0  0  0  0  0  0  0
   -1.3771   -2.6084    2.7497 H   0  0  0  0  0  0  0  0  0  0  0  0
   -1.5491   -1.1385    1.6221 H   0  0  0  0  0  0  0  0  0  0  0  0
    4.1044    2.0051   -0.4685 H   0  0  0  0  0  0  0  0  0  0  0  0
    2.8555   -0.8418    1.8601 H   0  0  0  0  0  0  0  0  0  0  0  0
    2.3410    0.8237    1.4056 H   0  0  0  0  0  0  0  0  0  0  0  0
    3.7898    0.5177    3.4818 H   0  0  0  0  0  0  0  0  0  0  0  0
    4.1402    1.8774    2.3812 H   0  0  0  0  0  0  0  0  0  0  0  0
    6.6898   -1.1873    1.4701 H   0  0  0  0  0  0  0  0  0  0  0  0
    5.0605   -1.7193    1.9316 H   0  0  0  0  0  0  0  0  0  0  0  0
    5.8644    0.3065   -0.2327 H   0  0  0  0  0  0  0  0  0  0  0  0
    5.3762   -1.3803   -0.5287 H   0  0  0  0  0  0  0  0  0  0  0  0
    6.1668    1.8614    1.3317 H   0  0  0  0  0  0  0  0  0  0  0  0
    6.4011    1.9542    3.1338 H   0  0  0  0  0  0  0  0  0  0  0  0
    8.0620    0.2659    1.2414 H   0  0  0  0  0  0  0  0  0  0  0  0
    7.5096   -0.1159    4.0363 H   0  0  0  0  0  0  0  0  0  0  0  0
    8.8278   -0.8484    3.1065 H   0  0  0  0  0  0  0  0  0  0  0  0
    9.0858    0.7518    3.9715 H   0  0  0  0  0  0  0  0  0  0  0  0
    8.5160    2.8383    2.7558 H   0  0  0  0  0  0  0  0  0  0  0  0
    8.6514    2.5325    0.9783 H   0  0  0  0  0  0  0  0  0  0  0  0
    9.8345    1.8336    2.1188 H   0  0  0  0  0  0  0  0  0  0  0  0
  1  2  1  0
  2  3  1  0
  3  4  1  0
  4  5  2  0
  5  6  1  0
  6  7  1  0
  7  8  1  1
  7  9  1  0
  9 10  1  0
 10 11  2  0
 11 12  1  0
 12 13  2  0
 11 14  1  0
 14 15  2  0
 15 16  1  0
 16 17  1  0
 16 18  2  0
 18 19  1  0
 15 20  1  0
 20 21  2  0
 20 22  1  0
 22 23  1  0
 23 24  1  0
 24 25  2  0
 24 26  1  0
 26 27  1  0
 26 28  2  0
 28 29  1  0
 29 30  2  0
 30 31  1  0
 31 32  1  0
 31 33  1  0
 33 34  1  0
 33 35  1  0
 35 36  1  0
 35 37  1  0
 37 38  1  0
 37 39  1  0
 39 40  1  0
 39 41  1  0
 41 42  1  0
 42 43  1  0
 43 44  1  0
 43 45  2  0
 41 46  1  0
 46 47  1  0
 22 48  2  0
 48 49  1  0
 49 50  1  0
 50 51  1  0
 51 52  1  0
 52 53  1  0
 53 54  1  0
 54 55  1  0
 53 56  1  0
 56 57  1  0
 57 58  1  0
 57 59  1  0
 50 60  1  0
 60 61  2  0
 46  3  1  0
 61 48  1  0
 12  7  1  0
 61 14  1  0
 18 10  1  0
 55 50  1  0
  1 62  1  0
  1 63  1  0
  1 64  1  0
  3 65  1  1
  4 66  1  0
  5 67  1  0
  8 68  1  0
  8 69  1  0
  8 70  1  0
 17 71  1  0
 19 72  1  0
 19 73  1  0
 19 74  1  0
 23 75  1  0
 27 76  1  0
 27 77  1  0
 27 78  1  0
 28 79  1  0
 29 80  1  0
 30 81  1  0
 31 82  1  1
 32 83  1  0
 32 84  1  0
 32 85  1  0
 33 86  1  6
 34 87  1  0
 35 88  1  1
 36 89  1  0
 36 90  1  0
 36 91  1  0
 37 92  1  1
 38 93  1  0
 39 94  1  1
 40 95  1  0
 40 96  1  0
 40 97  1  0
 41 98  1  6
 44 99  1  0
 44100  1  0
 44101  1  0
 46102  1  1
 47103  1  0
 47104  1  0
 47105  1  0
 49106  1  0
 51107  1  0
 51108  1  0
 52109  1  0
 52110  1  0
 54111  1  0
 54112  1  0
 55113  1  0
 55114  1  0
 56115  1  0
 56116  1  0
 57117  1  0
 58118  1  0
 58119  1  0
 58120  1  0
 59121  1  0
 59122  1  0
 59123  1  0
M  END
$$$$
