@<TRIPOS>MOLECULE
*****
 123 128 0 0 0
SMALL
GASTEIGER

@<TRIPOS>ATOM
      1 C          -4.7620   -5.2434    2.4454 C.3     1  UNL1        0.0372
      2 O          -4.6451   -4.2301    1.5283 O.3     1  UNL1       -0.3753
      3 C          -3.3273   -3.7821    1.5320 C.3     1  UNL1        0.0854
      4 C          -2.7928   -3.8558    0.1471 C.2     1  UNL1       -0.0208
      5 C          -1.5442   -3.4656   -0.0992 C.2     1  UNL1        0.0882
      6 O          -0.8416   -3.4367   -1.2628 O.2     1  UNL1       -0.4528
      7 C           0.2095   -4.2984   -1.5988 C.3     1  UNL1        0.3143
      8 C           0.1965   -5.6025   -0.9075 C.3     1  UNL1        0.0210
      9 O           0.1978   -4.4912   -3.0523 O.3     1  UNL1       -0.4436
     10 C           0.2910   -3.1450   -3.4972 C.ar    1  UNL1        0.1435
     11 C           1.1308   -2.6300   -2.5041 C.ar    1  UNL1        0.0774
     12 C           1.5394   -3.5737   -1.5045 C.2     1  UNL1        0.2504
     13 O           2.5171   -3.8241   -0.7828 O.2     1  UNL1       -0.2836
     14 C           1.4677   -1.3001   -2.5849 C.ar    1  UNL1        0.0305
     15 C           1.0084   -0.4816   -3.5952 C.ar    1  UNL1        0.0753
     16 C           0.1676   -0.9931   -4.5920 C.ar    1  UNL1        0.1347
     17 O          -0.3197   -0.2318   -5.6187 O.3     1  UNL1       -0.5056
     18 C          -0.1746   -2.3257   -4.5201 C.ar    1  UNL1        0.0342
     19 C          -1.0595   -2.9946   -5.5173 C.3     1  UNL1       -0.0327
     20 C           1.3847    0.9299   -3.6647 C.2     1  UNL1        0.2131
     21 O           0.9146    1.6186   -4.6276 O.2     1  UNL1       -0.2851
     22 C           2.2872    1.4721   -2.6140 C.2     1  UNL1        0.1049
     23 N           2.5407    2.8475   -2.8025 N.am    1  UNL1       -0.2772
     24 C           1.9454    4.0726   -2.5228 C.2     1  UNL1        0.2441
     25 O           1.1726    3.2905   -2.0083 O.2     1  UNL1       -0.2702
     26 C           1.3428    5.3364   -2.2417 C.2     1  UNL1        0.0115
     27 C           2.2553    6.1302   -3.0533 C.3     1  UNL1       -0.0348
     28 C           0.3222    5.7448   -1.5222 C.2     1  UNL1       -0.0542
     29 C          -0.4522    4.7885   -0.7726 C.2     1  UNL1       -0.0649
     30 C          -1.0073    3.7731   -0.1762 C.2     1  UNL1       -0.0787
     31 C          -2.1775    3.5955    0.7223 C.3     1  UNL1        0.0009
     32 C          -1.6473    3.2054    2.0870 C.3     1  UNL1       -0.0566
     33 C          -3.0963    2.5713    0.1202 C.3     1  UNL1        0.0661
     34 O          -3.4190    3.0683   -1.1648 O.3     1  UNL1       -0.3909
     35 C          -4.3710    2.3661    0.9145 C.3     1  UNL1        0.0091
     36 C          -5.3748    3.4301    0.8409 C.3     1  UNL1       -0.0577
     37 C          -4.8623    0.9614    0.6920 C.3     1  UNL1        0.0661
     38 O          -5.0234    0.6112   -0.6144 O.3     1  UNL1       -0.3910
     39 C          -4.1017   -0.0186    1.5580 C.3     1  UNL1        0.0200
     40 C          -4.3970    0.2567    3.0068 C.3     1  UNL1       -0.0567
     41 C          -4.1842   -1.4399    1.1367 C.3     1  UNL1        0.1131
     42 O          -5.5380   -1.9163    1.1127 O.3     1  UNL1       -0.4608
     43 C          -6.0394   -2.3827   -0.1137 C.2     1  UNL1        0.3042
     44 C          -7.4126   -2.9101   -0.3269 C.3     1  UNL1        0.0332
     45 O          -5.3784   -2.4092   -1.1880 O.2     1  UNL1       -0.2512
     46 C          -3.3454   -2.3492    2.0327 C.3     1  UNL1        0.0236
     47 C          -2.0201   -1.7838    2.3736 C.3     1  UNL1       -0.0564
     48 C           2.6934    0.6386   -1.6882 C.2     1  UNL1        0.0801
     49 N           3.5934    1.1377   -0.7189 N.pl3   1  UNL1       -0.3170
     50 C           3.7453   -0.0656    0.1027 C.3     1  UNL1        0.1275
     51 C           3.2284    0.1483    1.4841 C.3     1  UNL1        0.0016
     52 C           4.1724    0.7788    2.4503 C.3     1  UNL1        0.0026
     53 N           5.5193    0.2382    2.4190 N.3     1  UNL1       -0.3018
     54 C           5.6338   -0.8758    1.5177 C.3     1  UNL1        0.0026
     55 C           5.1973   -0.5045    0.1129 C.3     1  UNL1        0.0016
     56 C           6.4645    1.2879    2.2242 C.3     1  UNL1        0.0012
     57 C           7.8997    0.8583    2.1413 C.3     1  UNL1       -0.0339
     58 C           8.3793    0.1550    3.3688 C.3     1  UNL1       -0.0615
     59 C           8.7801    2.1031    1.9766 C.3     1  UNL1       -0.0615
     60 N           2.9918   -1.1166   -0.5068 N.2     1  UNL1       -0.2557
     61 C           2.3548   -0.7628   -1.5617 C.2     1  UNL1        0.0924
     62 H          -4.0828   -6.1062    2.2008 H       1  UNL1        0.0524
     63 H          -4.5284   -4.9440    3.4906 H       1  UNL1        0.0524
     64 H          -5.8034   -5.6555    2.4951 H       1  UNL1        0.0524
     65 H          -2.7762   -4.3811    2.2701 H       1  UNL1        0.0645
     66 H          -3.3184   -4.2070   -0.7346 H       1  UNL1        0.0628
     67 H          -0.7369   -3.0715    0.5055 H       1  UNL1        0.1022
     68 H           1.2320   -5.9516   -0.7612 H       1  UNL1        0.0309
     69 H          -0.3537   -5.5286    0.0499 H       1  UNL1        0.0309
     70 H          -0.3398   -6.3260   -1.5638 H       1  UNL1        0.0309
     71 H           0.2909    0.0772   -6.3919 H       1  UNL1        0.2922
     72 H          -0.8959   -2.4544   -6.4879 H       1  UNL1        0.0280
     73 H          -0.7105   -4.0335   -5.6897 H       1  UNL1        0.0280
     74 H          -2.1194   -2.9407   -5.2477 H       1  UNL1        0.0280
     75 H           3.4379    2.6275   -3.2190 H       1  UNL1        0.1553
     76 H           3.3315    6.0859   -2.7883 H       1  UNL1        0.0279
     77 H           1.8927    7.2024   -2.9816 H       1  UNL1        0.0279
     78 H           2.0990    5.9015   -4.1387 H       1  UNL1        0.0279
     79 H           0.2755    6.8025   -1.6553 H       1  UNL1        0.0622
     80 H          -1.1370    5.5744   -0.4040 H       1  UNL1        0.0615
     81 H          -0.6537    2.7239   -0.2265 H       1  UNL1        0.0576
     82 H          -2.7724    4.5288    0.8178 H       1  UNL1        0.0365
     83 H          -1.8633    4.0134    2.8230 H       1  UNL1        0.0236
     84 H          -0.5296    3.1091    2.0831 H       1  UNL1        0.0236
     85 H          -2.0185    2.2359    2.4513 H       1  UNL1        0.0236
     86 H          -2.6032    1.6145   -0.0066 H       1  UNL1        0.0602
     87 H          -3.1773    3.9999   -1.2921 H       1  UNL1        0.2098
     88 H          -4.0108    2.3572    2.0131 H       1  UNL1        0.0348
     89 H          -6.3896    2.9684    0.9767 H       1  UNL1        0.0234
     90 H          -5.3251    4.1991    1.6642 H       1  UNL1        0.0234
     91 H          -5.4032    3.9309   -0.1494 H       1  UNL1        0.0234
     92 H          -5.9315    0.9783    1.1160 H       1  UNL1        0.0600
     93 H          -5.9093    0.7847   -1.0134 H       1  UNL1        0.2098
     94 H          -2.9912    0.2659    1.4497 H       1  UNL1        0.0359
     95 H          -3.5765    0.7744    3.5267 H       1  UNL1        0.0234
     96 H          -4.7178   -0.6626    3.5195 H       1  UNL1        0.0234
     97 H          -5.2931    0.9400    3.0440 H       1  UNL1        0.0234
     98 H          -3.7902   -1.5409    0.1155 H       1  UNL1        0.0741
     99 H          -8.0074   -2.6151    0.5674 H       1  UNL1        0.0342
    100 H          -7.8634   -2.4303   -1.1960 H       1  UNL1        0.0342
    101 H          -7.4421   -4.0136   -0.3819 H       1  UNL1        0.0342
    102 H          -3.9264   -2.4245    3.0052 H       1  UNL1        0.0362
    103 H          -2.1421   -1.1126    3.2770 H       1  UNL1        0.0234
    104 H          -1.3771   -2.6084    2.7497 H       1  UNL1        0.0234
    105 H          -1.5491   -1.1385    1.6221 H       1  UNL1        0.0234
    106 H           4.1044    2.0051   -0.4685 H       1  UNL1        0.1484
    107 H           2.8555   -0.8418    1.8601 H       1  UNL1        0.0317
    108 H           2.3410    0.8237    1.4056 H       1  UNL1        0.0317
    109 H           3.7898    0.5177    3.4818 H       1  UNL1        0.0428
    110 H           4.1402    1.8774    2.3812 H       1  UNL1        0.0428
    111 H           6.6898   -1.1873    1.4701 H       1  UNL1        0.0428
    112 H           5.0605   -1.7193    1.9316 H       1  UNL1        0.0428
    113 H           5.8644    0.3065   -0.2327 H       1  UNL1        0.0317
    114 H           5.3762   -1.3803   -0.5287 H       1  UNL1        0.0317
    115 H           6.1668    1.8614    1.3317 H       1  UNL1        0.0429
    116 H           6.4011    1.9542    3.1338 H       1  UNL1        0.0429
    117 H           8.0620    0.2659    1.2414 H       1  UNL1        0.0308
    118 H           7.5096   -0.1159    4.0363 H       1  UNL1        0.0233
    119 H           8.8278   -0.8484    3.1065 H       1  UNL1        0.0233
    120 H           9.0858    0.7518    3.9715 H       1  UNL1        0.0233
    121 H           8.5160    2.8383    2.7558 H       1  UNL1        0.0233
    122 H           8.6514    2.5325    0.9783 H       1  UNL1        0.0233
    123 H           9.8345    1.8336    2.1188 H       1  UNL1        0.0233
@<TRIPOS>BOND
     1     1     2    1
     2     2     3    1
     3     3     4    1
     4     4     5    2
     5     5     6    1
     6     6     7    1
     7     7     8    1
     8     7     9    1
     9     9    10    1
    10    10    11   ar
    11    11    12    1
    12    12    13    2
    13    11    14   ar
    14    14    15   ar
    15    15    16   ar
    16    16    17    1
    17    16    18   ar
    18    18    19    1
    19    15    20    1
    20    20    21    2
    21    20    22    1
    22    22    23    1
    23    23    24   am
    24    24    25    2
    25    24    26    1
    26    26    27    1
    27    26    28    2
    28    28    29    1
    29    29    30    2
    30    30    31    1
    31    31    32    1
    32    31    33    1
    33    33    34    1
    34    33    35    1
    35    35    36    1
    36    35    37    1
    37    37    38    1
    38    37    39    1
    39    39    40    1
    40    39    41    1
    41    41    42    1
    42    42    43    1
    43    43    44    1
    44    43    45    2
    45    41    46    1
    46    46    47    1
    47    22    48    2
    48    48    49    1
    49    49    50    1
    50    50    51    1
    51    51    52    1
    52    52    53    1
    53    53    54    1
    54    54    55    1
    55    53    56    1
    56    56    57    1
    57    57    58    1
    58    57    59    1
    59    50    60    1
    60    60    61    2
    61    46     3    1
    62    61    48    1
    63    12     7    1
    64    61    14    1
    65    18    10   ar
    66    55    50    1
    67     1    62    1
    68     1    63    1
    69     1    64    1
    70     3    65    1
    71     4    66    1
    72     5    67    1
    73     8    68    1
    74     8    69    1
    75     8    70    1
    76    17    71    1
    77    19    72    1
    78    19    73    1
    79    19    74    1
    80    23    75    1
    81    27    76    1
    82    27    77    1
    83    27    78    1
    84    28    79    1
    85    29    80    1
    86    30    81    1
    87    31    82    1
    88    32    83    1
    89    32    84    1
    90    32    85    1
    91    33    86    1
    92    34    87    1
    93    35    88    1
    94    36    89    1
    95    36    90    1
    96    36    91    1
    97    37    92    1
    98    38    93    1
    99    39    94    1
   100    40    95    1
   101    40    96    1
   102    40    97    1
   103    41    98    1
   104    44    99    1
   105    44   100    1
   106    44   101    1
   107    46   102    1
   108    47   103    1
   109    47   104    1
   110    47   105    1
   111    49   106    1
   112    51   107    1
   113    51   108    1
   114    52   109    1
   115    52   110    1
   116    54   111    1
   117    54   112    1
   118    55   113    1
   119    55   114    1
   120    56   115    1
   121    56   116    1
   122    57   117    1
   123    58   118    1
   124    58   119    1
   125    58   120    1
   126    59   121    1
   127    59   122    1
   128    59   123    1
