
     RDKit          3D

 54 56  0  0  0  0  0  0  0  0999 V2000
   -3.0722    3.8752   -1.6091 C   0  0  0  0  0  0  0  0  0  0  0  0
   -3.3499    2.7190   -2.5421 C   0  0  0  0  0  0  0  0  0  0  0  0
   -2.7310    1.4313   -2.0099 C   0  0  0  0  0  0  0  0  0  0  0  0
   -3.2977    1.0829   -0.6486 C   0  0  0  0  0  0  0  0  0  0  0  0
   -2.7483   -0.1282   -0.0939 N   0  0  0  0  0  0  0  0  0  0  0  0
   -1.6419   -0.1380    0.6864 C   0  0  0  0  0  0  0  0  0  0  0  0
   -1.1730   -1.3443    1.1837 C   0  0  0  0  0  0  0  0  0  0  0  0
   -0.0724   -1.0426    1.9169 N   0  0  0  0  0  0  0  0  0  0  0  0
    0.1325    0.2889    1.8767 C   0  0  0  0  0  0  0  0  0  0  0  0
    1.2632    0.9472    2.5817 C   0  0  0  0  0  0  0  0  0  0  0  0
    2.4870    1.0512    1.7466 C   0  0  0  0  0  0  0  0  0  0  0  0
    2.7877    2.1173    0.9191 C   0  0  0  0  0  0  0  0  0  0  0  0
    3.9768    2.0564    0.2047 C   0  0  0  0  0  0  0  0  0  0  0  0
    4.8215    0.9574    0.3288 C   0  0  0  0  0  0  0  0  0  0  0  0
    6.0329    0.9382   -0.4245 N   0  0  0  0  0  0  0  0  0  0  0  0
    6.0719    0.3723   -1.7436 C   0  0  0  0  0  0  0  0  0  0  0  0
    7.3630    0.3646   -2.5174 C   0  0  0  0  0  0  0  0  0  0  0  0
    4.9563   -0.0891   -2.1471 O   0  0  0  0  0  0  0  0  0  0  0  0
    4.5219   -0.1037    1.1527 C   0  0  0  0  0  0  0  0  0  0  0  0
    3.3271   -0.0575    1.8793 C   0  0  0  0  0  0  0  0  0  0  0  0
   -0.8383    0.8406    1.1167 N   0  0  0  0  0  0  0  0  0  0  0  0
   -1.8349   -2.5272    0.8815 C   0  0  0  0  0  0  0  0  0  0  0  0
   -1.3487   -3.5605    1.3670 O   0  0  0  0  0  0  0  0  0  0  0  0
   -2.9277   -2.4505    0.1015 N   0  0  0  0  0  0  0  0  0  0  0  0
   -3.5668   -3.7256   -0.1717 C   0  0  0  0  0  0  0  0  0  0  0  0
   -4.5972   -4.0555    0.8427 C   0  0  0  0  0  0  0  0  0  0  0  0
   -4.5026   -5.1689    1.5951 C   0  0  0  0  0  0  0  0  0  0  0  0
   -3.3936   -1.2820   -0.3884 C   0  0  0  0  0  0  0  0  0  0  0  0
   -4.4386   -1.2984   -1.1220 O   0  0  0  0  0  0  0  0  0  0  0  0
   -3.1163    4.8471   -2.1078 H   0  0  0  0  0  0  0  0  0  0  0  0
   -3.8224    3.8063   -0.7824 H   0  0  0  0  0  0  0  0  0  0  0  0
   -2.0558    3.7694   -1.1375 H   0  0  0  0  0  0  0  0  0  0  0  0
   -4.4432    2.6000   -2.6744 H   0  0  0  0  0  0  0  0  0  0  0  0
   -2.8930    2.9538   -3.5087 H   0  0  0  0  0  0  0  0  0  0  0  0
   -1.6308    1.5622   -1.9665 H   0  0  0  0  0  0  0  0  0  0  0  0
   -3.0202    0.5997   -2.6817 H   0  0  0  0  0  0  0  0  0  0  0  0
   -4.3968    1.0003   -0.7884 H   0  0  0  0  0  0  0  0  0  0  0  0
   -3.1567    1.9610    0.0364 H   0  0  0  0  0  0  0  0  0  0  0  0
    0.4865   -1.7706    2.4113 H   0  0  0  0  0  0  0  0  0  0  0  0
    0.8737    1.9660    2.8703 H   0  0  0  0  0  0  0  0  0  0  0  0
    1.4742    0.4549    3.5628 H   0  0  0  0  0  0  0  0  0  0  0  0
    2.0775    2.9356    0.8780 H   0  0  0  0  0  0  0  0  0  0  0  0
    4.1779    2.9054   -0.4301 H   0  0  0  0  0  0  0  0  0  0  0  0
    6.9208    1.3238   -0.0612 H   0  0  0  0  0  0  0  0  0  0  0  0
    7.2241   -0.3814   -3.3276 H   0  0  0  0  0  0  0  0  0  0  0  0
    7.6090    1.3649   -2.8795 H   0  0  0  0  0  0  0  0  0  0  0  0
    8.2044    0.0258   -1.8874 H   0  0  0  0  0  0  0  0  0  0  0  0
    5.2283   -0.9157    1.1924 H   0  0  0  0  0  0  0  0  0  0  0  0
    3.1307   -0.9013    2.5081 H   0  0  0  0  0  0  0  0  0  0  0  0
   -2.8361   -4.5578   -0.2059 H   0  0  0  0  0  0  0  0  0  0  0  0
   -3.9900   -3.6600   -1.2063 H   0  0  0  0  0  0  0  0  0  0  0  0
   -5.3562   -3.2572    0.8200 H   0  0  0  0  0  0  0  0  0  0  0  0
   -3.5622   -5.4407    1.0929 H   0  0  0  0  0  0  0  0  0  0  0  0
   -5.3344   -5.2622    2.2861 H   0  0  0  0  0  0  0  0  0  0  0  0
  1  2  1  0
  2  3  1  0
  3  4  1  0
  4  5  1  0
  5  6  1  0
  6  7  2  0
  7  8  1  0
  8  9  1  0
  9 10  1  0
 10 11  1  0
 11 12  2  0
 12 13  1  0
 13 14  2  0
 14 15  1  0
 15 16  1  0
 16 17  1  0
 16 18  2  0
 14 19  1  0
 19 20  2  0
  9 21  2  0
  7 22  1  0
 22 23  2  0
 22 24  1  0
 24 25  1  0
 25 26  1  0
 26 27  2  0
 24 28  1  0
 28 29  2  0
 28  5  1  0
 21  6  1  0
 20 11  1  0
  1 30  1  0
  1 31  1  0
  1 32  1  0
  2 33  1  0
  2 34  1  0
  3 35  1  0
  3 36  1  0
  4 37  1  0
  4 38  1  0
  8 39  1  0
 10 40  1  0
 10 41  1  0
 12 42  1  0
 13 43  1  0
 15 44  1  0
 17 45  1  0
 17 46  1  0
 17 47  1  0
 19 48  1  0
 20 49  1  0
 25 50  1  0
 25 51  1  0
 26 52  1  0
 27 53  1  0
 27 54  1  0
M  END
$$$$
