@<TRIPOS>MOLECULE
*****
 54 56 0 0 0
SMALL
GASTEIGER

@<TRIPOS>ATOM
      1 C          -3.0722    3.8752   -1.6091 C.3     1  UNL1       -0.0652
      2 C          -3.3499    2.7190   -2.5421 C.3     1  UNL1       -0.0543
      3 C          -2.7310    1.4313   -2.0099 C.3     1  UNL1       -0.0350
      4 C          -3.2977    1.0829   -0.6486 C.3     1  UNL1        0.0295
      5 N          -2.7483   -0.1282   -0.0939 N.ar    1  UNL1       -0.2764
      6 C          -1.6419   -0.1380    0.6864 C.ar    1  UNL1        0.1682
      7 C          -1.1730   -1.3443    1.1837 C.ar    1  UNL1        0.1491
      8 N          -0.0724   -1.0426    1.9169 N.ar    1  UNL1       -0.3361
      9 C           0.1325    0.2889    1.8767 C.ar    1  UNL1        0.1143
     10 C           1.2632    0.9472    2.5817 C.3     1  UNL1        0.0307
     11 C           2.4870    1.0512    1.7466 C.ar    1  UNL1       -0.0400
     12 C           2.7877    2.1173    0.9191 C.ar    1  UNL1       -0.0564
     13 C           3.9768    2.0564    0.2047 C.ar    1  UNL1       -0.0402
     14 C           4.8215    0.9574    0.3288 C.ar    1  UNL1        0.0334
     15 N           6.0329    0.9382   -0.4245 N.am    1  UNL1       -0.2857
     16 C           6.0719    0.3723   -1.7436 C.2     1  UNL1        0.2141
     17 C           7.3630    0.3646   -2.5174 C.3     1  UNL1        0.0125
     18 O           4.9563   -0.0891   -2.1471 O.2     1  UNL1       -0.2758
     19 C           4.5219   -0.1037    1.1527 C.ar    1  UNL1       -0.0402
     20 C           3.3271   -0.0575    1.8793 C.ar    1  UNL1       -0.0564
     21 N          -0.8383    0.8406    1.1167 N.ar    1  UNL1       -0.2141
     22 C          -1.8349   -2.5272    0.8815 C.ar    1  UNL1        0.2825
     23 O          -1.3487   -3.5605    1.3670 O.2     1  UNL1       -0.2652
     24 N          -2.9277   -2.4505    0.1015 N.ar    1  UNL1       -0.2553
     25 C          -3.5668   -3.7256   -0.1717 C.3     1  UNL1        0.0489
     26 C          -4.5972   -4.0555    0.8427 C.2     1  UNL1       -0.0714
     27 C          -4.5026   -5.1689    1.5951 C.2     1  UNL1       -0.1010
     28 C          -3.3936   -1.2820   -0.3884 C.ar    1  UNL1        0.3338
     29 O          -4.4386   -1.2984   -1.1220 O.2     1  UNL1       -0.2462
     30 H          -3.1163    4.8471   -2.1078 H       1  UNL1        0.0230
     31 H          -3.8224    3.8063   -0.7824 H       1  UNL1        0.0230
     32 H          -2.0558    3.7694   -1.1375 H       1  UNL1        0.0230
     33 H          -4.4432    2.6000   -2.6744 H       1  UNL1        0.0263
     34 H          -2.8930    2.9538   -3.5087 H       1  UNL1        0.0263
     35 H          -1.6308    1.5622   -1.9665 H       1  UNL1        0.0282
     36 H          -3.0202    0.5997   -2.6817 H       1  UNL1        0.0282
     37 H          -4.3968    1.0003   -0.7884 H       1  UNL1        0.0494
     38 H          -3.1567    1.9610    0.0364 H       1  UNL1        0.0494
     39 H           0.4865   -1.7706    2.4113 H       1  UNL1        0.1673
     40 H           0.8737    1.9660    2.8703 H       1  UNL1        0.0392
     41 H           1.4742    0.4549    3.5628 H       1  UNL1        0.0392
     42 H           2.0775    2.9356    0.8780 H       1  UNL1        0.0621
     43 H           4.1779    2.9054   -0.4301 H       1  UNL1        0.0636
     44 H           6.9208    1.3238   -0.0612 H       1  UNL1        0.1548
     45 H           7.2241   -0.3814   -3.3276 H       1  UNL1        0.0323
     46 H           7.6090    1.3649   -2.8795 H       1  UNL1        0.0323
     47 H           8.2044    0.0258   -1.8874 H       1  UNL1        0.0323
     48 H           5.2283   -0.9157    1.1924 H       1  UNL1        0.0636
     49 H           3.1307   -0.9013    2.5081 H       1  UNL1        0.0621
     50 H          -2.8361   -4.5578   -0.2059 H       1  UNL1        0.0538
     51 H          -3.9900   -3.6600   -1.2063 H       1  UNL1        0.0538
     52 H          -5.3562   -3.2572    0.8200 H       1  UNL1        0.0584
     53 H          -3.5622   -5.4407    1.0929 H       1  UNL1        0.0532
     54 H          -5.3344   -5.2622    2.2861 H       1  UNL1        0.0532
@<TRIPOS>BOND
     1     1     2    1
     2     2     3    1
     3     3     4    1
     4     4     5    1
     5     5     6   ar
     6     6     7   ar
     7     7     8   ar
     8     8     9   ar
     9     9    10    1
    10    10    11    1
    11    11    12   ar
    12    12    13   ar
    13    13    14   ar
    14    14    15    1
    15    15    16   am
    16    16    17    1
    17    16    18    2
    18    14    19   ar
    19    19    20   ar
    20     9    21   ar
    21     7    22   ar
    22    22    23    2
    23    22    24   ar
    24    24    25    1
    25    25    26    1
    26    26    27    2
    27    24    28   ar
    28    28    29    2
    29    28     5   ar
    30    21     6   ar
    31    20    11   ar
    32     1    30    1
    33     1    31    1
    34     1    32    1
    35     2    33    1
    36     2    34    1
    37     3    35    1
    38     3    36    1
    39     4    37    1
    40     4    38    1
    41     8    39    1
    42    10    40    1
    43    10    41    1
    44    12    42    1
    45    13    43    1
    46    15    44    1
    47    17    45    1
    48    17    46    1
    49    17    47    1
    50    19    48    1
    51    20    49    1
    52    25    50    1
    53    25    51    1
    54    26    52    1
    55    27    53    1
    56    27    54    1
