@<TRIPOS>MOLECULE
*****
 30 30 0 0 0
SMALL
GASTEIGER

@<TRIPOS>ATOM
      1 C           1.5047   -0.8276   -1.0515 C.3     1  UNL1       -0.0348
      2 C           1.6289    0.2181   -0.0081 C.3     1  UNL1        0.1305
      3 C           0.5570    1.2567   -0.0156 C.3     1  UNL1        0.0021
      4 C          -0.8077    0.7160    0.1852 C.ar    1  UNL1       -0.0414
      5 C          -1.5402    0.3385   -0.9292 C.ar    1  UNL1       -0.0133
      6 C          -2.8285   -0.1751   -0.7843 C.ar    1  UNL1        0.1585
      7 O          -3.5762   -0.5576   -1.8830 O.3     1  UNL1       -0.5033
      8 C          -3.4071   -0.3209    0.4705 C.ar    1  UNL1        0.1582
      9 O          -4.6789   -0.8228    0.6856 O.3     1  UNL1       -0.5033
     10 C          -2.6628    0.0601    1.5678 C.ar    1  UNL1       -0.0163
     11 C          -1.3684    0.5782    1.4500 C.ar    1  UNL1       -0.0548
     12 N           1.7193   -0.4233    1.2976 N.3     1  UNL1       -0.2426
     13 N           2.8189   -1.2657    1.3855 N.3     1  UNL1       -0.2695
     14 C           2.9220    0.9623   -0.1971 C.2     1  UNL1        0.3264
     15 O           3.0397    1.6421   -1.3786 O.3     1  UNL1       -0.4793
     16 O           3.9047    1.0249    0.6160 O.2     1  UNL1       -0.2489
     17 H           0.8250   -1.6566   -0.8007 H       1  UNL1        0.0253
     18 H           1.2349   -0.3516   -2.0354 H       1  UNL1        0.0253
     19 H           2.5067   -1.2744   -1.2302 H       1  UNL1        0.0253
     20 H           0.8161    2.0003    0.7802 H       1  UNL1        0.0337
     21 H           0.5688    1.8118   -0.9688 H       1  UNL1        0.0337
     22 H          -1.1067    0.4441   -1.9208 H       1  UNL1        0.0658
     23 H          -4.1724    0.0947   -2.3727 H       1  UNL1        0.2923
     24 H          -4.8818   -1.7184    0.2685 H       1  UNL1        0.2923
     25 H          -3.0896   -0.0415    2.5758 H       1  UNL1        0.0655
     26 H          -0.7751    0.8807    2.3078 H       1  UNL1        0.0621
     27 H           0.8708   -0.9916    1.5113 H       1  UNL1        0.1415
     28 H           3.4511   -1.2678    0.5784 H       1  UNL1        0.1368
     29 H           2.5432   -2.2549    1.5819 H       1  UNL1        0.1368
     30 H           3.9838    1.9215   -1.6864 H       1  UNL1        0.2951
@<TRIPOS>BOND
     1     1     2    1
     2     2     3    1
     3     3     4    1
     4     4     5   ar
     5     5     6   ar
     6     6     7    1
     7     6     8   ar
     8     8     9    1
     9     8    10   ar
    10    10    11   ar
    11     2    12    1
    12    12    13    1
    13     2    14    1
    14    14    15    1
    15    14    16    2
    16    11     4   ar
    17     1    17    1
    18     1    18    1
    19     1    19    1
    20     3    20    1
    21     3    21    1
    22     5    22    1
    23     7    23    1
    24     9    24    1
    25    10    25    1
    26    11    26    1
    27    12    27    1
    28    13    28    1
    29    13    29    1
    30    15    30    1
