
     RDKit          3D

 30 30  0  0  0  0  0  0  0  0999 V2000
    1.5047   -0.8276   -1.0515 C   0  0  0  0  0  0  0  0  0  0  0  0
    1.6289    0.2181   -0.0081 C   0  0  1  0  0  0  0  0  0  0  0  0
    0.5570    1.2567   -0.0156 C   0  0  0  0  0  0  0  0  0  0  0  0
   -0.8077    0.7160    0.1852 C   0  0  0  0  0  0  0  0  0  0  0  0
   -1.5402    0.3385   -0.9292 C   0  0  0  0  0  0  0  0  0  0  0  0
   -2.8285   -0.1751   -0.7843 C   0  0  0  0  0  0  0  0  0  0  0  0
   -3.5762   -0.5576   -1.8830 O   0  0  0  0  0  0  0  0  0  0  0  0
   -3.4071   -0.3209    0.4705 C   0  0  0  0  0  0  0  0  0  0  0  0
   -4.6789   -0.8228    0.6856 O   0  0  0  0  0  0  0  0  0  0  0  0
   -2.6628    0.0601    1.5678 C   0  0  0  0  0  0  0  0  0  0  0  0
   -1.3684    0.5782    1.4500 C   0  0  0  0  0  0  0  0  0  0  0  0
    1.7193   -0.4233    1.2976 N   0  0  0  0  0  0  0  0  0  0  0  0
    2.8189   -1.2657    1.3855 N   0  0  0  0  0  0  0  0  0  0  0  0
    2.9220    0.9623   -0.1971 C   0  0  0  0  0  0  0  0  0  0  0  0
    3.0397    1.6421   -1.3786 O   0  0  0  0  0  0  0  0  0  0  0  0
    3.9047    1.0249    0.6160 O   0  0  0  0  0  0  0  0  0  0  0  0
    0.8250   -1.6566   -0.8007 H   0  0  0  0  0  0  0  0  0  0  0  0
    1.2349   -0.3516   -2.0354 H   0  0  0  0  0  0  0  0  0  0  0  0
    2.5067   -1.2744   -1.2302 H   0  0  0  0  0  0  0  0  0  0  0  0
    0.8161    2.0003    0.7802 H   0  0  0  0  0  0  0  0  0  0  0  0
    0.5688    1.8118   -0.9688 H   0  0  0  0  0  0  0  0  0  0  0  0
   -1.1067    0.4441   -1.9208 H   0  0  0  0  0  0  0  0  0  0  0  0
   -4.1724    0.0947   -2.3727 H   0  0  0  0  0  0  0  0  0  0  0  0
   -4.8818   -1.7184    0.2685 H   0  0  0  0  0  0  0  0  0  0  0  0
   -3.0896   -0.0415    2.5758 H   0  0  0  0  0  0  0  0  0  0  0  0
   -0.7751    0.8807    2.3078 H   0  0  0  0  0  0  0  0  0  0  0  0
    0.8708   -0.9916    1.5113 H   0  0  0  0  0  0  0  0  0  0  0  0
    3.4511   -1.2678    0.5784 H   0  0  0  0  0  0  0  0  0  0  0  0
    2.5432   -2.2549    1.5819 H   0  0  0  0  0  0  0  0  0  0  0  0
    3.9838    1.9215   -1.6864 H   0  0  0  0  0  0  0  0  0  0  0  0
  1  2  1  0
  2  3  1  0
  3  4  1  0
  4  5  2  0
  5  6  1  0
  6  7  1  0
  6  8  2  0
  8  9  1  0
  8 10  1  0
 10 11  2  0
  2 12  1  1
 12 13  1  0
  2 14  1  0
 14 15  1  0
 14 16  2  0
 11  4  1  0
  1 17  1  0
  1 18  1  0
  1 19  1  0
  3 20  1  0
  3 21  1  0
  5 22  1  0
  7 23  1  0
  9 24  1  0
 10 25  1  0
 11 26  1  0
 12 27  1  0
 13 28  1  0
 13 29  1  0
 15 30  1  0
M  END
$$$$
