@<TRIPOS>MOLECULE
*****
 71 74 0 0 0
SMALL
GASTEIGER

@<TRIPOS>ATOM
      1 C          -5.3143   -1.5981    2.6770 C.3     1  UNL1        0.0370
      2 O          -5.0741   -0.3710    2.0815 O.3     1  UNL1       -0.3760
      3 C          -3.7553    0.0549    2.2234 C.3     1  UNL1        0.0969
      4 C          -3.7566    1.4130    2.9405 C.3     1  UNL1        0.0753
      5 O          -4.6097    2.2939    2.3187 O.3     1  UNL1       -0.3771
      6 C          -4.3585    2.5118    0.9895 C.3     1  UNL1        0.0493
      7 C          -4.3140    1.2176    0.1738 C.3     1  UNL1       -0.0115
      8 C          -3.2506    0.3530    0.8169 C.3     1  UNL1        0.0383
      9 N          -3.0117   -0.8755    0.1291 N.3     1  UNL1       -0.3079
     10 C          -2.5341   -0.7259   -1.2054 C.3     1  UNL1        0.0089
     11 C          -2.3288   -2.1026   -1.7932 C.3     1  UNL1       -0.0366
     12 C          -1.2670   -1.9477   -2.8261 C.3     1  UNL1       -0.0374
     13 C          -0.4003   -0.7490   -2.4207 C.3     1  UNL1        0.0509
     14 C           0.8988   -1.2386   -1.9343 C.2     1  UNL1        0.2221
     15 O           1.1323   -2.4813   -2.2972 O.2     1  UNL1       -0.2750
     16 N           1.8905   -0.6492   -1.1858 N.am    1  UNL1       -0.2980
     17 C           3.1239   -1.4220   -0.9170 C.3     1  UNL1        0.0305
     18 C           3.2427   -1.6029    0.5800 C.3     1  UNL1        0.0293
     19 N           3.2301   -0.2562    1.1392 N.pl3   1  UNL1       -0.3121
     20 C           4.3436    0.2532    1.8293 C.ar    1  UNL1        0.1251
     21 C           4.4306    1.5099    2.3709 C.ar    1  UNL1       -0.0035
     22 C           5.5588    1.9447    3.0377 C.ar    1  UNL1        0.0332
     23 N           6.6078    1.1408    3.1736 N.ar    1  UNL1       -0.2323
     24 C           6.5355   -0.0917    2.6481 C.ar    1  UNL1        0.2356
     25 C           7.7026   -1.0044    2.7920 C.3     1  UNL1        0.4523
     26 F           8.3594   -0.6437    3.9673 F       1  UNL1       -0.1632
     27 F           7.2636   -2.3196    2.8667 F       1  UNL1       -0.1632
     28 F           8.5031   -0.8221    1.6936 F       1  UNL1       -0.1632
     29 N           5.4454   -0.5351    1.9944 N.ar    1  UNL1       -0.2091
     30 C           2.0210    0.4894    0.9334 C.3     1  UNL1        0.0293
     31 C           1.8616    0.6465   -0.5993 C.3     1  UNL1        0.0305
     32 C          -0.2460    0.1395   -3.6411 C.3     1  UNL1       -0.0327
     33 C          -1.5349    0.6616   -4.1623 C.3     1  UNL1       -0.0617
     34 C           0.7457    1.2229   -3.5527 C.3     1  UNL1       -0.0617
     35 C          -1.1623   -0.1294   -1.3025 C.3     1  UNL1       -0.0233
     36 H          -6.3944   -1.8243    2.4943 H       1  UNL1        0.0524
     37 H          -5.1949   -1.5876    3.7785 H       1  UNL1        0.0524
     38 H          -4.7392   -2.4273    2.2675 H       1  UNL1        0.0524
     39 H          -3.1202   -0.6342    2.7747 H       1  UNL1        0.0634
     40 H          -2.7144    1.7577    3.0197 H       1  UNL1        0.0586
     41 H          -4.1323    1.2450    3.9667 H       1  UNL1        0.0586
     42 H          -5.2087    3.0985    0.5763 H       1  UNL1        0.0560
     43 H          -3.4307    3.1121    0.8129 H       1  UNL1        0.0560
     44 H          -5.2805    0.7317    0.3121 H       1  UNL1        0.0303
     45 H          -4.0734    1.5032   -0.8621 H       1  UNL1        0.0303
     46 H          -2.3423    0.9750    0.9452 H       1  UNL1        0.0487
     47 H          -3.8436   -1.4713    0.1714 H       1  UNL1        0.1225
     48 H          -3.2548   -0.1205   -1.7865 H       1  UNL1        0.0461
     49 H          -2.0711   -2.8303   -0.9840 H       1  UNL1        0.0281
     50 H          -3.2935   -2.5027   -2.2239 H       1  UNL1        0.0281
     51 H          -0.6311   -2.8480   -2.8243 H       1  UNL1        0.0276
     52 H          -1.6478   -1.8428   -3.8622 H       1  UNL1        0.0276
     53 H           4.0164   -0.8069   -1.2297 H       1  UNL1        0.0480
     54 H           3.1169   -2.3751   -1.4495 H       1  UNL1        0.0480
     55 H           2.3605   -2.1534    0.9764 H       1  UNL1        0.0480
     56 H           4.1744   -2.0784    0.8777 H       1  UNL1        0.0480
     57 H           3.6105    2.1824    2.2816 H       1  UNL1        0.0667
     58 H           5.5622    2.9354    3.4363 H       1  UNL1        0.0831
     59 H           1.9420    1.4412    1.4447 H       1  UNL1        0.0480
     60 H           1.1228   -0.1115    1.2473 H       1  UNL1        0.0480
     61 H           0.9711    1.2478   -0.7111 H       1  UNL1        0.0480
     62 H           2.7746    1.2476   -0.9229 H       1  UNL1        0.0480
     63 H           0.1353   -0.5766   -4.4444 H       1  UNL1        0.0305
     64 H          -1.4610    0.8656   -5.2712 H       1  UNL1        0.0233
     65 H          -1.7676    1.6759   -3.7242 H       1  UNL1        0.0233
     66 H          -2.4104    0.0388   -4.0252 H       1  UNL1        0.0233
     67 H           0.5473    2.0417   -2.8676 H       1  UNL1        0.0233
     68 H           1.7666    0.7531   -3.4401 H       1  UNL1        0.0233
     69 H           0.8019    1.7040   -4.5791 H       1  UNL1        0.0233
     70 H          -0.6539   -0.4116   -0.3323 H       1  UNL1        0.0290
     71 H          -1.2156    0.9881   -1.3821 H       1  UNL1        0.0290
@<TRIPOS>BOND
     1     1     2    1
     2     2     3    1
     3     3     4    1
     4     4     5    1
     5     5     6    1
     6     6     7    1
     7     7     8    1
     8     8     9    1
     9     9    10    1
    10    10    11    1
    11    11    12    1
    12    12    13    1
    13    13    14    1
    14    14    15    2
    15    14    16   am
    16    16    17    1
    17    17    18    1
    18    18    19    1
    19    19    20    1
    20    20    21   ar
    21    21    22   ar
    22    22    23   ar
    23    23    24   ar
    24    24    25    1
    25    25    26    1
    26    25    27    1
    27    25    28    1
    28    24    29   ar
    29    19    30    1
    30    30    31    1
    31    13    32    1
    32    32    33    1
    33    32    34    1
    34    13    35    1
    35     8     3    1
    36    35    10    1
    37    31    16    1
    38    29    20   ar
    39     1    36    1
    40     1    37    1
    41     1    38    1
    42     3    39    1
    43     4    40    1
    44     4    41    1
    45     6    42    1
    46     6    43    1
    47     7    44    1
    48     7    45    1
    49     8    46    1
    50     9    47    1
    51    10    48    1
    52    11    49    1
    53    11    50    1
    54    12    51    1
    55    12    52    1
    56    17    53    1
    57    17    54    1
    58    18    55    1
    59    18    56    1
    60    21    57    1
    61    22    58    1
    62    30    59    1
    63    30    60    1
    64    31    61    1
    65    31    62    1
    66    32    63    1
    67    33    64    1
    68    33    65    1
    69    33    66    1
    70    34    67    1
    71    34    68    1
    72    34    69    1
    73    35    70    1
    74    35    71    1
