
     RDKit          3D

 71 74  0  0  0  0  0  0  0  0999 V2000
   -5.3143   -1.5981    2.6770 C   0  0  0  0  0  0  0  0  0  0  0  0
   -5.0741   -0.3710    2.0815 O   0  0  0  0  0  0  0  0  0  0  0  0
   -3.7553    0.0549    2.2234 C   0  0  2  0  0  0  0  0  0  0  0  0
   -3.7566    1.4130    2.9405 C   0  0  0  0  0  0  0  0  0  0  0  0
   -4.6097    2.2939    2.3187 O   0  0  0  0  0  0  0  0  0  0  0  0
   -4.3585    2.5118    0.9895 C   0  0  0  0  0  0  0  0  0  0  0  0
   -4.3140    1.2176    0.1738 C   0  0  0  0  0  0  0  0  0  0  0  0
   -3.2506    0.3530    0.8169 C   0  0  2  0  0  0  0  0  0  0  0  0
   -3.0117   -0.8755    0.1291 N   0  0  0  0  0  0  0  0  0  0  0  0
   -2.5341   -0.7259   -1.2054 C   0  0  2  0  0  0  0  0  0  0  0  0
   -2.3288   -2.1026   -1.7932 C   0  0  0  0  0  0  0  0  0  0  0  0
   -1.2670   -1.9477   -2.8261 C   0  0  0  0  0  0  0  0  0  0  0  0
   -0.4003   -0.7490   -2.4207 C   0  0  1  0  0  0  0  0  0  0  0  0
    0.8988   -1.2386   -1.9343 C   0  0  0  0  0  0  0  0  0  0  0  0
    1.1323   -2.4813   -2.2972 O   0  0  0  0  0  0  0  0  0  0  0  0
    1.8905   -0.6492   -1.1858 N   0  0  0  0  0  0  0  0  0  0  0  0
    3.1239   -1.4220   -0.9170 C   0  0  0  0  0  0  0  0  0  0  0  0
    3.2427   -1.6029    0.5800 C   0  0  0  0  0  0  0  0  0  0  0  0
    3.2301   -0.2562    1.1392 N   0  0  0  0  0  0  0  0  0  0  0  0
    4.3436    0.2532    1.8293 C   0  0  0  0  0  0  0  0  0  0  0  0
    4.4306    1.5099    2.3709 C   0  0  0  0  0  0  0  0  0  0  0  0
    5.5588    1.9447    3.0377 C   0  0  0  0  0  0  0  0  0  0  0  0
    6.6078    1.1408    3.1736 N   0  0  0  0  0  0  0  0  0  0  0  0
    6.5355   -0.0917    2.6481 C   0  0  0  0  0  0  0  0  0  0  0  0
    7.7026   -1.0044    2.7920 C   0  0  0  0  0  0  0  0  0  0  0  0
    8.3594   -0.6437    3.9673 F   0  0  0  0  0  0  0  0  0  0  0  0
    7.2636   -2.3196    2.8667 F   0  0  0  0  0  0  0  0  0  0  0  0
    8.5031   -0.8221    1.6936 F   0  0  0  0  0  0  0  0  0  0  0  0
    5.4454   -0.5351    1.9944 N   0  0  0  0  0  0  0  0  0  0  0  0
    2.0210    0.4894    0.9334 C   0  0  0  0  0  0  0  0  0  0  0  0
    1.8616    0.6465   -0.5993 C   0  0  0  0  0  0  0  0  0  0  0  0
   -0.2460    0.1395   -3.6411 C   0  0  0  0  0  0  0  0  0  0  0  0
   -1.5349    0.6616   -4.1623 C   0  0  0  0  0  0  0  0  0  0  0  0
    0.7457    1.2229   -3.5527 C   0  0  0  0  0  0  0  0  0  0  0  0
   -1.1623   -0.1294   -1.3025 C   0  0  0  0  0  0  0  0  0  0  0  0
   -6.3944   -1.8243    2.4943 H   0  0  0  0  0  0  0  0  0  0  0  0
   -5.1949   -1.5876    3.7785 H   0  0  0  0  0  0  0  0  0  0  0  0
   -4.7392   -2.4273    2.2675 H   0  0  0  0  0  0  0  0  0  0  0  0
   -3.1202   -0.6342    2.7747 H   0  0  0  0  0  0  0  0  0  0  0  0
   -2.7144    1.7577    3.0197 H   0  0  0  0  0  0  0  0  0  0  0  0
   -4.1323    1.2450    3.9667 H   0  0  0  0  0  0  0  0  0  0  0  0
   -5.2087    3.0985    0.5763 H   0  0  0  0  0  0  0  0  0  0  0  0
   -3.4307    3.1121    0.8129 H   0  0  0  0  0  0  0  0  0  0  0  0
   -5.2805    0.7317    0.3121 H   0  0  0  0  0  0  0  0  0  0  0  0
   -4.0734    1.5032   -0.8621 H   0  0  0  0  0  0  0  0  0  0  0  0
   -2.3423    0.9750    0.9452 H   0  0  0  0  0  0  0  0  0  0  0  0
   -3.8436   -1.4713    0.1714 H   0  0  0  0  0  0  0  0  0  0  0  0
   -3.2548   -0.1205   -1.7865 H   0  0  0  0  0  0  0  0  0  0  0  0
   -2.0711   -2.8303   -0.9840 H   0  0  0  0  0  0  0  0  0  0  0  0
   -3.2935   -2.5027   -2.2239 H   0  0  0  0  0  0  0  0  0  0  0  0
   -0.6311   -2.8480   -2.8243 H   0  0  0  0  0  0  0  0  0  0  0  0
   -1.6478   -1.8428   -3.8622 H   0  0  0  0  0  0  0  0  0  0  0  0
    4.0164   -0.8069   -1.2297 H   0  0  0  0  0  0  0  0  0  0  0  0
    3.1169   -2.3751   -1.4495 H   0  0  0  0  0  0  0  0  0  0  0  0
    2.3605   -2.1534    0.9764 H   0  0  0  0  0  0  0  0  0  0  0  0
    4.1744   -2.0784    0.8777 H   0  0  0  0  0  0  0  0  0  0  0  0
    3.6105    2.1824    2.2816 H   0  0  0  0  0  0  0  0  0  0  0  0
    5.5622    2.9354    3.4363 H   0  0  0  0  0  0  0  0  0  0  0  0
    1.9420    1.4412    1.4447 H   0  0  0  0  0  0  0  0  0  0  0  0
    1.1228   -0.1115    1.2473 H   0  0  0  0  0  0  0  0  0  0  0  0
    0.9711    1.2478   -0.7111 H   0  0  0  0  0  0  0  0  0  0  0  0
    2.7746    1.2476   -0.9229 H   0  0  0  0  0  0  0  0  0  0  0  0
    0.1353   -0.5766   -4.4444 H   0  0  0  0  0  0  0  0  0  0  0  0
   -1.4610    0.8656   -5.2712 H   0  0  0  0  0  0  0  0  0  0  0  0
   -1.7676    1.6759   -3.7242 H   0  0  0  0  0  0  0  0  0  0  0  0
   -2.4104    0.0388   -4.0252 H   0  0  0  0  0  0  0  0  0  0  0  0
    0.5473    2.0417   -2.8676 H   0  0  0  0  0  0  0  0  0  0  0  0
    1.7666    0.7531   -3.4401 H   0  0  0  0  0  0  0  0  0  0  0  0
    0.8019    1.7040   -4.5791 H   0  0  0  0  0  0  0  0  0  0  0  0
   -0.6539   -0.4116   -0.3323 H   0  0  0  0  0  0  0  0  0  0  0  0
   -1.2156    0.9881   -1.3821 H   0  0  0  0  0  0  0  0  0  0  0  0
  1  2  1  0
  2  3  1  0
  3  4  1  0
  4  5  1  0
  5  6  1  0
  6  7  1  0
  7  8  1  0
  8  9  1  0
  9 10  1  0
 10 11  1  0
 11 12  1  0
 12 13  1  0
 13 14  1  0
 14 15  2  0
 14 16  1  0
 16 17  1  0
 17 18  1  0
 18 19  1  0
 19 20  1  0
 20 21  2  0
 21 22  1  0
 22 23  2  0
 23 24  1  0
 24 25  1  0
 25 26  1  0
 25 27  1  0
 25 28  1  0
 24 29  2  0
 19 30  1  0
 30 31  1  0
 13 32  1  6
 32 33  1  0
 32 34  1  0
 13 35  1  0
  8  3  1  0
 35 10  1  0
 31 16  1  0
 29 20  1  0
  1 36  1  0
  1 37  1  0
  1 38  1  0
  3 39  1  1
  4 40  1  0
  4 41  1  0
  6 42  1  0
  6 43  1  0
  7 44  1  0
  7 45  1  0
  8 46  1  1
  9 47  1  0
 10 48  1  6
 11 49  1  0
 11 50  1  0
 12 51  1  0
 12 52  1  0
 17 53  1  0
 17 54  1  0
 18 55  1  0
 18 56  1  0
 21 57  1  0
 22 58  1  0
 30 59  1  0
 30 60  1  0
 31 61  1  0
 31 62  1  0
 32 63  1  0
 33 64  1  0
 33 65  1  0
 33 66  1  0
 34 67  1  0
 34 68  1  0
 34 69  1  0
 35 70  1  0
 35 71  1  0
M  END
$$$$
