@<TRIPOS>MOLECULE
*****
 58 63 0 0 0
SMALL
GASTEIGER

@<TRIPOS>ATOM
      1 C          -1.8824   -2.2942    0.3189 C.3     1  UNL1       -0.0349
      2 C          -2.6483   -1.3824    1.2592 C.3     1  UNL1        0.1110
      3 C          -3.4925   -0.4545    0.4251 C.2     1  UNL1        0.2407
      4 O          -3.3749    0.7600    0.6356 O.2     1  UNL1       -0.2731
      5 N          -4.3880   -0.9109   -0.5617 N.am    1  UNL1       -0.2825
      6 C          -5.2187   -0.1460   -1.3930 C.ar    1  UNL1        0.0519
      7 C          -5.3453    1.2160   -1.3877 C.ar    1  UNL1       -0.0348
      8 C          -6.2085    1.8855   -2.2757 C.ar    1  UNL1       -0.0055
      9 C          -6.9523    1.1714   -3.1795 C.ar    1  UNL1        0.2133
     10 F          -7.8048    1.7950   -4.0608 F       1  UNL1       -0.1839
     11 N          -6.8262   -0.1652   -3.1825 N.ar    1  UNL1       -0.2258
     12 C          -6.0022   -0.8102   -2.3353 C.ar    1  UNL1        0.0518
     13 C          -3.5875   -2.1928    2.0982 C.3     1  UNL1       -0.0217
     14 C          -3.2587   -1.8136    3.5452 C.3     1  UNL1       -0.0347
     15 C          -2.4920   -0.5301    3.4077 C.3     1  UNL1        0.0160
     16 N          -1.8043   -0.6681    2.1568 N.pl3   1  UNL1       -0.2844
     17 C          -0.4940   -0.1687    1.8705 C.ar    1  UNL1        0.2385
     18 N           0.0727   -0.3101    0.6777 N.ar    1  UNL1       -0.1959
     19 C           1.3371    0.1710    0.4000 C.ar    1  UNL1        0.1533
     20 N           1.8428   -0.0270   -0.8969 N.pl3   1  UNL1       -0.2812
     21 C           3.0953    0.3568   -1.3854 C.ar    1  UNL1        0.1459
     22 C           4.2850   -0.3825   -1.4188 C.ar    1  UNL1        0.0011
     23 C           5.2610    0.3744   -2.0243 C.ar    1  UNL1        0.0410
     24 C           6.6952   -0.0289   -2.2762 C.3     1  UNL1        0.0009
     25 C           7.7248    0.9893   -1.7376 C.3     1  UNL1       -0.0442
     26 C           7.5494    0.7503   -3.1738 C.3     1  UNL1       -0.0442
     27 N           4.6813    1.5377   -2.3484 N.ar    1  UNL1       -0.2795
     28 N           3.4183    1.5341   -1.9787 N.ar    1  UNL1       -0.1584
     29 C           2.0247    0.8136    1.3901 C.ar    1  UNL1        0.1055
     30 C           3.2783    1.3909    1.4127 C.ar    1  UNL1       -0.0315
     31 C           3.4556    1.9014    2.6983 C.ar    1  UNL1       -0.0415
     32 C           2.3157    1.6163    3.3944 C.ar    1  UNL1        0.0300
     33 N           1.4420    0.9546    2.6032 N.ar    1  UNL1       -0.2334
     34 N           0.2329    0.4719    2.8001 N.ar    1  UNL1       -0.1301
     35 H          -2.4863   -3.2149    0.2017 H       1  UNL1        0.0255
     36 H          -1.7929   -1.8419   -0.6847 H       1  UNL1        0.0255
     37 H          -0.9287   -2.5637    0.7732 H       1  UNL1        0.0255
     38 H          -4.4255   -1.9703   -0.6751 H       1  UNL1        0.1549
     39 H          -4.7676    1.7878   -0.6813 H       1  UNL1        0.0638
     40 H          -6.2611    2.9584   -2.2194 H       1  UNL1        0.0663
     41 H          -5.9533   -1.9021   -2.3974 H       1  UNL1        0.0849
     42 H          -3.5002   -3.2787    1.9330 H       1  UNL1        0.0291
     43 H          -4.6618   -1.9261    1.9277 H       1  UNL1        0.0291
     44 H          -4.1914   -1.6974    4.1415 H       1  UNL1        0.0281
     45 H          -2.5854   -2.6027    3.9367 H       1  UNL1        0.0281
     46 H          -3.1427    0.3668    3.4506 H       1  UNL1        0.0465
     47 H          -1.7906   -0.4095    4.2788 H       1  UNL1        0.0465
     48 H           1.1937   -0.5389   -1.6175 H       1  UNL1        0.1551
     49 H           4.3913   -1.3822   -1.0255 H       1  UNL1        0.0670
     50 H           6.9295   -1.0554   -1.9692 H       1  UNL1        0.0364
     51 H           7.3258    1.9005   -1.2690 H       1  UNL1        0.0272
     52 H           8.6545    0.5799   -1.2715 H       1  UNL1        0.0272
     53 H           8.3146    0.1797   -3.7663 H       1  UNL1        0.0272
     54 H           7.1032    1.5702   -3.7710 H       1  UNL1        0.0272
     55 H           5.1523    2.3342   -2.8235 H       1  UNL1        0.1886
     56 H           4.0060    1.4570    0.6198 H       1  UNL1        0.0640
     57 H           4.3652    2.4217    3.0150 H       1  UNL1        0.0633
     58 H           2.1198    1.8691    4.4160 H       1  UNL1        0.0830
@<TRIPOS>BOND
     1     2     1    1
     2     2     3    1
     3     3     4    2
     4     3     5   am
     5     5     6    1
     6     6     7   ar
     7     7     8   ar
     8     8     9   ar
     9     9    10    1
    10     9    11   ar
    11    11    12   ar
    12     2    13    1
    13    13    14    1
    14    14    15    1
    15    15    16    1
    16    16    17    1
    17    17    18   ar
    18    18    19   ar
    19    19    20    1
    20    20    21    1
    21    21    22   ar
    22    22    23   ar
    23    23    24    1
    24    24    25    1
    25    25    26    1
    26    23    27   ar
    27    27    28   ar
    28    19    29   ar
    29    29    30   ar
    30    30    31   ar
    31    31    32   ar
    32    32    33   ar
    33    33    34   ar
    34    16     2    1
    35    34    17   ar
    36    12     6   ar
    37    28    21   ar
    38    33    29   ar
    39    26    24    1
    40     1    35    1
    41     1    36    1
    42     1    37    1
    43     5    38    1
    44     7    39    1
    45     8    40    1
    46    12    41    1
    47    13    42    1
    48    13    43    1
    49    14    44    1
    50    14    45    1
    51    15    46    1
    52    15    47    1
    53    20    48    1
    54    22    49    1
    55    24    50    1
    56    25    51    1
    57    25    52    1
    58    26    53    1
    59    26    54    1
    60    27    55    1
    61    30    56    1
    62    31    57    1
    63    32    58    1
