
     RDKit          3D

 58 63  0  0  0  0  0  0  0  0999 V2000
   -1.8824   -2.2942    0.3189 C   0  0  0  0  0  0  0  0  0  0  0  0
   -2.6483   -1.3824    1.2592 C   0  0  1  0  0  0  0  0  0  0  0  0
   -3.4925   -0.4545    0.4251 C   0  0  0  0  0  0  0  0  0  0  0  0
   -3.3749    0.7600    0.6356 O   0  0  0  0  0  0  0  0  0  0  0  0
   -4.3880   -0.9109   -0.5617 N   0  0  0  0  0  0  0  0  0  0  0  0
   -5.2187   -0.1460   -1.3930 C   0  0  0  0  0  0  0  0  0  0  0  0
   -5.3453    1.2160   -1.3877 C   0  0  0  0  0  0  0  0  0  0  0  0
   -6.2085    1.8855   -2.2757 C   0  0  0  0  0  0  0  0  0  0  0  0
   -6.9523    1.1714   -3.1795 C   0  0  0  0  0  0  0  0  0  0  0  0
   -7.8048    1.7950   -4.0608 F   0  0  0  0  0  0  0  0  0  0  0  0
   -6.8262   -0.1652   -3.1825 N   0  0  0  0  0  0  0  0  0  0  0  0
   -6.0022   -0.8102   -2.3353 C   0  0  0  0  0  0  0  0  0  0  0  0
   -3.5875   -2.1928    2.0982 C   0  0  0  0  0  0  0  0  0  0  0  0
   -3.2587   -1.8136    3.5452 C   0  0  0  0  0  0  0  0  0  0  0  0
   -2.4920   -0.5301    3.4077 C   0  0  0  0  0  0  0  0  0  0  0  0
   -1.8043   -0.6681    2.1568 N   0  0  0  0  0  0  0  0  0  0  0  0
   -0.4940   -0.1687    1.8705 C   0  0  0  0  0  0  0  0  0  0  0  0
    0.0727   -0.3101    0.6777 N   0  0  0  0  0  0  0  0  0  0  0  0
    1.3371    0.1710    0.4000 C   0  0  0  0  0  0  0  0  0  0  0  0
    1.8428   -0.0270   -0.8969 N   0  0  0  0  0  0  0  0  0  0  0  0
    3.0953    0.3568   -1.3854 C   0  0  0  0  0  0  0  0  0  0  0  0
    4.2850   -0.3825   -1.4188 C   0  0  0  0  0  0  0  0  0  0  0  0
    5.2610    0.3744   -2.0243 C   0  0  0  0  0  0  0  0  0  0  0  0
    6.6952   -0.0289   -2.2762 C   0  0  0  0  0  0  0  0  0  0  0  0
    7.7248    0.9893   -1.7376 C   0  0  0  0  0  0  0  0  0  0  0  0
    7.5494    0.7503   -3.1738 C   0  0  0  0  0  0  0  0  0  0  0  0
    4.6813    1.5377   -2.3484 N   0  0  0  0  0  0  0  0  0  0  0  0
    3.4183    1.5341   -1.9787 N   0  0  0  0  0  0  0  0  0  0  0  0
    2.0247    0.8136    1.3901 C   0  0  0  0  0  0  0  0  0  0  0  0
    3.2783    1.3909    1.4127 C   0  0  0  0  0  0  0  0  0  0  0  0
    3.4556    1.9014    2.6983 C   0  0  0  0  0  0  0  0  0  0  0  0
    2.3157    1.6163    3.3944 C   0  0  0  0  0  0  0  0  0  0  0  0
    1.4420    0.9546    2.6032 N   0  0  0  0  0  0  0  0  0  0  0  0
    0.2329    0.4719    2.8001 N   0  0  0  0  0  0  0  0  0  0  0  0
   -2.4863   -3.2149    0.2017 H   0  0  0  0  0  0  0  0  0  0  0  0
   -1.7929   -1.8419   -0.6847 H   0  0  0  0  0  0  0  0  0  0  0  0
   -0.9287   -2.5637    0.7732 H   0  0  0  0  0  0  0  0  0  0  0  0
   -4.4255   -1.9703   -0.6751 H   0  0  0  0  0  0  0  0  0  0  0  0
   -4.7676    1.7878   -0.6813 H   0  0  0  0  0  0  0  0  0  0  0  0
   -6.2611    2.9584   -2.2194 H   0  0  0  0  0  0  0  0  0  0  0  0
   -5.9533   -1.9021   -2.3974 H   0  0  0  0  0  0  0  0  0  0  0  0
   -3.5002   -3.2787    1.9330 H   0  0  0  0  0  0  0  0  0  0  0  0
   -4.6618   -1.9261    1.9277 H   0  0  0  0  0  0  0  0  0  0  0  0
   -4.1914   -1.6974    4.1415 H   0  0  0  0  0  0  0  0  0  0  0  0
   -2.5854   -2.6027    3.9367 H   0  0  0  0  0  0  0  0  0  0  0  0
   -3.1427    0.3668    3.4506 H   0  0  0  0  0  0  0  0  0  0  0  0
   -1.7906   -0.4095    4.2788 H   0  0  0  0  0  0  0  0  0  0  0  0
    1.1937   -0.5389   -1.6175 H   0  0  0  0  0  0  0  0  0  0  0  0
    4.3913   -1.3822   -1.0255 H   0  0  0  0  0  0  0  0  0  0  0  0
    6.9295   -1.0554   -1.9692 H   0  0  0  0  0  0  0  0  0  0  0  0
    7.3258    1.9005   -1.2690 H   0  0  0  0  0  0  0  0  0  0  0  0
    8.6545    0.5799   -1.2715 H   0  0  0  0  0  0  0  0  0  0  0  0
    8.3146    0.1797   -3.7663 H   0  0  0  0  0  0  0  0  0  0  0  0
    7.1032    1.5702   -3.7710 H   0  0  0  0  0  0  0  0  0  0  0  0
    5.1523    2.3342   -2.8235 H   0  0  0  0  0  0  0  0  0  0  0  0
    4.0060    1.4570    0.6198 H   0  0  0  0  0  0  0  0  0  0  0  0
    4.3652    2.4217    3.0150 H   0  0  0  0  0  0  0  0  0  0  0  0
    2.1198    1.8691    4.4160 H   0  0  0  0  0  0  0  0  0  0  0  0
  2  1  1  6
  2  3  1  0
  3  4  2  0
  3  5  1  0
  5  6  1  0
  6  7  2  0
  7  8  1  0
  8  9  2  0
  9 10  1  0
  9 11  1  0
 11 12  2  0
  2 13  1  0
 13 14  1  0
 14 15  1  0
 15 16  1  0
 16 17  1  0
 17 18  1  0
 18 19  2  0
 19 20  1  0
 20 21  1  0
 21 22  1  0
 22 23  2  0
 23 24  1  0
 24 25  1  0
 25 26  1  0
 23 27  1  0
 27 28  1  0
 19 29  1  0
 29 30  2  0
 30 31  1  0
 31 32  2  0
 32 33  1  0
 33 34  1  0
 16  2  1  0
 34 17  2  0
 12  6  1  0
 28 21  2  0
 33 29  1  0
 26 24  1  0
  1 35  1  0
  1 36  1  0
  1 37  1  0
  5 38  1  0
  7 39  1  0
  8 40  1  0
 12 41  1  0
 13 42  1  0
 13 43  1  0
 14 44  1  0
 14 45  1  0
 15 46  1  0
 15 47  1  0
 20 48  1  0
 22 49  1  0
 24 50  1  0
 25 51  1  0
 25 52  1  0
 26 53  1  0
 26 54  1  0
 27 55  1  0
 30 56  1  0
 31 57  1  0
 32 58  1  0
M  END
$$$$
