@<TRIPOS>MOLECULE
*****
 24 24 0 0 0
SMALL
GASTEIGER

@<TRIPOS>ATOM
      1 C          -0.2046    3.2168    0.1692 C.3     1  UNL1        0.0790
      2 O           0.0696    1.9171   -0.2682 O.3     1  UNL1       -0.4914
      3 C          -0.6894    0.8126    0.0112 C.ar    1  UNL1        0.1627
      4 C          -1.8346    0.8850    0.7773 C.ar    1  UNL1       -0.0162
      5 C          -2.6021   -0.2390    1.0584 C.ar    1  UNL1       -0.0574
      6 C          -2.1896   -1.4565    0.5465 C.ar    1  UNL1       -0.0478
      7 C          -1.0412   -1.5043   -0.2167 C.ar    1  UNL1        0.0600
      8 C          -0.6327   -2.8008   -0.7417 C.2     1  UNL1        0.1538
      9 O           0.3957   -2.9602   -1.4483 O.2     1  UNL1       -0.2956
     10 C          -0.2615   -0.4078   -0.5114 C.ar    1  UNL1        0.1836
     11 O           0.8927   -0.4725   -1.2817 O.3     1  UNL1       -0.3996
     12 P           2.4540   -0.7416   -0.7053 P.3     1  UNL1        0.5281
     13 O           2.3753   -1.3548    0.8746 O.3     1  UNL1       -0.2930
     14 O           3.3509    0.7094   -0.6614 O.3     1  UNL1       -0.2930
     15 O           3.2461   -1.7439   -1.5256 O.2     1  UNL1       -0.2156
     16 H          -0.7649    3.2839    1.1155 H       1  UNL1        0.0660
     17 H          -0.7620    3.7349   -0.6630 H       1  UNL1        0.0660
     18 H           0.7339    3.7904    0.3089 H       1  UNL1        0.0660
     19 H          -2.1844    1.8208    1.1922 H       1  UNL1        0.0655
     20 H          -3.5090   -0.2207    1.6573 H       1  UNL1        0.0619
     21 H          -2.7588   -2.3512    0.7428 H       1  UNL1        0.0626
     22 H          -1.1890   -3.7098   -0.5566 H       1  UNL1        0.1083
     23 H           3.0232   -0.9000    1.4720 H       1  UNL1        0.2231
     24 H           4.0823    0.6922   -1.3457 H       1  UNL1        0.2231
@<TRIPOS>BOND
     1     1     2    1
     2     2     3    1
     3     3     4   ar
     4     4     5   ar
     5     5     6   ar
     6     6     7   ar
     7     7     8    1
     8     8     9    2
     9     7    10   ar
    10    10    11    1
    11    11    12    1
    12    12    13    1
    13    12    14    1
    14    12    15    2
    15    10     3   ar
    16     1    16    1
    17     1    17    1
    18     1    18    1
    19     4    19    1
    20     5    20    1
    21     6    21    1
    22     8    22    1
    23    13    23    1
    24    14    24    1
