
     RDKit          3D

 24 24  0  0  0  0  0  0  0  0999 V2000
   -0.2046    3.2168    0.1692 C   0  0  0  0  0  0  0  0  0  0  0  0
    0.0696    1.9171   -0.2682 O   0  0  0  0  0  0  0  0  0  0  0  0
   -0.6894    0.8126    0.0112 C   0  0  0  0  0  0  0  0  0  0  0  0
   -1.8346    0.8850    0.7773 C   0  0  0  0  0  0  0  0  0  0  0  0
   -2.6021   -0.2390    1.0584 C   0  0  0  0  0  0  0  0  0  0  0  0
   -2.1896   -1.4565    0.5465 C   0  0  0  0  0  0  0  0  0  0  0  0
   -1.0412   -1.5043   -0.2167 C   0  0  0  0  0  0  0  0  0  0  0  0
   -0.6327   -2.8008   -0.7417 C   0  0  0  0  0  0  0  0  0  0  0  0
    0.3957   -2.9602   -1.4483 O   0  0  0  0  0  0  0  0  0  0  0  0
   -0.2615   -0.4078   -0.5114 C   0  0  0  0  0  0  0  0  0  0  0  0
    0.8927   -0.4725   -1.2817 O   0  0  0  0  0  0  0  0  0  0  0  0
    2.4540   -0.7416   -0.7053 P   0  0  0  0  0  0  0  0  0  0  0  0
    2.3753   -1.3548    0.8746 O   0  0  0  0  0  0  0  0  0  0  0  0
    3.3509    0.7094   -0.6614 O   0  0  0  0  0  0  0  0  0  0  0  0
    3.2461   -1.7439   -1.5256 O   0  0  0  0  0  0  0  0  0  0  0  0
   -0.7649    3.2839    1.1155 H   0  0  0  0  0  0  0  0  0  0  0  0
   -0.7620    3.7349   -0.6630 H   0  0  0  0  0  0  0  0  0  0  0  0
    0.7339    3.7904    0.3089 H   0  0  0  0  0  0  0  0  0  0  0  0
   -2.1844    1.8208    1.1922 H   0  0  0  0  0  0  0  0  0  0  0  0
   -3.5090   -0.2207    1.6573 H   0  0  0  0  0  0  0  0  0  0  0  0
   -2.7588   -2.3512    0.7428 H   0  0  0  0  0  0  0  0  0  0  0  0
   -1.1890   -3.7098   -0.5566 H   0  0  0  0  0  0  0  0  0  0  0  0
    3.0232   -0.9000    1.4720 H   0  0  0  0  0  0  0  0  0  0  0  0
    4.0823    0.6922   -1.3457 H   0  0  0  0  0  0  0  0  0  0  0  0
  1  2  1  0
  2  3  1  0
  3  4  2  0
  4  5  1  0
  5  6  2  0
  6  7  1  0
  7  8  1  0
  8  9  2  0
  7 10  2  0
 10 11  1  0
 11 12  1  0
 12 13  1  0
 12 14  1  0
 12 15  2  0
 10  3  1  0
  1 16  1  0
  1 17  1  0
  1 18  1  0
  4 19  1  0
  5 20  1  0
  6 21  1  0
  8 22  1  0
 13 23  1  0
 14 24  1  0
M  END
$$$$
