@<TRIPOS>MOLECULE
*****
 38 38 0 0 0
SMALL
GASTEIGER

@<TRIPOS>ATOM
      1 C          -3.9483   -1.8072    1.1929 C.3     1  UNL1       -0.0653
      2 C          -3.0316   -0.8636    0.3342 C.3     1  UNL1       -0.0559
      3 C          -1.6730   -1.4053    0.4536 C.3     1  UNL1       -0.0515
      4 C          -0.5486   -0.8866   -0.3005 C.3     1  UNL1       -0.0299
      5 C          -0.1739    0.5471   -0.1717 C.3     1  UNL1        0.0902
      6 C          -1.1900    1.4725   -0.7071 C.3     1  UNL1        0.0485
      7 C          -0.9027    2.9277   -0.5332 C.2     1  UNL1        0.2373
      8 O           0.0062    3.3163    0.2140 O.2     1  UNL1       -0.2737
      9 N          -1.6593    3.9184   -1.2169 N.am    1  UNL1       -0.1974
     10 O          -1.4390    5.2338   -1.0933 O.3     1  UNL1       -0.2952
     11 S           1.4335    0.7838   -0.9506 S.O2    1  UNL1        0.0002
     12 O           1.2947    0.6029   -2.4253 O.2     1  UNL1       -0.1691
     13 O           1.9584    2.1466   -0.6809 O.2     1  UNL1       -0.1691
     14 C           2.5945   -0.3466   -0.3144 C.ar    1  UNL1        0.0885
     15 C           2.7890   -1.5838   -0.8803 C.ar    1  UNL1       -0.0369
     16 C           3.7077   -2.4890   -0.3837 C.ar    1  UNL1       -0.0600
     17 C           4.4577   -2.1600    0.7070 C.ar    1  UNL1       -0.0616
     18 C           4.2821   -0.9191    1.2974 C.ar    1  UNL1       -0.0600
     19 C           3.3481   -0.0063    0.7877 C.ar    1  UNL1       -0.0369
     20 H          -3.6208   -2.8533    1.0317 H       1  UNL1        0.0230
     21 H          -3.8181   -1.5656    2.2637 H       1  UNL1        0.0230
     22 H          -4.9725   -1.7036    0.8310 H       1  UNL1        0.0230
     23 H          -3.4481   -0.7756   -0.6642 H       1  UNL1        0.0263
     24 H          -3.1759    0.1121    0.8952 H       1  UNL1        0.0263
     25 H          -1.4413   -1.4225    1.5915 H       1  UNL1        0.0266
     26 H          -1.6908   -2.5532    0.2659 H       1  UNL1        0.0266
     27 H          -0.7748   -1.0158   -1.4320 H       1  UNL1        0.0284
     28 H           0.3808   -1.5506   -0.1995 H       1  UNL1        0.0284
     29 H           0.0314    0.7635    0.9185 H       1  UNL1        0.0545
     30 H          -1.2093    1.3685   -1.8797 H       1  UNL1        0.0378
     31 H          -2.2245    1.2589   -0.4711 H       1  UNL1        0.0378
     32 H          -2.4230    3.5777   -1.8439 H       1  UNL1        0.1822
     33 H          -2.2498    5.7100   -0.7946 H       1  UNL1        0.2414
     34 H           2.2025   -1.8454   -1.7361 H       1  UNL1        0.0636
     35 H           3.8435   -3.4543   -0.8439 H       1  UNL1        0.0618
     36 H           5.2002   -2.8487    1.1357 H       1  UNL1        0.0618
     37 H           4.8703   -0.6453    2.1629 H       1  UNL1        0.0618
     38 H           3.2145    0.9615    1.2521 H       1  UNL1        0.0636
@<TRIPOS>BOND
     1     1     2    1
     2     2     3    1
     3     3     4    1
     4     4     5    1
     5     5     6    1
     6     6     7    1
     7     7     8    2
     8     7     9   am
     9     9    10    1
    10     5    11    1
    11    11    12    2
    12    11    13    2
    13    11    14    1
    14    14    15   ar
    15    15    16   ar
    16    16    17   ar
    17    17    18   ar
    18    18    19   ar
    19    19    14   ar
    20     1    20    1
    21     1    21    1
    22     1    22    1
    23     2    23    1
    24     2    24    1
    25     3    25    1
    26     3    26    1
    27     4    27    1
    28     4    28    1
    29     5    29    1
    30     6    30    1
    31     6    31    1
    32     9    32    1
    33    10    33    1
    34    15    34    1
    35    16    35    1
    36    17    36    1
    37    18    37    1
    38    19    38    1
