
     RDKit          3D

 38 38  0  0  0  0  0  0  0  0999 V2000
   -3.9483   -1.8072    1.1929 C   0  0  0  0  0  0  0  0  0  0  0  0
   -3.0316   -0.8636    0.3342 C   0  0  0  0  0  0  0  0  0  0  0  0
   -1.6730   -1.4053    0.4536 C   0  0  0  0  0  0  0  0  0  0  0  0
   -0.5486   -0.8866   -0.3005 C   0  0  0  0  0  0  0  0  0  0  0  0
   -0.1739    0.5471   -0.1717 C   0  0  2  0  0  0  0  0  0  0  0  0
   -1.1900    1.4725   -0.7071 C   0  0  0  0  0  0  0  0  0  0  0  0
   -0.9027    2.9277   -0.5332 C   0  0  0  0  0  0  0  0  0  0  0  0
    0.0062    3.3163    0.2140 O   0  0  0  0  0  0  0  0  0  0  0  0
   -1.6593    3.9184   -1.2169 N   0  0  0  0  0  0  0  0  0  0  0  0
   -1.4390    5.2338   -1.0933 O   0  0  0  0  0  0  0  0  0  0  0  0
    1.4335    0.7838   -0.9506 S   0  0  0  0  0  6  0  0  0  0  0  0
    1.2947    0.6029   -2.4253 O   0  0  0  0  0  0  0  0  0  0  0  0
    1.9584    2.1466   -0.6809 O   0  0  0  0  0  0  0  0  0  0  0  0
    2.5945   -0.3466   -0.3144 C   0  0  0  0  0  0  0  0  0  0  0  0
    2.7890   -1.5838   -0.8803 C   0  0  0  0  0  0  0  0  0  0  0  0
    3.7077   -2.4890   -0.3837 C   0  0  0  0  0  0  0  0  0  0  0  0
    4.4577   -2.1600    0.7070 C   0  0  0  0  0  0  0  0  0  0  0  0
    4.2821   -0.9191    1.2974 C   0  0  0  0  0  0  0  0  0  0  0  0
    3.3481   -0.0063    0.7877 C   0  0  0  0  0  0  0  0  0  0  0  0
   -3.6208   -2.8533    1.0317 H   0  0  0  0  0  0  0  0  0  0  0  0
   -3.8181   -1.5656    2.2637 H   0  0  0  0  0  0  0  0  0  0  0  0
   -4.9725   -1.7036    0.8310 H   0  0  0  0  0  0  0  0  0  0  0  0
   -3.4481   -0.7756   -0.6642 H   0  0  0  0  0  0  0  0  0  0  0  0
   -3.1759    0.1121    0.8952 H   0  0  0  0  0  0  0  0  0  0  0  0
   -1.4413   -1.4225    1.5915 H   0  0  0  0  0  0  0  0  0  0  0  0
   -1.6908   -2.5532    0.2659 H   0  0  0  0  0  0  0  0  0  0  0  0
   -0.7748   -1.0158   -1.4320 H   0  0  0  0  0  0  0  0  0  0  0  0
    0.3808   -1.5506   -0.1995 H   0  0  0  0  0  0  0  0  0  0  0  0
    0.0314    0.7635    0.9185 H   0  0  0  0  0  0  0  0  0  0  0  0
   -1.2093    1.3685   -1.8797 H   0  0  0  0  0  0  0  0  0  0  0  0
   -2.2245    1.2589   -0.4711 H   0  0  0  0  0  0  0  0  0  0  0  0
   -2.4230    3.5777   -1.8439 H   0  0  0  0  0  0  0  0  0  0  0  0
   -2.2498    5.7100   -0.7946 H   0  0  0  0  0  0  0  0  0  0  0  0
    2.2025   -1.8454   -1.7361 H   0  0  0  0  0  0  0  0  0  0  0  0
    3.8435   -3.4543   -0.8439 H   0  0  0  0  0  0  0  0  0  0  0  0
    5.2002   -2.8487    1.1357 H   0  0  0  0  0  0  0  0  0  0  0  0
    4.8703   -0.6453    2.1629 H   0  0  0  0  0  0  0  0  0  0  0  0
    3.2145    0.9615    1.2521 H   0  0  0  0  0  0  0  0  0  0  0  0
  1  2  1  0
  2  3  1  0
  3  4  1  0
  4  5  1  0
  5  6  1  0
  6  7  1  0
  7  8  2  0
  7  9  1  0
  9 10  1  0
  5 11  1  0
 11 12  2  0
 11 13  2  0
 11 14  1  0
 14 15  2  0
 15 16  1  0
 16 17  2  0
 17 18  1  0
 18 19  2  0
 19 14  1  0
  1 20  1  0
  1 21  1  0
  1 22  1  0
  2 23  1  0
  2 24  1  0
  3 25  1  0
  3 26  1  0
  4 27  1  0
  4 28  1  0
  5 29  1  1
  6 30  1  0
  6 31  1  0
  9 32  1  0
 10 33  1  0
 15 34  1  0
 16 35  1  0
 17 36  1  0
 18 37  1  0
 19 38  1  0
M  END
$$$$
