@<TRIPOS>MOLECULE
*****
 67 69 0 0 0
SMALL
GASTEIGER

@<TRIPOS>ATOM
      1 C           0.7801    1.2819    2.9178 C.3     1  UNL1       -0.0467
      2 C           0.2960    2.0776    1.7301 C.3     1  UNL1        0.0192
      3 C           1.2262    3.2510    1.4401 C.3     1  UNL1       -0.0467
      4 N           0.0561    1.2762    0.5732 N.pl3   1  UNL1       -0.3114
      5 C           1.0214    0.4778   -0.1635 C.3     1  UNL1        0.0139
      6 C           1.5562   -0.7059    0.5210 C.3     1  UNL1       -0.0351
      7 C           2.5151   -1.4579   -0.3569 C.3     1  UNL1       -0.0280
      8 C           3.7157   -0.6365   -0.7704 C.3     1  UNL1        0.0483
      9 O           4.3493   -0.2452    0.3741 O.3     1  UNL1       -0.3705
     10 C           5.4750    0.4920    0.1590 C.3     1  UNL1        0.1251
     11 C           6.5580   -0.2827   -0.4501 C.2     1  UNL1        0.2574
     12 O           7.5131    0.5724   -0.5884 O.2     1  UNL1       -0.2717
     13 N           6.9363   -1.5627   -0.9220 N.am    1  UNL1       -0.1883
     14 S           8.4735   -1.9119   -1.6079 S.O2    1  UNL1        0.0424
     15 C           9.5136   -0.4782   -1.6529 C.3     1  UNL1        0.0736
     16 O           8.2437   -2.3402   -3.0319 O.2     1  UNL1       -0.1554
     17 O           9.2012   -2.9627   -0.8196 O.2     1  UNL1       -0.1554
     18 C          -1.2858    1.2200    0.0304 C.ar    1  UNL1        0.1405
     19 N          -2.0550    0.2559    0.5984 N.ar    1  UNL1       -0.2283
     20 C          -3.3339    0.1416    0.1416 C.ar    1  UNL1        0.0990
     21 C          -4.1765   -0.8953    0.7500 C.ar    1  UNL1        0.0025
     22 C          -4.6497   -1.8888   -0.1070 C.ar    1  UNL1       -0.0525
     23 C          -5.4508   -2.9137    0.3599 C.ar    1  UNL1       -0.0611
     24 C          -5.7698   -2.9246    1.7083 C.ar    1  UNL1       -0.0617
     25 C          -5.3127   -1.9518    2.5755 C.ar    1  UNL1       -0.0611
     26 C          -4.5087   -0.9238    2.1043 C.ar    1  UNL1       -0.0525
     27 C          -3.8639    0.9522   -0.8551 C.ar    1  UNL1        0.0970
     28 N          -3.0461    1.8871   -1.3743 N.ar    1  UNL1       -0.2494
     29 C          -1.7698    2.0358   -0.9509 C.ar    1  UNL1        0.0682
     30 C          -5.2461    0.7344   -1.2583 C.ar    1  UNL1        0.0024
     31 C          -5.7706    0.3429   -2.4816 C.ar    1  UNL1       -0.0525
     32 C          -7.1375    0.2086   -2.5974 C.ar    1  UNL1       -0.0611
     33 C          -8.0212    0.4345   -1.5881 C.ar    1  UNL1       -0.0617
     34 C          -7.4958    0.8278   -0.3585 C.ar    1  UNL1       -0.0611
     35 C          -6.1316    0.9738   -0.2012 C.ar    1  UNL1       -0.0525
     36 H           1.8782    1.2798    3.0493 H       1  UNL1        0.0247
     37 H           0.3272    0.2697    2.9160 H       1  UNL1        0.0247
     38 H           0.3987    1.7358    3.8846 H       1  UNL1        0.0247
     39 H          -0.6532    2.5543    2.0555 H       1  UNL1        0.0495
     40 H           0.9753    3.7020    0.4639 H       1  UNL1        0.0247
     41 H           2.3058    2.9553    1.5326 H       1  UNL1        0.0247
     42 H           1.0939    4.0581    2.1966 H       1  UNL1        0.0247
     43 H           0.6764    0.2086   -1.1794 H       1  UNL1        0.0464
     44 H           1.8707    1.2077   -0.3570 H       1  UNL1        0.0464
     45 H           2.0655   -0.5069    1.4861 H       1  UNL1        0.0281
     46 H           0.7113   -1.4095    0.7875 H       1  UNL1        0.0281
     47 H           2.8380   -2.4085    0.1217 H       1  UNL1        0.0288
     48 H           2.0466   -1.7748   -1.3213 H       1  UNL1        0.0288
     49 H           3.3138    0.2954   -1.2779 H       1  UNL1        0.0560
     50 H           4.3229   -1.1666   -1.5114 H       1  UNL1        0.0560
     51 H           5.8408    0.9702    1.1277 H       1  UNL1        0.0657
     52 H           5.1606    1.3474   -0.5290 H       1  UNL1        0.0657
     53 H           6.1585   -2.2160   -0.7622 H       1  UNL1        0.1762
     54 H           9.7514   -0.0896   -0.6364 H       1  UNL1        0.0482
     55 H           9.0729    0.3139   -2.2952 H       1  UNL1        0.0482
     56 H          10.4803   -0.8178   -2.0892 H       1  UNL1        0.0482
     57 H          -4.4223   -1.9183   -1.1730 H       1  UNL1        0.0624
     58 H          -5.8362   -3.7018   -0.2857 H       1  UNL1        0.0618
     59 H          -6.3959   -3.6958    2.1630 H       1  UNL1        0.0618
     60 H          -5.5431   -1.9275    3.6419 H       1  UNL1        0.0618
     61 H          -4.0912   -0.1026    2.6974 H       1  UNL1        0.0624
     62 H          -1.1071    2.7832   -1.3613 H       1  UNL1        0.0865
     63 H          -5.0074    0.1879   -3.2119 H       1  UNL1        0.0624
     64 H          -7.4845   -0.1005   -3.5820 H       1  UNL1        0.0618
     65 H          -9.0872    0.3146   -1.7284 H       1  UNL1        0.0618
     66 H          -8.2105    1.0053    0.4409 H       1  UNL1        0.0618
     67 H          -5.8553    1.2855    0.8021 H       1  UNL1        0.0624
@<TRIPOS>BOND
     1     1     2    1
     2     2     3    1
     3     2     4    1
     4     4     5    1
     5     5     6    1
     6     6     7    1
     7     7     8    1
     8     8     9    1
     9     9    10    1
    10    10    11    1
    11    11    12    2
    12    11    13   am
    13    13    14    1
    14    14    15    1
    15    14    16    2
    16    14    17    2
    17     4    18    1
    18    18    19   ar
    19    19    20   ar
    20    20    21    1
    21    21    22   ar
    22    22    23   ar
    23    23    24   ar
    24    24    25   ar
    25    25    26   ar
    26    20    27   ar
    27    27    28   ar
    28    28    29   ar
    29    27    30    1
    30    30    31   ar
    31    31    32   ar
    32    32    33   ar
    33    33    34   ar
    34    34    35   ar
    35    29    18   ar
    36    35    30   ar
    37    26    21   ar
    38     1    36    1
    39     1    37    1
    40     1    38    1
    41     2    39    1
    42     3    40    1
    43     3    41    1
    44     3    42    1
    45     5    43    1
    46     5    44    1
    47     6    45    1
    48     6    46    1
    49     7    47    1
    50     7    48    1
    51     8    49    1
    52     8    50    1
    53    10    51    1
    54    10    52    1
    55    13    53    1
    56    15    54    1
    57    15    55    1
    58    15    56    1
    59    22    57    1
    60    23    58    1
    61    24    59    1
    62    25    60    1
    63    26    61    1
    64    29    62    1
    65    31    63    1
    66    32    64    1
    67    33    65    1
    68    34    66    1
    69    35    67    1
