@<TRIPOS>MOLECULE
*****
 36 38 0 0 0
SMALL
GASTEIGER

@<TRIPOS>ATOM
      1 C          -5.5761    0.7917   -1.5381 C.3     1  UNL1        0.0790
      2 O          -4.7081   -0.0482   -0.8302 O.3     1  UNL1       -0.4914
      3 C          -3.3451    0.1323   -0.7323 C.ar    1  UNL1        0.1635
      4 C          -2.7318    1.1937   -1.3496 C.ar    1  UNL1        0.0098
      5 C          -1.3508    1.3011   -1.1978 C.ar    1  UNL1        0.0797
      6 N          -0.7342    2.3287   -1.7906 N.ar    1  UNL1       -0.2352
      7 C           0.5828    2.4794   -1.6774 C.ar    1  UNL1        0.1187
      8 N           1.2684    1.5856   -0.9621 N.ar    1  UNL1       -0.2200
      9 C           0.7668    0.5197   -0.3248 C.ar    1  UNL1        0.1340
     10 N           1.5519   -0.3798    0.4228 N.pl3   1  UNL1       -0.2988
     11 C           2.9367   -0.1293    0.6295 C.ar    1  UNL1        0.0334
     12 C           3.5630    1.0831    0.5909 C.ar    1  UNL1       -0.0404
     13 C           4.9479    1.1966    0.8001 C.ar    1  UNL1       -0.0590
     14 C           5.7336    0.0959    1.0533 C.ar    1  UNL1       -0.0476
     15 C           5.1108   -1.1328    1.0953 C.ar    1  UNL1        0.0196
     16 BR          6.1788   -2.6880    1.4498 Br      1  UNL1       -0.0502
     17 C           3.7555   -1.2362    0.8889 C.ar    1  UNL1       -0.0265
     18 C          -0.6097    0.3746   -0.4518 C.ar    1  UNL1        0.0441
     19 C          -1.2605   -0.6611    0.1417 C.ar    1  UNL1       -0.0038
     20 C          -2.6409   -0.7962    0.0090 C.ar    1  UNL1        0.1623
     21 O          -3.2663   -1.8639    0.6285 O.3     1  UNL1       -0.4914
     22 C          -2.4915   -2.7767    1.3679 C.3     1  UNL1        0.0790
     23 H          -6.6349    0.4784   -1.3324 H       1  UNL1        0.0660
     24 H          -5.4172    1.8305   -1.1815 H       1  UNL1        0.0660
     25 H          -5.4594    0.7595   -2.6297 H       1  UNL1        0.0660
     26 H          -3.3020    1.9056   -1.9226 H       1  UNL1        0.0677
     27 H           1.0868    3.3318   -2.1707 H       1  UNL1        0.1048
     28 H           1.1248   -1.2529    0.8352 H       1  UNL1        0.1536
     29 H           2.9849    1.9913    0.4084 H       1  UNL1        0.0636
     30 H           5.3717    2.1807    0.7534 H       1  UNL1        0.0618
     31 H           6.8096    0.1814    1.2160 H       1  UNL1        0.0629
     32 H           3.3077   -2.2042    0.9283 H       1  UNL1        0.0647
     33 H          -0.7254   -1.4039    0.7335 H       1  UNL1        0.0663
     34 H          -1.9519   -2.2998    2.2084 H       1  UNL1        0.0660
     35 H          -1.7569   -3.2709    0.6740 H       1  UNL1        0.0660
     36 H          -3.1190   -3.5975    1.7671 H       1  UNL1        0.0660
@<TRIPOS>BOND
     1     1     2    1
     2     2     3    1
     3     3     4   ar
     4     4     5   ar
     5     5     6   ar
     6     6     7   ar
     7     7     8   ar
     8     8     9   ar
     9     9    10    1
    10    10    11    1
    11    11    12   ar
    12    12    13   ar
    13    13    14   ar
    14    14    15   ar
    15    15    16    1
    16    15    17   ar
    17     9    18   ar
    18    18    19   ar
    19    19    20   ar
    20    20    21    1
    21    21    22    1
    22    20     3   ar
    23    18     5   ar
    24    17    11   ar
    25     1    23    1
    26     1    24    1
    27     1    25    1
    28     4    26    1
    29     7    27    1
    30    10    28    1
    31    12    29    1
    32    13    30    1
    33    14    31    1
    34    17    32    1
    35    19    33    1
    36    22    34    1
    37    22    35    1
    38    22    36    1
