@<TRIPOS>MOLECULE
*****
 67 71 0 0 0
SMALL
GASTEIGER

@<TRIPOS>ATOM
      1 C           1.4861    2.5370   -3.2923 C.3     1  UNL1       -0.0391
      2 C           2.5088    1.8976   -2.4627 C.ar    1  UNL1       -0.0427
      3 C           3.8147    2.3449   -2.5954 C.ar    1  UNL1       -0.0575
      4 C           4.8071    1.7714   -1.8233 C.ar    1  UNL1       -0.0493
      5 C           4.5182    0.7718   -0.9334 C.ar    1  UNL1        0.0376
      6 C           5.5563    0.1439   -0.0816 C.2     1  UNL1        0.2483
      7 O           5.2285   -0.8603    0.6242 O.2     1  UNL1       -0.2699
      8 N           6.8822    0.6066   -0.0177 N.am    1  UNL1       -0.2815
      9 C           7.9304    0.0657    0.7611 C.ar    1  UNL1        0.0342
     10 C           9.1657    0.7239    0.7267 C.ar    1  UNL1       -0.0404
     11 C          10.2564    0.2765    1.4408 C.ar    1  UNL1       -0.0595
     12 C          10.1786   -0.8494    2.2279 C.ar    1  UNL1       -0.0500
     13 C           8.9708   -1.5102    2.2741 C.ar    1  UNL1        0.0566
     14 C           8.8778   -2.7284    3.1163 C.3     1  UNL1        0.4175
     15 F           9.4687   -3.8177    2.4937 F       1  UNL1       -0.1659
     16 F           9.4060   -2.5590    4.3595 F       1  UNL1       -0.1659
     17 F           7.5202   -3.0163    3.2732 F       1  UNL1       -0.1659
     18 C           7.8805   -1.0435    1.5462 C.ar    1  UNL1       -0.0288
     19 C           3.1996    0.3378   -0.8167 C.ar    1  UNL1       -0.0416
     20 C           2.1792    0.8986   -1.5826 C.ar    1  UNL1       -0.0142
     21 C           0.7999    0.4684   -1.4845 C.ar    1  UNL1       -0.0169
     22 C           0.0039    0.1456   -2.5515 C.ar    1  UNL1       -0.0520
     23 C          -1.3102   -0.2368   -2.3714 C.ar    1  UNL1       -0.0350
     24 C          -1.8717   -0.3095   -1.1252 C.ar    1  UNL1        0.0761
     25 N          -3.1452   -0.6708   -0.9248 N.ar    1  UNL1       -0.2145
     26 C          -3.6678   -0.7261    0.3091 C.ar    1  UNL1        0.2157
     27 N          -5.0473   -1.1101    0.4933 N.pl3   1  UNL1       -0.3122
     28 C          -5.8408   -1.4374   -0.6442 C.3     1  UNL1        0.0246
     29 C          -7.2927   -1.5893   -0.3044 C.3     1  UNL1        0.0146
     30 N          -7.9650   -0.4422    0.1646 N.3     1  UNL1       -0.2965
     31 C          -9.3776   -0.8140    0.3400 C.3     1  UNL1        0.0225
     32 C         -10.2352    0.4515    0.2775 C.3     1  UNL1        0.0604
     33 O          -9.3728    1.5238    0.5377 O.3     1  UNL1       -0.3772
     34 C          -8.6763    1.2097    1.7034 C.3     1  UNL1        0.0604
     35 C          -7.5532    0.1953    1.3611 C.3     1  UNL1        0.0225
     36 N          -2.9038   -0.4149    1.3613 N.ar    1  UNL1       -0.2223
     37 C          -1.6255   -0.0461    1.2352 C.ar    1  UNL1        0.0404
     38 C          -1.0763    0.0152   -0.0254 C.ar    1  UNL1        0.0192
     39 C           0.2361    0.3952   -0.2264 C.ar    1  UNL1       -0.0434
     40 H           1.5542    2.1233   -4.3395 H       1  UNL1        0.0278
     41 H           0.4667    2.5160   -2.8977 H       1  UNL1        0.0278
     42 H           1.7404    3.6299   -3.4473 H       1  UNL1        0.0278
     43 H           4.0815    3.1238   -3.2793 H       1  UNL1        0.0621
     44 H           5.8132    2.1467   -1.9596 H       1  UNL1        0.0625
     45 H           7.0724    1.4604   -0.6397 H       1  UNL1        0.1551
     46 H           9.2393    1.6175    0.1061 H       1  UNL1        0.0636
     47 H          11.2058    0.7916    1.4084 H       1  UNL1        0.0618
     48 H          11.0474   -1.2095    2.7999 H       1  UNL1        0.0623
     49 H           6.9863   -1.6233    1.6415 H       1  UNL1        0.0642
     50 H           2.9526   -0.4564   -0.1139 H       1  UNL1        0.0631
     51 H           0.4179    0.1897   -3.5462 H       1  UNL1        0.0624
     52 H          -1.9173   -0.4881   -3.2504 H       1  UNL1        0.0639
     53 H          -5.4094   -1.1563    1.4520 H       1  UNL1        0.1489
     54 H          -5.4725   -2.3573   -1.1677 H       1  UNL1        0.0475
     55 H          -5.7266   -0.6380   -1.4290 H       1  UNL1        0.0475
     56 H          -7.3641   -2.4589    0.4177 H       1  UNL1        0.0442
     57 H          -7.8051   -1.9643   -1.2494 H       1  UNL1        0.0442
     58 H          -9.4926   -1.2904    1.3226 H       1  UNL1        0.0449
     59 H          -9.6815   -1.5332   -0.4356 H       1  UNL1        0.0449
     60 H         -10.7031    0.5307   -0.7230 H       1  UNL1        0.0572
     61 H         -11.0221    0.4394    1.0457 H       1  UNL1        0.0572
     62 H          -9.3538    0.7584    2.4835 H       1  UNL1        0.0572
     63 H          -8.2436    2.1065    2.1651 H       1  UNL1        0.0572
     64 H          -7.4664   -0.5016    2.2464 H       1  UNL1        0.0449
     65 H          -6.6373    0.8043    1.2952 H       1  UNL1        0.0449
     66 H          -1.0354    0.1973    2.0938 H       1  UNL1        0.0837
     67 H           0.8391    0.6433    0.6368 H       1  UNL1        0.0631
@<TRIPOS>BOND
     1     1     2    1
     2     2     3   ar
     3     3     4   ar
     4     4     5   ar
     5     5     6    1
     6     6     7    2
     7     6     8   am
     8     8     9    1
     9     9    10   ar
    10    10    11   ar
    11    11    12   ar
    12    12    13   ar
    13    13    14    1
    14    14    15    1
    15    14    16    1
    16    14    17    1
    17    13    18   ar
    18     5    19   ar
    19    19    20   ar
    20    20    21    1
    21    21    22   ar
    22    22    23   ar
    23    23    24   ar
    24    24    25   ar
    25    25    26   ar
    26    26    27    1
    27    27    28    1
    28    28    29    1
    29    29    30    1
    30    30    31    1
    31    31    32    1
    32    32    33    1
    33    33    34    1
    34    34    35    1
    35    26    36   ar
    36    36    37   ar
    37    37    38   ar
    38    38    39   ar
    39    20     2   ar
    40    39    21   ar
    41    18     9   ar
    42    38    24   ar
    43    35    30    1
    44     1    40    1
    45     1    41    1
    46     1    42    1
    47     3    43    1
    48     4    44    1
    49     8    45    1
    50    10    46    1
    51    11    47    1
    52    12    48    1
    53    18    49    1
    54    19    50    1
    55    22    51    1
    56    23    52    1
    57    27    53    1
    58    28    54    1
    59    28    55    1
    60    29    56    1
    61    29    57    1
    62    31    58    1
    63    31    59    1
    64    32    60    1
    65    32    61    1
    66    34    62    1
    67    34    63    1
    68    35    64    1
    69    35    65    1
    70    37    66    1
    71    39    67    1
