@<TRIPOS>MOLECULE
*****
 42 43 0 0 0
SMALL
GASTEIGER

@<TRIPOS>ATOM
      1 C          -5.7040    1.4162    1.5286 C.3     1  UNL1        0.0124
      2 C          -5.3866    1.0632    0.1260 C.2     1  UNL1        0.2125
      3 O          -5.8803    1.7189   -0.8132 O.2     1  UNL1       -0.2759
      4 N          -4.5227   -0.0175   -0.1815 N.am    1  UNL1       -0.3016
      5 C          -3.9059   -0.8325    0.8680 C.3     1  UNL1        0.0163
      6 C          -2.7954   -1.6343    0.1824 C.3     1  UNL1       -0.0185
      7 C          -1.9775   -0.6644   -0.6054 C.3     1  UNL1        0.0274
      8 N          -0.6340   -1.1229   -0.8686 N.am    1  UNL1       -0.2962
      9 C           0.5311   -0.4625   -0.3925 C.2     1  UNL1        0.3041
     10 O           0.3840    0.5667    0.2881 O.2     1  UNL1       -0.2525
     11 N           1.8431   -0.9384   -0.6683 N.am    1  UNL1       -0.2695
     12 C           3.0195   -0.2987   -0.2057 C.ar    1  UNL1        0.0350
     13 C           3.5465   -0.6612    1.0144 C.ar    1  UNL1       -0.0370
     14 C           4.7060   -0.0464    1.4948 C.ar    1  UNL1       -0.0179
     15 C           5.3406    0.9261    0.7653 C.ar    1  UNL1        0.1301
     16 O           6.4938    1.5071    1.2907 O.3     1  UNL1       -0.4057
     17 C           7.7832    0.9831    1.0376 C.3     1  UNL1        0.5752
     18 F           8.0442    0.9881   -0.3267 F       1  UNL1       -0.1328
     19 F           7.8670   -0.2971    1.5177 F       1  UNL1       -0.1328
     20 F           8.7007    1.7975    1.6749 F       1  UNL1       -0.1328
     21 C           4.8211    1.2954   -0.4560 C.ar    1  UNL1       -0.0179
     22 C           3.6781    0.6791   -0.9137 C.ar    1  UNL1       -0.0370
     23 C          -2.7224   -0.2754   -1.8389 C.3     1  UNL1       -0.0185
     24 C          -4.2070   -0.3695   -1.5514 C.3     1  UNL1        0.0163
     25 H          -4.8420    1.2692    2.2044 H       1  UNL1        0.0323
     26 H          -6.5239    0.7072    1.8455 H       1  UNL1        0.0323
     27 H          -6.1312    2.4205    1.6190 H       1  UNL1        0.0323
     28 H          -3.4141   -0.1882    1.6376 H       1  UNL1        0.0465
     29 H          -4.6454   -1.5061    1.3064 H       1  UNL1        0.0465
     30 H          -2.2249   -2.1712    0.9610 H       1  UNL1        0.0298
     31 H          -3.3010   -2.3290   -0.5158 H       1  UNL1        0.0298
     32 H          -1.8672    0.2674    0.0186 H       1  UNL1        0.0500
     33 H          -0.5151   -1.9874   -1.4404 H       1  UNL1        0.1505
     34 H           1.8850   -1.8226   -1.2557 H       1  UNL1        0.1564
     35 H           3.0784   -1.4254    1.6255 H       1  UNL1        0.0637
     36 H           5.1280   -0.3274    2.4574 H       1  UNL1        0.0655
     37 H           5.3489    2.0662   -1.0035 H       1  UNL1        0.0655
     38 H           3.2874    0.9832   -1.8734 H       1  UNL1        0.0637
     39 H          -2.4201    0.7423   -2.1276 H       1  UNL1        0.0298
     40 H          -2.5150   -0.9864   -2.6813 H       1  UNL1        0.0298
     41 H          -4.6197   -1.3725   -1.7437 H       1  UNL1        0.0465
     42 H          -4.7315    0.3394   -2.2295 H       1  UNL1        0.0465
@<TRIPOS>BOND
     1     1     2    1
     2     2     3    2
     3     2     4   am
     4     4     5    1
     5     5     6    1
     6     6     7    1
     7     7     8    1
     8     8     9   am
     9     9    10    2
    10     9    11   am
    11    11    12    1
    12    12    13   ar
    13    13    14   ar
    14    14    15   ar
    15    15    16    1
    16    16    17    1
    17    17    18    1
    18    17    19    1
    19    17    20    1
    20    15    21   ar
    21    21    22   ar
    22     7    23    1
    23    23    24    1
    24    24     4    1
    25    22    12   ar
    26     1    25    1
    27     1    26    1
    28     1    27    1
    29     5    28    1
    30     5    29    1
    31     6    30    1
    32     6    31    1
    33     7    32    1
    34     8    33    1
    35    11    34    1
    36    13    35    1
    37    14    36    1
    38    21    37    1
    39    22    38    1
    40    23    39    1
    41    23    40    1
    42    24    41    1
    43    24    42    1
