
     RDKit          3D

 42 43  0  0  0  0  0  0  0  0999 V2000
   -5.7040    1.4162    1.5286 C   0  0  0  0  0  0  0  0  0  0  0  0
   -5.3866    1.0632    0.1260 C   0  0  0  0  0  0  0  0  0  0  0  0
   -5.8803    1.7189   -0.8132 O   0  0  0  0  0  0  0  0  0  0  0  0
   -4.5227   -0.0175   -0.1815 N   0  0  0  0  0  0  0  0  0  0  0  0
   -3.9059   -0.8325    0.8680 C   0  0  0  0  0  0  0  0  0  0  0  0
   -2.7954   -1.6343    0.1824 C   0  0  0  0  0  0  0  0  0  0  0  0
   -1.9775   -0.6644   -0.6054 C   0  0  0  0  0  0  0  0  0  0  0  0
   -0.6340   -1.1229   -0.8686 N   0  0  0  0  0  0  0  0  0  0  0  0
    0.5311   -0.4625   -0.3925 C   0  0  0  0  0  0  0  0  0  0  0  0
    0.3840    0.5667    0.2881 O   0  0  0  0  0  0  0  0  0  0  0  0
    1.8431   -0.9384   -0.6683 N   0  0  0  0  0  0  0  0  0  0  0  0
    3.0195   -0.2987   -0.2057 C   0  0  0  0  0  0  0  0  0  0  0  0
    3.5465   -0.6612    1.0144 C   0  0  0  0  0  0  0  0  0  0  0  0
    4.7060   -0.0464    1.4948 C   0  0  0  0  0  0  0  0  0  0  0  0
    5.3406    0.9261    0.7653 C   0  0  0  0  0  0  0  0  0  0  0  0
    6.4938    1.5071    1.2907 O   0  0  0  0  0  0  0  0  0  0  0  0
    7.7832    0.9831    1.0376 C   0  0  0  0  0  0  0  0  0  0  0  0
    8.0442    0.9881   -0.3267 F   0  0  0  0  0  0  0  0  0  0  0  0
    7.8670   -0.2971    1.5177 F   0  0  0  0  0  0  0  0  0  0  0  0
    8.7007    1.7975    1.6749 F   0  0  0  0  0  0  0  0  0  0  0  0
    4.8211    1.2954   -0.4560 C   0  0  0  0  0  0  0  0  0  0  0  0
    3.6781    0.6791   -0.9137 C   0  0  0  0  0  0  0  0  0  0  0  0
   -2.7224   -0.2754   -1.8389 C   0  0  0  0  0  0  0  0  0  0  0  0
   -4.2070   -0.3695   -1.5514 C   0  0  0  0  0  0  0  0  0  0  0  0
   -4.8420    1.2692    2.2044 H   0  0  0  0  0  0  0  0  0  0  0  0
   -6.5239    0.7072    1.8455 H   0  0  0  0  0  0  0  0  0  0  0  0
   -6.1312    2.4205    1.6190 H   0  0  0  0  0  0  0  0  0  0  0  0
   -3.4141   -0.1882    1.6376 H   0  0  0  0  0  0  0  0  0  0  0  0
   -4.6454   -1.5061    1.3064 H   0  0  0  0  0  0  0  0  0  0  0  0
   -2.2249   -2.1712    0.9610 H   0  0  0  0  0  0  0  0  0  0  0  0
   -3.3010   -2.3290   -0.5158 H   0  0  0  0  0  0  0  0  0  0  0  0
   -1.8672    0.2674    0.0186 H   0  0  0  0  0  0  0  0  0  0  0  0
   -0.5151   -1.9874   -1.4404 H   0  0  0  0  0  0  0  0  0  0  0  0
    1.8850   -1.8226   -1.2557 H   0  0  0  0  0  0  0  0  0  0  0  0
    3.0784   -1.4254    1.6255 H   0  0  0  0  0  0  0  0  0  0  0  0
    5.1280   -0.3274    2.4574 H   0  0  0  0  0  0  0  0  0  0  0  0
    5.3489    2.0662   -1.0035 H   0  0  0  0  0  0  0  0  0  0  0  0
    3.2874    0.9832   -1.8734 H   0  0  0  0  0  0  0  0  0  0  0  0
   -2.4201    0.7423   -2.1276 H   0  0  0  0  0  0  0  0  0  0  0  0
   -2.5150   -0.9864   -2.6813 H   0  0  0  0  0  0  0  0  0  0  0  0
   -4.6197   -1.3725   -1.7437 H   0  0  0  0  0  0  0  0  0  0  0  0
   -4.7315    0.3394   -2.2295 H   0  0  0  0  0  0  0  0  0  0  0  0
  1  2  1  0
  2  3  2  0
  2  4  1  0
  4  5  1  0
  5  6  1  0
  6  7  1  0
  7  8  1  0
  8  9  1  0
  9 10  2  0
  9 11  1  0
 11 12  1  0
 12 13  2  0
 13 14  1  0
 14 15  2  0
 15 16  1  0
 16 17  1  0
 17 18  1  0
 17 19  1  0
 17 20  1  0
 15 21  1  0
 21 22  2  0
  7 23  1  0
 23 24  1  0
 24  4  1  0
 22 12  1  0
  1 25  1  0
  1 26  1  0
  1 27  1  0
  5 28  1  0
  5 29  1  0
  6 30  1  0
  6 31  1  0
  7 32  1  0
  8 33  1  0
 11 34  1  0
 13 35  1  0
 14 36  1  0
 21 37  1  0
 22 38  1  0
 23 39  1  0
 23 40  1  0
 24 41  1  0
 24 42  1  0
M  END
$$$$
