
     RDKit          3D

 59 61  0  0  0  0  0  0  0  0999 V2000
    8.9664   -1.6838   -0.7552 C   0  0  0  0  0  0  0  0  0  0  0  0
    8.4125   -0.4414   -0.9689 O   0  0  0  0  0  0  0  0  0  0  0  0
    7.0353   -0.5538   -1.0678 C   0  0  0  0  0  0  0  0  0  0  0  0
    6.4316   -1.1218    0.1894 C   0  0  0  0  0  0  0  0  0  0  0  0
    6.7046   -0.3245    1.4252 C   0  0  0  0  0  0  0  0  0  0  0  0
    6.0402    1.2906    1.2905 S   0  0  0  0  0  6  0  0  0  0  0  0
    6.2703    2.0771    2.5796 O   0  0  0  0  0  0  0  0  0  0  0  0
    6.7384    2.0586    0.2279 O   0  0  0  0  0  0  0  0  0  0  0  0
    4.3246    1.1687    1.0472 C   0  0  0  0  0  0  0  0  0  0  0  0
    3.4787    1.0832    2.1251 C   0  0  0  0  0  0  0  0  0  0  0  0
    2.1158    0.9931    1.9369 C   0  0  0  0  0  0  0  0  0  0  0  0
    1.5482    0.9852    0.6661 C   0  0  0  0  0  0  0  0  0  0  0  0
    0.1043    0.8909    0.4942 C   0  0  0  0  0  0  0  0  0  0  0  0
   -0.6679    0.1800    1.4031 C   0  0  0  0  0  0  0  0  0  0  0  0
   -2.0392    0.0753    1.2748 C   0  0  0  0  0  0  0  0  0  0  0  0
   -2.6973    0.6819    0.2252 C   0  0  0  0  0  0  0  0  0  0  0  0
   -4.1690    0.5999    0.0505 C   0  0  0  0  0  0  0  0  0  0  0  0
   -4.4818   -0.5895   -0.8020 C   0  0  0  0  0  0  0  0  0  0  0  0
   -5.9000   -0.7577   -1.0316 N   0  0  0  0  0  0  0  0  0  0  0  0
   -6.4776    0.2600   -1.8356 C   0  0  0  0  0  0  0  0  0  0  0  0
   -7.4448    0.9827   -0.8756 C   0  0  0  0  0  0  0  0  0  0  0  0
   -7.8725   -0.1352    0.0301 C   0  0  0  0  0  0  0  0  0  0  0  0
   -6.6556   -1.0087    0.1335 C   0  0  1  0  0  0  0  0  0  0  0  0
   -7.0845   -2.4861    0.1367 C   0  0  0  0  0  0  0  0  0  0  0  0
   -1.9370    1.3902   -0.6828 C   0  0  0  0  0  0  0  0  0  0  0  0
   -0.5686    1.4889   -0.5466 C   0  0  0  0  0  0  0  0  0  0  0  0
    2.4191    1.0720   -0.3996 C   0  0  0  0  0  0  0  0  0  0  0  0
    3.8066    1.1638   -0.2172 C   0  0  0  0  0  0  0  0  0  0  0  0
   10.0862   -1.5583   -0.7014 H   0  0  0  0  0  0  0  0  0  0  0  0
    8.7151   -2.3440   -1.5859 H   0  0  0  0  0  0  0  0  0  0  0  0
    8.7053   -2.0931    0.2529 H   0  0  0  0  0  0  0  0  0  0  0  0
    6.7588   -1.2155   -1.9444 H   0  0  0  0  0  0  0  0  0  0  0  0
    6.6467    0.4350   -1.3480 H   0  0  0  0  0  0  0  0  0  0  0  0
    5.3079   -1.1747    0.0885 H   0  0  0  0  0  0  0  0  0  0  0  0
    6.7202   -2.2011    0.3051 H   0  0  0  0  0  0  0  0  0  0  0  0
    6.1429   -0.8438    2.2578 H   0  0  0  0  0  0  0  0  0  0  0  0
    7.7948   -0.3035    1.6720 H   0  0  0  0  0  0  0  0  0  0  0  0
    3.8879    1.0862    3.1248 H   0  0  0  0  0  0  0  0  0  0  0  0
    1.4598    0.9266    2.7883 H   0  0  0  0  0  0  0  0  0  0  0  0
   -0.1285   -0.2861    2.2177 H   0  0  0  0  0  0  0  0  0  0  0  0
   -2.6189   -0.4775    1.9842 H   0  0  0  0  0  0  0  0  0  0  0  0
   -4.5934    0.5487    1.0726 H   0  0  0  0  0  0  0  0  0  0  0  0
   -4.4697    1.5573   -0.4636 H   0  0  0  0  0  0  0  0  0  0  0  0
   -4.0543   -1.4870   -0.3349 H   0  0  0  0  0  0  0  0  0  0  0  0
   -4.0033   -0.4357   -1.7848 H   0  0  0  0  0  0  0  0  0  0  0  0
   -7.1295   -0.2218   -2.5948 H   0  0  0  0  0  0  0  0  0  0  0  0
   -5.8098    1.0270   -2.2219 H   0  0  0  0  0  0  0  0  0  0  0  0
   -6.9231    1.7943   -0.3448 H   0  0  0  0  0  0  0  0  0  0  0  0
   -8.2812    1.4576   -1.4285 H   0  0  0  0  0  0  0  0  0  0  0  0
   -8.6654   -0.7020   -0.5127 H   0  0  0  0  0  0  0  0  0  0  0  0
   -8.2279    0.2236    1.0179 H   0  0  0  0  0  0  0  0  0  0  0  0
   -6.1237   -0.7864    1.0859 H   0  0  0  0  0  0  0  0  0  0  0  0
   -8.0004   -2.5872   -0.4780 H   0  0  0  0  0  0  0  0  0  0  0  0
   -6.2928   -3.0646   -0.3542 H   0  0  0  0  0  0  0  0  0  0  0  0
   -7.2352   -2.8298    1.1748 H   0  0  0  0  0  0  0  0  0  0  0  0
   -2.4593    1.8656   -1.5085 H   0  0  0  0  0  0  0  0  0  0  0  0
   -0.0104    2.0543   -1.2810 H   0  0  0  0  0  0  0  0  0  0  0  0
    1.9810    1.0667   -1.3983 H   0  0  0  0  0  0  0  0  0  0  0  0
    4.4190    1.2296   -1.1030 H   0  0  0  0  0  0  0  0  0  0  0  0
  1  2  1  0
  2  3  1  0
  3  4  1  0
  4  5  1  0
  5  6  1  0
  6  7  2  0
  6  8  2  0
  6  9  1  0
  9 10  2  0
 10 11  1  0
 11 12  2  0
 12 13  1  0
 13 14  2  0
 14 15  1  0
 15 16  2  0
 16 17  1  0
 17 18  1  0
 18 19  1  0
 19 20  1  0
 20 21  1  0
 21 22  1  0
 22 23  1  0
 23 24  1  0
 16 25  1  0
 25 26  2  0
 12 27  1  0
 27 28  2  0
 28  9  1  0
 26 13  1  0
 23 19  1  0
  1 29  1  0
  1 30  1  0
  1 31  1  0
  3 32  1  0
  3 33  1  0
  4 34  1  0
  4 35  1  0
  5 36  1  0
  5 37  1  0
 10 38  1  0
 11 39  1  0
 14 40  1  0
 15 41  1  0
 17 42  1  0
 17 43  1  0
 18 44  1  0
 18 45  1  0
 20 46  1  0
 20 47  1  0
 21 48  1  0
 21 49  1  0
 22 50  1  0
 22 51  1  0
 23 52  1  1
 24 53  1  0
 24 54  1  0
 24 55  1  0
 25 56  1  0
 26 57  1  0
 27 58  1  0
 28 59  1  0
M  END
$$$$
