@<TRIPOS>MOLECULE
*****
 59 61 0 0 0
SMALL
GASTEIGER

@<TRIPOS>ATOM
      1 C           8.9664   -1.6838   -0.7552 C.3     1  UNL1        0.0364
      2 O           8.4125   -0.4414   -0.9689 O.3     1  UNL1       -0.3829
      3 C           7.0353   -0.5538   -1.0678 C.3     1  UNL1        0.0488
      4 C           6.4316   -1.1218    0.1894 C.3     1  UNL1       -0.0097
      5 C           6.7046   -0.3245    1.4252 C.3     1  UNL1        0.0729
      6 S           6.0402    1.2906    1.2905 S.O2    1  UNL1       -0.0030
      7 O           6.2703    2.0771    2.5796 O.2     1  UNL1       -0.1694
      8 O           6.7384    2.0586    0.2279 O.2     1  UNL1       -0.1694
      9 C           4.3246    1.1687    1.0472 C.ar    1  UNL1        0.0882
     10 C           3.4787    1.0832    2.1251 C.ar    1  UNL1       -0.0363
     11 C           2.1158    0.9931    1.9369 C.ar    1  UNL1       -0.0522
     12 C           1.5482    0.9852    0.6661 C.ar    1  UNL1       -0.0178
     13 C           0.1043    0.8909    0.4942 C.ar    1  UNL1       -0.0179
     14 C          -0.6679    0.1800    1.4031 C.ar    1  UNL1       -0.0538
     15 C          -2.0392    0.0753    1.2748 C.ar    1  UNL1       -0.0580
     16 C          -2.6973    0.6819    0.2252 C.ar    1  UNL1       -0.0461
     17 C          -4.1690    0.5999    0.0505 C.3     1  UNL1       -0.0149
     18 C          -4.4818   -0.5895   -0.8020 C.3     1  UNL1        0.0031
     19 N          -5.9000   -0.7577   -1.0316 N.3     1  UNL1       -0.2993
     20 C          -6.4776    0.2600   -1.8356 C.3     1  UNL1       -0.0008
     21 C          -7.4448    0.9827   -0.8756 C.3     1  UNL1       -0.0388
     22 C          -7.8725   -0.1352    0.0301 C.3     1  UNL1       -0.0364
     23 C          -6.6556   -1.0087    0.1335 C.3     1  UNL1        0.0076
     24 C          -7.0845   -2.4861    0.1367 C.3     1  UNL1       -0.0495
     25 C          -1.9370    1.3902   -0.6828 C.ar    1  UNL1       -0.0580
     26 C          -0.5686    1.4889   -0.5466 C.ar    1  UNL1       -0.0538
     27 C           2.4191    1.0720   -0.3996 C.ar    1  UNL1       -0.0522
     28 C           3.8066    1.1638   -0.2172 C.ar    1  UNL1       -0.0363
     29 H          10.0862   -1.5583   -0.7014 H       1  UNL1        0.0523
     30 H           8.7151   -2.3440   -1.5859 H       1  UNL1        0.0523
     31 H           8.7053   -2.0931    0.2529 H       1  UNL1        0.0523
     32 H           6.7588   -1.2155   -1.9444 H       1  UNL1        0.0560
     33 H           6.6467    0.4350   -1.3480 H       1  UNL1        0.0560
     34 H           5.3079   -1.1747    0.0885 H       1  UNL1        0.0303
     35 H           6.7202   -2.2011    0.3051 H       1  UNL1        0.0303
     36 H           6.1429   -0.8438    2.2578 H       1  UNL1        0.0505
     37 H           7.7948   -0.3035    1.6720 H       1  UNL1        0.0505
     38 H           3.8879    1.0862    3.1248 H       1  UNL1        0.0637
     39 H           1.4598    0.9266    2.7883 H       1  UNL1        0.0624
     40 H          -0.1285   -0.2861    2.2177 H       1  UNL1        0.0624
     41 H          -2.6189   -0.4775    1.9842 H       1  UNL1        0.0620
     42 H          -4.5934    0.5487    1.0726 H       1  UNL1        0.0326
     43 H          -4.4697    1.5573   -0.4636 H       1  UNL1        0.0326
     44 H          -4.0543   -1.4870   -0.3349 H       1  UNL1        0.0430
     45 H          -4.0033   -0.4357   -1.7848 H       1  UNL1        0.0430
     46 H          -7.1295   -0.2218   -2.5948 H       1  UNL1        0.0427
     47 H          -5.8098    1.0270   -2.2219 H       1  UNL1        0.0427
     48 H          -6.9231    1.7943   -0.3448 H       1  UNL1        0.0278
     49 H          -8.2812    1.4576   -1.4285 H       1  UNL1        0.0278
     50 H          -8.6654   -0.7020   -0.5127 H       1  UNL1        0.0281
     51 H          -8.2279    0.2236    1.0179 H       1  UNL1        0.0281
     52 H          -6.1237   -0.7864    1.0859 H       1  UNL1        0.0460
     53 H          -8.0004   -2.5872   -0.4780 H       1  UNL1        0.0245
     54 H          -6.2928   -3.0646   -0.3542 H       1  UNL1        0.0245
     55 H          -7.2352   -2.8298    1.1748 H       1  UNL1        0.0245
     56 H          -2.4593    1.8656   -1.5085 H       1  UNL1        0.0620
     57 H          -0.0104    2.0543   -1.2810 H       1  UNL1        0.0624
     58 H           1.9810    1.0667   -1.3983 H       1  UNL1        0.0624
     59 H           4.4190    1.2296   -1.1030 H       1  UNL1        0.0637
@<TRIPOS>BOND
     1     1     2    1
     2     2     3    1
     3     3     4    1
     4     4     5    1
     5     5     6    1
     6     6     7    2
     7     6     8    2
     8     6     9    1
     9     9    10   ar
    10    10    11   ar
    11    11    12   ar
    12    12    13    1
    13    13    14   ar
    14    14    15   ar
    15    15    16   ar
    16    16    17    1
    17    17    18    1
    18    18    19    1
    19    19    20    1
    20    20    21    1
    21    21    22    1
    22    22    23    1
    23    23    24    1
    24    16    25   ar
    25    25    26   ar
    26    12    27   ar
    27    27    28   ar
    28    28     9   ar
    29    26    13   ar
    30    23    19    1
    31     1    29    1
    32     1    30    1
    33     1    31    1
    34     3    32    1
    35     3    33    1
    36     4    34    1
    37     4    35    1
    38     5    36    1
    39     5    37    1
    40    10    38    1
    41    11    39    1
    42    14    40    1
    43    15    41    1
    44    17    42    1
    45    17    43    1
    46    18    44    1
    47    18    45    1
    48    20    46    1
    49    20    47    1
    50    21    48    1
    51    21    49    1
    52    22    50    1
    53    22    51    1
    54    23    52    1
    55    24    53    1
    56    24    54    1
    57    24    55    1
    58    25    56    1
    59    26    57    1
    60    27    58    1
    61    28    59    1
