
     RDKit          3D

 23 24  0  0  0  0  0  0  0  0999 V2000
   -3.4785   -1.2927   -0.2654 N   0  0  0  0  0  0  0  0  0  0  0  0
   -3.1067    0.3096    0.3025 S   0  0  0  0  0  0  0  0  0  0  0  0
   -3.5608    0.4058    1.7475 O   0  0  0  0  0  0  0  0  0  0  0  0
   -3.7218    1.3564   -0.5563 O   0  0  0  0  0  0  0  0  0  0  0  0
   -1.3609    0.4563    0.2495 C   0  0  0  0  0  0  0  0  0  0  0  0
   -0.7363    1.6443    0.6492 C   0  0  0  0  0  0  0  0  0  0  0  0
   -1.7051    2.9996    1.2084 Cl  0  0  0  0  0  0  0  0  0  0  0  0
    0.6419    1.7687    0.6105 C   0  0  0  0  0  0  0  0  0  0  0  0
    1.4420    0.7274    0.1774 C   0  0  0  0  0  0  0  0  0  0  0  0
    2.8489    0.9112    0.1589 N   0  0  0  0  0  0  0  0  0  0  0  0
    3.7380   -0.0959   -0.2671 C   0  0  0  0  0  0  0  0  0  0  0  0
    3.4890   -1.2993   -0.6955 N   0  0  0  0  0  0  0  0  0  0  0  0
    1.8435   -1.7865   -0.7741 S   0  0  0  0  0  0  0  0  0  0  0  0
    1.4941   -2.2278   -2.1429 O   0  0  0  0  0  0  0  0  0  0  0  0
    1.7025   -2.9852    0.1413 O   0  0  0  0  0  0  0  0  0  0  0  0
    0.8396   -0.4488   -0.2193 C   0  0  0  0  0  0  0  0  0  0  0  0
   -0.5177   -0.5655   -0.1790 C   0  0  0  0  0  0  0  0  0  0  0  0
   -4.0795   -1.8206    0.3953 H   0  0  0  0  0  0  0  0  0  0  0  0
   -3.8500   -1.2706   -1.2210 H   0  0  0  0  0  0  0  0  0  0  0  0
    1.0650    2.7290    0.9386 H   0  0  0  0  0  0  0  0  0  0  0  0
    3.2387    1.8249    0.4718 H   0  0  0  0  0  0  0  0  0  0  0  0
    4.8109    0.1262   -0.2510 H   0  0  0  0  0  0  0  0  0  0  0  0
   -1.0368   -1.4666   -0.4794 H   0  0  0  0  0  0  0  0  0  0  0  0
  1  2  1  0
  2  3  2  0
  2  4  2  0
  2  5  1  0
  5  6  2  0
  6  7  1  0
  6  8  1  0
  8  9  2  0
  9 10  1  0
 10 11  1  0
 11 12  2  0
 12 13  1  0
 13 14  2  0
 13 15  2  0
 13 16  1  0
 16 17  2  0
 17  5  1  0
 16  9  1  0
  1 18  1  0
  1 19  1  0
  8 20  1  0
 10 21  1  0
 11 22  1  0
 17 23  1  0
M  END
$$$$
