@<TRIPOS>MOLECULE
*****
 62 65 0 0 0
SMALL
GASTEIGER

@<TRIPOS>ATOM
      1 C          -6.8175   -1.9665    0.3944 C.3     1  UNL1       -0.0358
      2 C          -6.2617   -0.9687   -0.5508 C.ar    1  UNL1        0.0016
      3 C          -5.3363   -1.2338   -1.5460 C.ar    1  UNL1        0.1464
      4 C          -4.7183   -2.5314   -1.8780 C.3     1  UNL1        0.1472
      5 O          -3.7790   -2.8876   -0.9351 O.3     1  UNL1       -0.4843
      6 C          -2.6113   -2.3292   -0.5238 C.ar    1  UNL1        0.1212
      7 C          -1.9399   -3.0094    0.4998 C.ar    1  UNL1       -0.0193
      8 C          -0.7656   -2.5664    1.0046 C.ar    1  UNL1       -0.0506
      9 C          -0.2118   -1.4174    0.5028 C.ar    1  UNL1       -0.0177
     10 C           1.0701   -0.9274    1.0491 C.ar    1  UNL1       -0.0178
     11 C           2.0302   -1.7957    1.5209 C.ar    1  UNL1       -0.0522
     12 C           3.2313   -1.2980    2.0298 C.ar    1  UNL1       -0.0348
     13 C           3.4973    0.0616    2.0785 C.ar    1  UNL1        0.1053
     14 S           4.9950    0.6448    2.7251 S.O2    1  UNL1        0.0591
     15 O           4.8034    2.0271    3.2915 O.2     1  UNL1       -0.1530
     16 O           5.5077   -0.2824    3.8146 O.2     1  UNL1       -0.1530
     17 N           6.1840    0.6385    1.4833 N.3     1  UNL1       -0.1759
     18 C           5.8449    1.5012    0.3739 C.3     1  UNL1        0.1276
     19 C           6.8563    2.6016    0.2449 C.2     1  UNL1        0.3238
     20 O           6.7725    3.4755   -0.6414 O.2     1  UNL1       -0.2492
     21 O           7.9181    2.6566    1.1319 O.3     1  UNL1       -0.4795
     22 C           5.8387    0.7278   -0.9199 C.3     1  UNL1       -0.0194
     23 C           4.8598   -0.3983   -0.9427 C.3     1  UNL1       -0.0607
     24 C           5.5530    1.6491   -2.0776 C.3     1  UNL1       -0.0607
     25 C           2.5355    0.9219    1.6066 C.ar    1  UNL1       -0.0348
     26 C           1.3471    0.4230    1.1034 C.ar    1  UNL1       -0.0522
     27 C          -0.8566   -0.7410   -0.4987 C.ar    1  UNL1       -0.0506
     28 C          -2.0508   -1.1783   -1.0229 C.ar    1  UNL1       -0.0193
     29 O          -5.1199   -0.1037   -2.1372 O.2     1  UNL1       -0.4560
     30 C          -5.8094    0.8755   -1.6307 C.ar    1  UNL1        0.1356
     31 C          -5.8633    2.2070   -1.9684 C.ar    1  UNL1       -0.0187
     32 C          -6.6913    3.0920   -1.2724 C.ar    1  UNL1       -0.0582
     33 C          -7.4304    2.5462   -0.2496 C.ar    1  UNL1       -0.0610
     34 C          -7.3822    1.2064    0.0972 C.ar    1  UNL1       -0.0507
     35 C          -6.5556    0.3571   -0.6080 C.ar    1  UNL1        0.0234
     36 H          -6.0302   -2.5762    0.8472 H       1  UNL1        0.0279
     37 H          -7.5230   -2.6003   -0.1541 H       1  UNL1        0.0279
     38 H          -7.3751   -1.4384    1.1900 H       1  UNL1        0.0279
     39 H          -4.2171   -2.4960   -2.8750 H       1  UNL1        0.0779
     40 H          -5.5559   -3.2709   -1.8962 H       1  UNL1        0.0779
     41 H          -2.3533   -3.9277    0.9229 H       1  UNL1        0.0654
     42 H          -0.2382   -3.0835    1.7951 H       1  UNL1        0.0625
     43 H           1.8216   -2.8582    1.4829 H       1  UNL1        0.0624
     44 H           3.9437   -2.0289    2.3835 H       1  UNL1        0.0637
     45 H           6.2657   -0.3326    1.1181 H       1  UNL1        0.1489
     46 H           4.8580    1.9878    0.5518 H       1  UNL1        0.0595
     47 H           8.5109    3.4932    1.1913 H       1  UNL1        0.2951
     48 H           6.8494    0.2973   -1.0993 H       1  UNL1        0.0316
     49 H           5.0411   -1.2114   -0.2376 H       1  UNL1        0.0233
     50 H           3.8058   -0.0524   -0.7997 H       1  UNL1        0.0233
     51 H           4.8624   -0.8078   -1.9897 H       1  UNL1        0.0233
     52 H           6.4990    2.0905   -2.4908 H       1  UNL1        0.0233
     53 H           5.0418    1.0381   -2.8785 H       1  UNL1        0.0233
     54 H           4.8444    2.4231   -1.7605 H       1  UNL1        0.0233
     55 H           2.7449    1.9831    1.6491 H       1  UNL1        0.0637
     56 H           0.6023    1.1070    0.7377 H       1  UNL1        0.0624
     57 H          -0.4307    0.1754   -0.9101 H       1  UNL1        0.0625
     58 H          -2.5435   -0.6200   -1.8378 H       1  UNL1        0.0654
     59 H          -5.2665    2.5800   -2.7738 H       1  UNL1        0.0654
     60 H          -6.7499    4.1377   -1.5185 H       1  UNL1        0.0619
     61 H          -8.0850    3.2262    0.3060 H       1  UNL1        0.0618
     62 H          -7.9666    0.7874    0.9036 H       1  UNL1        0.0625
@<TRIPOS>BOND
     1     1     2    1
     2     2     3   ar
     3     3     4    1
     4     4     5    1
     5     5     6    1
     6     6     7   ar
     7     7     8   ar
     8     8     9   ar
     9     9    10    1
    10    10    11   ar
    11    11    12   ar
    12    12    13   ar
    13    13    14    1
    14    14    15    2
    15    14    16    2
    16    14    17    1
    17    17    18    1
    18    18    19    1
    19    19    20    2
    20    19    21    1
    21    18    22    1
    22    22    23    1
    23    22    24    1
    24    13    25   ar
    25    25    26   ar
    26     9    27   ar
    27    27    28   ar
    28     3    29   ar
    29    29    30   ar
    30    30    31   ar
    31    31    32   ar
    32    32    33   ar
    33    33    34   ar
    34    34    35   ar
    35    35     2   ar
    36    28     6   ar
    37    35    30   ar
    38    26    10   ar
    39     1    36    1
    40     1    37    1
    41     1    38    1
    42     4    39    1
    43     4    40    1
    44     7    41    1
    45     8    42    1
    46    11    43    1
    47    12    44    1
    48    17    45    1
    49    18    46    1
    50    21    47    1
    51    22    48    1
    52    23    49    1
    53    23    50    1
    54    23    51    1
    55    24    52    1
    56    24    53    1
    57    24    54    1
    58    25    55    1
    59    26    56    1
    60    27    57    1
    61    28    58    1
    62    31    59    1
    63    32    60    1
    64    33    61    1
    65    34    62    1
