
     RDKit          3D

 62 65  0  0  0  0  0  0  0  0999 V2000
   -6.8175   -1.9665    0.3944 C   0  0  0  0  0  0  0  0  0  0  0  0
   -6.2617   -0.9687   -0.5508 C   0  0  0  0  0  0  0  0  0  0  0  0
   -5.3363   -1.2338   -1.5460 C   0  0  0  0  0  0  0  0  0  0  0  0
   -4.7183   -2.5314   -1.8780 C   0  0  0  0  0  0  0  0  0  0  0  0
   -3.7790   -2.8876   -0.9351 O   0  0  0  0  0  0  0  0  0  0  0  0
   -2.6113   -2.3292   -0.5238 C   0  0  0  0  0  0  0  0  0  0  0  0
   -1.9399   -3.0094    0.4998 C   0  0  0  0  0  0  0  0  0  0  0  0
   -0.7656   -2.5664    1.0046 C   0  0  0  0  0  0  0  0  0  0  0  0
   -0.2118   -1.4174    0.5028 C   0  0  0  0  0  0  0  0  0  0  0  0
    1.0701   -0.9274    1.0491 C   0  0  0  0  0  0  0  0  0  0  0  0
    2.0302   -1.7957    1.5209 C   0  0  0  0  0  0  0  0  0  0  0  0
    3.2313   -1.2980    2.0298 C   0  0  0  0  0  0  0  0  0  0  0  0
    3.4973    0.0616    2.0785 C   0  0  0  0  0  0  0  0  0  0  0  0
    4.9950    0.6448    2.7251 S   0  0  0  0  0  6  0  0  0  0  0  0
    4.8034    2.0271    3.2915 O   0  0  0  0  0  0  0  0  0  0  0  0
    5.5077   -0.2824    3.8146 O   0  0  0  0  0  0  0  0  0  0  0  0
    6.1840    0.6385    1.4833 N   0  0  0  0  0  0  0  0  0  0  0  0
    5.8449    1.5012    0.3739 C   0  0  1  0  0  0  0  0  0  0  0  0
    6.8563    2.6016    0.2449 C   0  0  0  0  0  0  0  0  0  0  0  0
    6.7725    3.4755   -0.6414 O   0  0  0  0  0  0  0  0  0  0  0  0
    7.9181    2.6566    1.1319 O   0  0  0  0  0  0  0  0  0  0  0  0
    5.8387    0.7278   -0.9199 C   0  0  0  0  0  0  0  0  0  0  0  0
    4.8598   -0.3983   -0.9427 C   0  0  0  0  0  0  0  0  0  0  0  0
    5.5530    1.6491   -2.0776 C   0  0  0  0  0  0  0  0  0  0  0  0
    2.5355    0.9219    1.6066 C   0  0  0  0  0  0  0  0  0  0  0  0
    1.3471    0.4230    1.1034 C   0  0  0  0  0  0  0  0  0  0  0  0
   -0.8566   -0.7410   -0.4987 C   0  0  0  0  0  0  0  0  0  0  0  0
   -2.0508   -1.1783   -1.0229 C   0  0  0  0  0  0  0  0  0  0  0  0
   -5.1199   -0.1037   -2.1372 O   0  0  0  0  0  0  0  0  0  0  0  0
   -5.8094    0.8755   -1.6307 C   0  0  0  0  0  0  0  0  0  0  0  0
   -5.8633    2.2070   -1.9684 C   0  0  0  0  0  0  0  0  0  0  0  0
   -6.6913    3.0920   -1.2724 C   0  0  0  0  0  0  0  0  0  0  0  0
   -7.4304    2.5462   -0.2496 C   0  0  0  0  0  0  0  0  0  0  0  0
   -7.3822    1.2064    0.0972 C   0  0  0  0  0  0  0  0  0  0  0  0
   -6.5556    0.3571   -0.6080 C   0  0  0  0  0  0  0  0  0  0  0  0
   -6.0302   -2.5762    0.8472 H   0  0  0  0  0  0  0  0  0  0  0  0
   -7.5230   -2.6003   -0.1541 H   0  0  0  0  0  0  0  0  0  0  0  0
   -7.3751   -1.4384    1.1900 H   0  0  0  0  0  0  0  0  0  0  0  0
   -4.2171   -2.4960   -2.8750 H   0  0  0  0  0  0  0  0  0  0  0  0
   -5.5559   -3.2709   -1.8962 H   0  0  0  0  0  0  0  0  0  0  0  0
   -2.3533   -3.9277    0.9229 H   0  0  0  0  0  0  0  0  0  0  0  0
   -0.2382   -3.0835    1.7951 H   0  0  0  0  0  0  0  0  0  0  0  0
    1.8216   -2.8582    1.4829 H   0  0  0  0  0  0  0  0  0  0  0  0
    3.9437   -2.0289    2.3835 H   0  0  0  0  0  0  0  0  0  0  0  0
    6.2657   -0.3326    1.1181 H   0  0  0  0  0  0  0  0  0  0  0  0
    4.8580    1.9878    0.5518 H   0  0  0  0  0  0  0  0  0  0  0  0
    8.5109    3.4932    1.1913 H   0  0  0  0  0  0  0  0  0  0  0  0
    6.8494    0.2973   -1.0993 H   0  0  0  0  0  0  0  0  0  0  0  0
    5.0411   -1.2114   -0.2376 H   0  0  0  0  0  0  0  0  0  0  0  0
    3.8058   -0.0524   -0.7997 H   0  0  0  0  0  0  0  0  0  0  0  0
    4.8624   -0.8078   -1.9897 H   0  0  0  0  0  0  0  0  0  0  0  0
    6.4990    2.0905   -2.4908 H   0  0  0  0  0  0  0  0  0  0  0  0
    5.0418    1.0381   -2.8785 H   0  0  0  0  0  0  0  0  0  0  0  0
    4.8444    2.4231   -1.7605 H   0  0  0  0  0  0  0  0  0  0  0  0
    2.7449    1.9831    1.6491 H   0  0  0  0  0  0  0  0  0  0  0  0
    0.6023    1.1070    0.7377 H   0  0  0  0  0  0  0  0  0  0  0  0
   -0.4307    0.1754   -0.9101 H   0  0  0  0  0  0  0  0  0  0  0  0
   -2.5435   -0.6200   -1.8378 H   0  0  0  0  0  0  0  0  0  0  0  0
   -5.2665    2.5800   -2.7738 H   0  0  0  0  0  0  0  0  0  0  0  0
   -6.7499    4.1377   -1.5185 H   0  0  0  0  0  0  0  0  0  0  0  0
   -8.0850    3.2262    0.3060 H   0  0  0  0  0  0  0  0  0  0  0  0
   -7.9666    0.7874    0.9036 H   0  0  0  0  0  0  0  0  0  0  0  0
  1  2  1  0
  2  3  2  0
  3  4  1  0
  4  5  1  0
  5  6  1  0
  6  7  2  0
  7  8  1  0
  8  9  2  0
  9 10  1  0
 10 11  2  0
 11 12  1  0
 12 13  2  0
 13 14  1  0
 14 15  2  0
 14 16  2  0
 14 17  1  0
 17 18  1  0
 18 19  1  0
 19 20  2  0
 19 21  1  0
 18 22  1  0
 22 23  1  0
 22 24  1  0
 13 25  1  0
 25 26  2  0
  9 27  1  0
 27 28  2  0
  3 29  1  0
 29 30  1  0
 30 31  2  0
 31 32  1  0
 32 33  2  0
 33 34  1  0
 34 35  2  0
 35  2  1  0
 28  6  1  0
 35 30  1  0
 26 10  1  0
  1 36  1  0
  1 37  1  0
  1 38  1  0
  4 39  1  0
  4 40  1  0
  7 41  1  0
  8 42  1  0
 11 43  1  0
 12 44  1  0
 17 45  1  0
 18 46  1  1
 21 47  1  0
 22 48  1  0
 23 49  1  0
 23 50  1  0
 23 51  1  0
 24 52  1  0
 24 53  1  0
 24 54  1  0
 25 55  1  0
 26 56  1  0
 27 57  1  0
 28 58  1  0
 31 59  1  0
 32 60  1  0
 33 61  1  0
 34 62  1  0
M  END
$$$$
