@<TRIPOS>MOLECULE
*****
 45 48 0 0 0
SMALL
GASTEIGER

@<TRIPOS>ATOM
      1 C           6.9154   -2.3301    0.3506 C.3     1  UNL1       -0.0334
      2 C           5.4917   -1.8910    0.2268 C.ar    1  UNL1       -0.0126
      3 C           4.3298   -2.6341    0.1524 C.ar    1  UNL1       -0.0512
      4 C           3.1806   -1.9541    0.0463 C.ar    1  UNL1       -0.0452
      5 C           3.1889   -0.6268    0.0165 C.ar    1  UNL1        0.0380
      6 C           2.0876    0.3588   -0.0928 C.ar    1  UNL1        0.0835
      7 C           2.3850    1.7041   -0.1002 C.ar    1  UNL1       -0.0072
      8 C           1.3784    2.6445   -0.2010 C.ar    1  UNL1        0.0999
      9 N           1.3951    3.9704   -0.2301 N.ar    1  UNL1       -0.1712
     10 N           0.1442    4.3865   -0.3382 N.ar    1  UNL1       -0.2732
     11 C          -0.2253    5.7864   -0.3994 C.3     1  UNL1        0.0302
     12 C          -0.6943    3.3375   -0.3802 C.ar    1  UNL1        0.0380
     13 C           0.0675    2.1760   -0.2936 C.ar    1  UNL1        0.0812
     14 C          -0.2166    0.8266   -0.2850 C.ar    1  UNL1        0.2265
     15 O          -1.5332    0.4003   -0.3790 O.3     1  UNL1       -0.4725
     16 C          -1.9316   -0.9338   -0.3798 C.3     1  UNL1        0.1037
     17 C          -2.7382   -1.2665   -1.6316 C.3     1  UNL1       -0.0274
     18 C          -2.8295   -1.1569    0.8333 C.3     1  UNL1        0.0196
     19 C          -4.0226   -0.2516    0.7280 C.3     1  UNL1        0.0182
     20 N          -5.1744   -1.1064    0.6721 N.am    1  UNL1       -0.3149
     21 C          -4.7995   -2.4776    0.5653 C.2     1  UNL1        0.2135
     22 O          -5.5297   -3.4505    0.3000 O.2     1  UNL1       -0.2758
     23 C          -3.3372   -2.5762    0.8307 C.3     1  UNL1        0.0315
     24 N           0.8134   -0.0412   -0.1840 N.ar    1  UNL1       -0.2117
     25 S           4.8995   -0.2270    0.1420 S.2     1  UNL1       -0.0919
     26 H           6.9599   -3.2603    0.9790 H       1  UNL1        0.0283
     27 H           7.3756   -2.4550   -0.6277 H       1  UNL1        0.0283
     28 H           7.5156   -1.5487    0.8990 H       1  UNL1        0.0283
     29 H           4.4307   -3.7400    0.1857 H       1  UNL1        0.0626
     30 H           2.2018   -2.4978   -0.0183 H       1  UNL1        0.0630
     31 H           3.4291    1.9722   -0.0241 H       1  UNL1        0.0661
     32 H          -0.4951    6.0254   -1.4486 H       1  UNL1        0.0473
     33 H           0.5892    6.4351   -0.0754 H       1  UNL1        0.0473
     34 H          -1.0755    5.9368    0.2985 H       1  UNL1        0.0473
     35 H          -1.7808    3.3323   -0.4657 H       1  UNL1        0.0834
     36 H          -1.0881   -1.6366   -0.2972 H       1  UNL1        0.0734
     37 H          -3.8173   -1.2057   -1.4699 H       1  UNL1        0.0265
     38 H          -2.5090   -2.3257   -1.9145 H       1  UNL1        0.0265
     39 H          -2.4660   -0.6063   -2.4771 H       1  UNL1        0.0265
     40 H          -2.2190   -0.9330    1.7422 H       1  UNL1        0.0356
     41 H          -4.1245    0.4338    1.6010 H       1  UNL1        0.0466
     42 H          -3.9944    0.3750   -0.1917 H       1  UNL1        0.0466
     43 H          -6.1547   -0.7951    0.7032 H       1  UNL1        0.1487
     44 H          -2.8317   -3.1855    0.0511 H       1  UNL1        0.0363
     45 H          -3.1907   -2.9884    1.8476 H       1  UNL1        0.0363
@<TRIPOS>BOND
     1     1     2    1
     2     2     3   ar
     3     3     4   ar
     4     4     5   ar
     5     5     6    1
     6     6     7   ar
     7     7     8   ar
     8     8     9   ar
     9     9    10   ar
    10    10    11    1
    11    10    12   ar
    12    12    13   ar
    13    13    14   ar
    14    14    15    1
    15    15    16    1
    16    16    17    1
    17    16    18    1
    18    18    19    1
    19    19    20    1
    20    20    21   am
    21    21    22    2
    22    21    23    1
    23    14    24   ar
    24     5    25   ar
    25    25     2   ar
    26    24     6   ar
    27    13     8   ar
    28    23    18    1
    29     1    26    1
    30     1    27    1
    31     1    28    1
    32     3    29    1
    33     4    30    1
    34     7    31    1
    35    11    32    1
    36    11    33    1
    37    11    34    1
    38    12    35    1
    39    16    36    1
    40    17    37    1
    41    17    38    1
    42    17    39    1
    43    18    40    1
    44    19    41    1
    45    19    42    1
    46    20    43    1
    47    23    44    1
    48    23    45    1
