@<TRIPOS>MOLECULE
*****
 48 50 0 0 0
SMALL
GASTEIGER

@<TRIPOS>ATOM
      1 N          -5.9398    0.1682    1.7476 N.pl3   1  UNL1       -0.3565
      2 C          -6.6027   -0.3122    0.5873 C.ar    1  UNL1        0.0461
      3 C          -7.9889   -0.2643    0.5830 C.ar    1  UNL1       -0.0392
      4 C          -8.6414   -0.7254   -0.5318 C.ar    1  UNL1       -0.0599
      5 C          -7.9623   -1.2329   -1.6435 C.ar    1  UNL1       -0.0599
      6 C          -6.5785   -1.2547   -1.5795 C.ar    1  UNL1       -0.0387
      7 C          -5.8902   -0.8017   -0.4802 C.ar    1  UNL1        0.0545
      8 N          -4.4485   -0.8478   -0.4673 N.am    1  UNL1       -0.2800
      9 C          -3.7659    0.2788   -0.9600 C.2     1  UNL1        0.2483
     10 O          -4.4308    1.2816   -1.3923 O.2     1  UNL1       -0.2699
     11 C          -2.3173    0.3202   -0.9851 C.ar    1  UNL1        0.0370
     12 C          -1.6514    1.4473   -1.4779 C.ar    1  UNL1       -0.0493
     13 C          -0.2817    1.5169   -1.5149 C.ar    1  UNL1       -0.0564
     14 C           0.4934    0.4674   -1.0629 C.ar    1  UNL1       -0.0302
     15 C           1.9498    0.5439   -1.1033 C.3     1  UNL1        0.0400
     16 N           2.5405    1.0947    0.0778 N.am    1  UNL1       -0.2770
     17 C           3.9705    1.2135    0.1389 C.2     1  UNL1        0.4008
     18 O           4.6920    0.8431   -0.8218 O.2     1  UNL1       -0.2265
     19 O           4.6114    1.7339    1.2426 O.3     1  UNL1       -0.4456
     20 C           5.9711    1.9096    1.4473 C.3     1  UNL1        0.1205
     21 C           6.7950    0.6883    1.4040 C.ar    1  UNL1        0.0078
     22 C           7.4452    0.2192    0.2883 C.ar    1  UNL1       -0.0525
     23 C           8.2005   -0.9464    0.3077 C.ar    1  UNL1       -0.0432
     24 C           8.3154   -1.6713    1.4728 C.ar    1  UNL1        0.0276
     25 N           7.6784   -1.2102    2.5642 N.ar    1  UNL1       -0.2629
     26 C           6.9433   -0.0839    2.5619 C.ar    1  UNL1        0.0339
     27 C          -0.1690   -0.6378   -0.5796 C.ar    1  UNL1       -0.0564
     28 C          -1.5609   -0.7304   -0.5325 C.ar    1  UNL1       -0.0493
     29 H          -5.9871    1.1676    2.0601 H       1  UNL1        0.1424
     30 H          -5.3727   -0.4831    2.3339 H       1  UNL1        0.1424
     31 H          -8.5796    0.1124    1.4011 H       1  UNL1        0.0636
     32 H          -9.7326   -0.7237   -0.6180 H       1  UNL1        0.0618
     33 H          -8.4941   -1.5906   -2.5106 H       1  UNL1        0.0618
     34 H          -6.0482   -1.6452   -2.4343 H       1  UNL1        0.0637
     35 H          -3.9708   -1.7135   -0.0935 H       1  UNL1        0.1552
     36 H          -2.2611    2.2619   -1.8288 H       1  UNL1        0.0625
     37 H           0.2001    2.4083   -1.9045 H       1  UNL1        0.0621
     38 H           2.2304    1.2138   -1.9557 H       1  UNL1        0.0513
     39 H           2.3764   -0.4687   -1.2577 H       1  UNL1        0.0513
     40 H           1.9647    1.4085    0.8864 H       1  UNL1        0.1523
     41 H           6.0915    2.4139    2.4539 H       1  UNL1        0.0750
     42 H           6.4192    2.6744    0.7434 H       1  UNL1        0.0750
     43 H           7.3863    0.7606   -0.6370 H       1  UNL1        0.0622
     44 H           8.7170   -1.3263   -0.5645 H       1  UNL1        0.0633
     45 H           8.9039   -2.5966    1.5243 H       1  UNL1        0.0829
     46 H           6.4462    0.2573    3.4533 H       1  UNL1        0.0833
     47 H           0.3661   -1.5101   -0.2033 H       1  UNL1        0.0621
     48 H          -2.0325   -1.6302   -0.1394 H       1  UNL1        0.0625
@<TRIPOS>BOND
     1     1     2    1
     2     2     3   ar
     3     3     4   ar
     4     4     5   ar
     5     5     6   ar
     6     6     7   ar
     7     7     8    1
     8     8     9   am
     9     9    10    2
    10     9    11    1
    11    11    12   ar
    12    12    13   ar
    13    13    14   ar
    14    14    15    1
    15    15    16    1
    16    16    17   am
    17    17    18    2
    18    17    19    1
    19    19    20    1
    20    20    21    1
    21    21    22   ar
    22    22    23   ar
    23    23    24   ar
    24    24    25   ar
    25    25    26   ar
    26    14    27   ar
    27    27    28   ar
    28     7     2   ar
    29    28    11   ar
    30    26    21   ar
    31     1    29    1
    32     1    30    1
    33     3    31    1
    34     4    32    1
    35     5    33    1
    36     6    34    1
    37     8    35    1
    38    12    36    1
    39    13    37    1
    40    15    38    1
    41    15    39    1
    42    16    40    1
    43    20    41    1
    44    20    42    1
    45    22    43    1
    46    23    44    1
    47    24    45    1
    48    26    46    1
    49    27    47    1
    50    28    48    1
