@<TRIPOS>MOLECULE
*****
 41 43 0 0 0
SMALL
GASTEIGER

@<TRIPOS>ATOM
      1 N          -5.6790   -0.3794    2.9448 N.pl3   1  UNL1       -0.3413
      2 C          -4.6707   -0.9122    2.0949 C.ar    1  UNL1        0.1472
      3 N          -4.4635   -2.2435    2.2785 N.ar    1  UNL1       -0.2188
      4 C          -3.5103   -2.8293    1.4990 C.ar    1  UNL1        0.1205
      5 N          -2.8000   -2.1402    0.5882 N.ar    1  UNL1       -0.2159
      6 C          -2.9795   -0.8260    0.3819 C.ar    1  UNL1        0.1674
      7 C          -3.9411   -0.2320    1.1673 C.ar    1  UNL1        0.1473
      8 N          -3.9960    1.0491    0.8465 N.ar    1  UNL1       -0.2306
      9 C          -3.0867    1.2606   -0.1228 C.ar    1  UNL1        0.1004
     10 N          -2.4477    0.1319   -0.4296 N.ar    1  UNL1       -0.2855
     11 C          -1.4012   -0.2246   -1.3694 C.3     1  UNL1        0.1667
     12 O          -0.1933   -0.5287   -0.7374 O.3     1  UNL1       -0.3456
     13 C           0.7270    0.4163   -1.0963 C.3     1  UNL1        0.1134
     14 C           1.7517    0.7013   -0.0316 C.3     1  UNL1        0.0879
     15 O           2.4269   -0.4770    0.2356 O.3     1  UNL1       -0.2828
     16 P           3.6132   -0.3050    1.4175 P.3     1  UNL1        0.4985
     17 O           4.5252    1.0974    1.2311 O.3     1  UNL1       -0.3013
     18 O           3.0714   -0.3303    2.8107 O.2     1  UNL1       -0.2255
     19 O           4.6563   -1.6518    1.2553 O.3     1  UNL1       -0.1086
     20 S           5.9752   -1.3146    0.3020 S.O2    1  UNL1        0.2164
     21 O           6.6171    0.2181    0.6385 O.3     1  UNL1       -0.2307
     22 O           7.0074   -2.3842    0.5528 O.2     1  UNL1       -0.1176
     23 O           5.6455   -1.3971   -1.1650 O.2     1  UNL1       -0.1176
     24 C          -0.0792    1.6580   -1.4521 C.3     1  UNL1        0.1135
     25 O           0.6646    2.5523   -2.2050 O.3     1  UNL1       -0.3864
     26 C          -1.1167    0.9323   -2.2897 C.3     1  UNL1        0.1285
     27 O          -0.3968    0.4510   -3.4057 O.3     1  UNL1       -0.3847
     28 H          -6.7039   -0.4790    2.7287 H       1  UNL1        0.1438
     29 H          -5.8230    0.1474    3.8256 H       1  UNL1        0.1438
     30 H          -3.3444   -3.9031    1.6483 H       1  UNL1        0.1048
     31 H          -2.8548    2.1820   -0.6244 H       1  UNL1        0.1030
     32 H          -1.6949   -1.1426   -1.9557 H       1  UNL1        0.0866
     33 H           1.2020    0.0921   -2.0455 H       1  UNL1        0.0647
     34 H           2.3932    1.5593   -0.2760 H       1  UNL1        0.0592
     35 H           1.2055    0.9616    0.9105 H       1  UNL1        0.0592
     36 H           4.5745    1.3799    0.2660 H       1  UNL1        0.2221
     37 H           7.1643    0.4976   -0.1593 H       1  UNL1        0.2470
     38 H          -0.4595    2.0743   -0.5191 H       1  UNL1        0.0647
     39 H           0.8393    3.3457   -1.6139 H       1  UNL1        0.2100
     40 H          -1.9682    1.5264   -2.5583 H       1  UNL1        0.0665
     41 H          -0.4499   -0.5340   -3.4362 H       1  UNL1        0.2101
@<TRIPOS>BOND
     1     1     2    1
     2     2     3   ar
     3     3     4   ar
     4     4     5   ar
     5     5     6   ar
     6     6     7   ar
     7     7     8   ar
     8     8     9   ar
     9     9    10   ar
    10    10    11    1
    11    11    12    1
    12    12    13    1
    13    13    14    1
    14    14    15    1
    15    15    16    1
    16    16    17    1
    17    16    18    2
    18    16    19    1
    19    19    20    1
    20    20    21    1
    21    20    22    2
    22    20    23    2
    23    13    24    1
    24    24    25    1
    25    24    26    1
    26    26    27    1
    27     7     2   ar
    28    26    11    1
    29    10     6   ar
    30     1    28    1
    31     1    29    1
    32     4    30    1
    33     9    31    1
    34    11    32    1
    35    13    33    1
    36    14    34    1
    37    14    35    1
    38    17    36    1
    39    21    37    1
    40    24    38    1
    41    25    39    1
    42    26    40    1
    43    27    41    1
