@<TRIPOS>MOLECULE
*****
 65 70 0 0 0
SMALL
GASTEIGER

@<TRIPOS>ATOM
      1 O          -0.8945   -0.8011   -2.2691 O.2     1  UNL1       -0.2701
      2 C          -0.7274    0.0352   -1.3739 C.2     1  UNL1        0.2475
      3 N          -1.8157    0.4531   -0.5630 N.am    1  UNL1       -0.3079
      4 C          -3.1166   -0.1247   -0.8130 C.3     1  UNL1        0.0292
      5 C          -3.6383   -0.8117    0.4262 C.3     1  UNL1       -0.0195
      6 C          -3.7892    0.1724    1.5664 C.3     1  UNL1       -0.0455
      7 C          -4.6875    1.2859    1.1192 C.3     1  UNL1       -0.0378
      8 C          -4.2172    1.9626   -0.1546 C.3     1  UNL1       -0.0455
      9 C          -4.0821    0.9399   -1.2321 C.3     1  UNL1       -0.0195
     10 C          -5.4147    0.2800   -1.5500 C.3     1  UNL1       -0.0195
     11 C          -5.9281   -0.3263   -0.2742 C.3     1  UNL1        0.0670
     12 O          -7.1954   -0.8891   -0.4724 O.3     1  UNL1       -0.3885
     13 C          -6.0543    0.7097    0.8094 C.3     1  UNL1       -0.0211
     14 C          -4.9771   -1.4232    0.1531 C.3     1  UNL1       -0.0195
     15 C           0.5858    0.6146   -1.1242 C.ar    1  UNL1        0.0764
     16 C           0.8205    1.9799   -1.2315 C.ar    1  UNL1        0.0450
     17 N           2.0152    2.5415   -1.0031 N.ar    1  UNL1       -0.2222
     18 C           3.0755    1.7578   -0.6448 C.ar    1  UNL1        0.2156
     19 N           4.3164    2.4175   -0.4248 N.pl3   1  UNL1       -0.3105
     20 C           5.4728    1.6481   -0.0272 C.3     1  UNL1        0.0275
     21 C           5.2065    1.0479    1.3231 C.3     1  UNL1       -0.0109
     22 C           6.2040   -0.0264    1.6963 C.3     1  UNL1        0.0493
     23 O           7.1218   -0.2477    0.6799 O.3     1  UNL1       -0.3796
     24 C           6.4950   -0.5835   -0.5066 C.3     1  UNL1        0.0493
     25 C           5.8068    0.6144   -1.0844 C.3     1  UNL1       -0.0109
     26 N           2.8541    0.4609   -0.5426 N.ar    1  UNL1       -0.2184
     27 C           1.6763   -0.1439   -0.7617 C.ar    1  UNL1        0.0615
     28 C           1.5782   -1.5877   -0.6172 C.3     1  UNL1        0.0023
     29 C           1.1764   -2.1629    0.7077 C.3     1  UNL1       -0.0447
     30 C           2.0883   -3.3507    0.3541 C.3     1  UNL1       -0.0519
     31 C           2.9208   -2.3010   -0.3993 C.3     1  UNL1       -0.0447
     32 H          -1.7005    1.1560    0.2023 H       1  UNL1        0.1493
     33 H          -3.0705   -0.8882   -1.6216 H       1  UNL1        0.0504
     34 H          -2.9355   -1.6341    0.6754 H       1  UNL1        0.0320
     35 H          -2.7974    0.5835    1.8757 H       1  UNL1        0.0271
     36 H          -4.2900   -0.3479    2.3963 H       1  UNL1        0.0271
     37 H          -4.7734    2.0326    1.9541 H       1  UNL1        0.0302
     38 H          -3.2355    2.4422    0.0102 H       1  UNL1        0.0271
     39 H          -5.0112    2.7165   -0.3883 H       1  UNL1        0.0271
     40 H          -3.7256    1.4478   -2.1615 H       1  UNL1        0.0320
     41 H          -5.1991   -0.5382   -2.2691 H       1  UNL1        0.0296
     42 H          -6.0829    1.0260   -1.9914 H       1  UNL1        0.0296
     43 H          -7.5201   -0.5671   -1.3421 H       1  UNL1        0.2102
     44 H          -6.4512    0.2449    1.7301 H       1  UNL1        0.0296
     45 H          -6.7267    1.5089    0.4813 H       1  UNL1        0.0296
     46 H          -5.3720   -1.8724    1.1066 H       1  UNL1        0.0296
     47 H          -4.9574   -2.2172   -0.5917 H       1  UNL1        0.0296
     48 H          -0.0490    2.5877   -1.5208 H       1  UNL1        0.0839
     49 H           4.4214    3.4538   -0.5420 H       1  UNL1        0.1492
     50 H           6.3684    2.3266    0.0433 H       1  UNL1        0.0500
     51 H           4.1684    0.6955    1.3677 H       1  UNL1        0.0305
     52 H           5.2560    1.9017    2.0577 H       1  UNL1        0.0305
     53 H           6.7800    0.3405    2.5691 H       1  UNL1        0.0560
     54 H           5.6396   -0.9403    1.9839 H       1  UNL1        0.0560
     55 H           7.2652   -0.9320   -1.2384 H       1  UNL1        0.0560
     56 H           5.8001   -1.4566   -0.3879 H       1  UNL1        0.0560
     57 H           4.9275    0.2967   -1.6765 H       1  UNL1        0.0305
     58 H           6.4823    1.1084   -1.8442 H       1  UNL1        0.0305
     59 H           1.0489   -2.1426   -1.4345 H       1  UNL1        0.0364
     60 H           0.1185   -2.5270    0.7347 H       1  UNL1        0.0272
     61 H           1.5678   -1.6929    1.6115 H       1  UNL1        0.0272
     62 H           2.5878   -3.8109    1.2038 H       1  UNL1        0.0266
     63 H           1.6141   -4.0018   -0.3901 H       1  UNL1        0.0266
     64 H           3.5516   -1.7886    0.3705 H       1  UNL1        0.0272
     65 H           3.4241   -2.6527   -1.2969 H       1  UNL1        0.0272
@<TRIPOS>BOND
     1     1     2    2
     2     2     3   am
     3     3     4    1
     4     4     5    1
     5     5     6    1
     6     6     7    1
     7     7     8    1
     8     8     9    1
     9     9    10    1
    10    10    11    1
    11    11    12    1
    12    11    13    1
    13    11    14    1
    14     2    15    1
    15    15    16   ar
    16    16    17   ar
    17    17    18   ar
    18    18    19    1
    19    19    20    1
    20    20    21    1
    21    21    22    1
    22    22    23    1
    23    23    24    1
    24    24    25    1
    25    18    26   ar
    26    26    27   ar
    27    27    28    1
    28    28    29    1
    29    29    30    1
    30    30    31    1
    31     9     4    1
    32    27    15   ar
    33    31    28    1
    34    14     5    1
    35    25    20    1
    36    13     7    1
    37     3    32    1
    38     4    33    1
    39     5    34    1
    40     6    35    1
    41     6    36    1
    42     7    37    1
    43     8    38    1
    44     8    39    1
    45     9    40    1
    46    10    41    1
    47    10    42    1
    48    12    43    1
    49    13    44    1
    50    13    45    1
    51    14    46    1
    52    14    47    1
    53    16    48    1
    54    19    49    1
    55    20    50    1
    56    21    51    1
    57    21    52    1
    58    22    53    1
    59    22    54    1
    60    24    55    1
    61    24    56    1
    62    25    57    1
    63    25    58    1
    64    28    59    1
    65    29    60    1
    66    29    61    1
    67    30    62    1
    68    30    63    1
    69    31    64    1
    70    31    65    1
