
     RDKit          3D

 65 70  0  0  0  0  0  0  0  0999 V2000
   -0.8945   -0.8011   -2.2691 O   0  0  0  0  0  0  0  0  0  0  0  0
   -0.7274    0.0352   -1.3739 C   0  0  0  0  0  0  0  0  0  0  0  0
   -1.8157    0.4531   -0.5630 N   0  0  0  0  0  0  0  0  0  0  0  0
   -3.1166   -0.1247   -0.8130 C   0  0  1  0  0  0  0  0  0  0  0  0
   -3.6383   -0.8117    0.4262 C   0  0  0  0  0  0  0  0  0  0  0  0
   -3.7892    0.1724    1.5664 C   0  0  0  0  0  0  0  0  0  0  0  0
   -4.6875    1.2859    1.1192 C   0  0  0  0  0  0  0  0  0  0  0  0
   -4.2172    1.9626   -0.1546 C   0  0  0  0  0  0  0  0  0  0  0  0
   -4.0821    0.9399   -1.2321 C   0  0  0  0  0  0  0  0  0  0  0  0
   -5.4147    0.2800   -1.5500 C   0  0  0  0  0  0  0  0  0  0  0  0
   -5.9281   -0.3263   -0.2742 C   0  0  2  0  0  0  0  0  0  0  0  0
   -7.1954   -0.8891   -0.4724 O   0  0  0  0  0  0  0  0  0  0  0  0
   -6.0543    0.7097    0.8094 C   0  0  0  0  0  0  0  0  0  0  0  0
   -4.9771   -1.4232    0.1531 C   0  0  0  0  0  0  0  0  0  0  0  0
    0.5858    0.6146   -1.1242 C   0  0  0  0  0  0  0  0  0  0  0  0
    0.8205    1.9799   -1.2315 C   0  0  0  0  0  0  0  0  0  0  0  0
    2.0152    2.5415   -1.0031 N   0  0  0  0  0  0  0  0  0  0  0  0
    3.0755    1.7578   -0.6448 C   0  0  0  0  0  0  0  0  0  0  0  0
    4.3164    2.4175   -0.4248 N   0  0  0  0  0  0  0  0  0  0  0  0
    5.4728    1.6481   -0.0272 C   0  0  0  0  0  0  0  0  0  0  0  0
    5.2065    1.0479    1.3231 C   0  0  0  0  0  0  0  0  0  0  0  0
    6.2040   -0.0264    1.6963 C   0  0  0  0  0  0  0  0  0  0  0  0
    7.1218   -0.2477    0.6799 O   0  0  0  0  0  0  0  0  0  0  0  0
    6.4950   -0.5835   -0.5066 C   0  0  0  0  0  0  0  0  0  0  0  0
    5.8068    0.6144   -1.0844 C   0  0  0  0  0  0  0  0  0  0  0  0
    2.8541    0.4609   -0.5426 N   0  0  0  0  0  0  0  0  0  0  0  0
    1.6763   -0.1439   -0.7617 C   0  0  0  0  0  0  0  0  0  0  0  0
    1.5782   -1.5877   -0.6172 C   0  0  0  0  0  0  0  0  0  0  0  0
    1.1764   -2.1629    0.7077 C   0  0  0  0  0  0  0  0  0  0  0  0
    2.0883   -3.3507    0.3541 C   0  0  0  0  0  0  0  0  0  0  0  0
    2.9208   -2.3010   -0.3993 C   0  0  0  0  0  0  0  0  0  0  0  0
   -1.7005    1.1560    0.2023 H   0  0  0  0  0  0  0  0  0  0  0  0
   -3.0705   -0.8882   -1.6216 H   0  0  0  0  0  0  0  0  0  0  0  0
   -2.9355   -1.6341    0.6754 H   0  0  0  0  0  0  0  0  0  0  0  0
   -2.7974    0.5835    1.8757 H   0  0  0  0  0  0  0  0  0  0  0  0
   -4.2900   -0.3479    2.3963 H   0  0  0  0  0  0  0  0  0  0  0  0
   -4.7734    2.0326    1.9541 H   0  0  0  0  0  0  0  0  0  0  0  0
   -3.2355    2.4422    0.0102 H   0  0  0  0  0  0  0  0  0  0  0  0
   -5.0112    2.7165   -0.3883 H   0  0  0  0  0  0  0  0  0  0  0  0
   -3.7256    1.4478   -2.1615 H   0  0  0  0  0  0  0  0  0  0  0  0
   -5.1991   -0.5382   -2.2691 H   0  0  0  0  0  0  0  0  0  0  0  0
   -6.0829    1.0260   -1.9914 H   0  0  0  0  0  0  0  0  0  0  0  0
   -7.5201   -0.5671   -1.3421 H   0  0  0  0  0  0  0  0  0  0  0  0
   -6.4512    0.2449    1.7301 H   0  0  0  0  0  0  0  0  0  0  0  0
   -6.7267    1.5089    0.4813 H   0  0  0  0  0  0  0  0  0  0  0  0
   -5.3720   -1.8724    1.1066 H   0  0  0  0  0  0  0  0  0  0  0  0
   -4.9574   -2.2172   -0.5917 H   0  0  0  0  0  0  0  0  0  0  0  0
   -0.0490    2.5877   -1.5208 H   0  0  0  0  0  0  0  0  0  0  0  0
    4.4214    3.4538   -0.5420 H   0  0  0  0  0  0  0  0  0  0  0  0
    6.3684    2.3266    0.0433 H   0  0  0  0  0  0  0  0  0  0  0  0
    4.1684    0.6955    1.3677 H   0  0  0  0  0  0  0  0  0  0  0  0
    5.2560    1.9017    2.0577 H   0  0  0  0  0  0  0  0  0  0  0  0
    6.7800    0.3405    2.5691 H   0  0  0  0  0  0  0  0  0  0  0  0
    5.6396   -0.9403    1.9839 H   0  0  0  0  0  0  0  0  0  0  0  0
    7.2652   -0.9320   -1.2384 H   0  0  0  0  0  0  0  0  0  0  0  0
    5.8001   -1.4566   -0.3879 H   0  0  0  0  0  0  0  0  0  0  0  0
    4.9275    0.2967   -1.6765 H   0  0  0  0  0  0  0  0  0  0  0  0
    6.4823    1.1084   -1.8442 H   0  0  0  0  0  0  0  0  0  0  0  0
    1.0489   -2.1426   -1.4345 H   0  0  0  0  0  0  0  0  0  0  0  0
    0.1185   -2.5270    0.7347 H   0  0  0  0  0  0  0  0  0  0  0  0
    1.5678   -1.6929    1.6115 H   0  0  0  0  0  0  0  0  0  0  0  0
    2.5878   -3.8109    1.2038 H   0  0  0  0  0  0  0  0  0  0  0  0
    1.6141   -4.0018   -0.3901 H   0  0  0  0  0  0  0  0  0  0  0  0
    3.5516   -1.7886    0.3705 H   0  0  0  0  0  0  0  0  0  0  0  0
    3.4241   -2.6527   -1.2969 H   0  0  0  0  0  0  0  0  0  0  0  0
  1  2  2  0
  2  3  1  0
  3  4  1  0
  4  5  1  0
  5  6  1  0
  6  7  1  0
  7  8  1  0
  8  9  1  0
  9 10  1  0
 10 11  1  0
 11 12  1  6
 11 13  1  0
 11 14  1  0
  2 15  1  0
 15 16  2  0
 16 17  1  0
 17 18  2  0
 18 19  1  0
 19 20  1  0
 20 21  1  0
 21 22  1  0
 22 23  1  0
 23 24  1  0
 24 25  1  0
 18 26  1  0
 26 27  2  0
 27 28  1  0
 28 29  1  0
 29 30  1  0
 30 31  1  0
  9  4  1  0
 27 15  1  0
 31 28  1  0
 14  5  1  0
 25 20  1  0
 13  7  1  0
  3 32  1  0
  4 33  1  6
  5 34  1  0
  6 35  1  0
  6 36  1  0
  7 37  1  0
  8 38  1  0
  8 39  1  0
  9 40  1  0
 10 41  1  0
 10 42  1  0
 12 43  1  0
 13 44  1  0
 13 45  1  0
 14 46  1  0
 14 47  1  0
 16 48  1  0
 19 49  1  0
 20 50  1  0
 21 51  1  0
 21 52  1  0
 22 53  1  0
 22 54  1  0
 24 55  1  0
 24 56  1  0
 25 57  1  0
 25 58  1  0
 28 59  1  0
 29 60  1  0
 29 61  1  0
 30 62  1  0
 30 63  1  0
 31 64  1  0
 31 65  1  0
M  END
$$$$
