@<TRIPOS>MOLECULE
*****
 70 74 0 0 0
SMALL
GASTEIGER

@<TRIPOS>ATOM
      1 C          -7.5626   -3.6836   -1.5400 C.3     1  UNL1       -0.0223
      2 C          -6.8789   -2.6495   -0.6834 C.ar    1  UNL1        0.0393
      3 C          -5.6348   -2.8863   -0.1464 C.ar    1  UNL1       -0.0337
      4 C          -5.0648   -1.8958    0.6294 C.ar    1  UNL1        0.0004
      5 C          -3.6868   -2.1781    1.1974 C.3     1  UNL1        0.1153
      6 O          -2.7397   -1.6054    0.5237 O.3     1  UNL1       -0.4874
      7 C          -1.8835   -0.8839   -0.1015 C.ar    1  UNL1        0.1211
      8 C          -0.7909   -1.4846   -0.7809 C.ar    1  UNL1       -0.0181
      9 C           0.1345   -0.7577   -1.4521 C.ar    1  UNL1       -0.0334
     10 C           0.0295    0.6162   -1.4888 C.ar    1  UNL1        0.0885
     11 S           1.1502    1.6192   -2.3064 S.O2    1  UNL1       -0.0012
     12 O           2.0312    0.6643   -3.1653 O.2     1  UNL1       -0.1693
     13 O           0.4113    2.4090   -3.4113 O.2     1  UNL1       -0.1693
     14 C           2.2268    2.6394   -1.4626 C.3     1  UNL1        0.0920
     15 C           3.2719    2.2394   -0.5279 C.3     1  UNL1        0.0751
     16 C           3.0855    1.5881    0.7715 C.3     1  UNL1       -0.0182
     17 C           2.4288    0.2704    0.9041 C.3     1  UNL1       -0.0435
     18 C           3.1350   -0.7938    0.0890 C.3     1  UNL1        0.0017
     19 C           4.5762   -0.9216    0.5531 C.3     1  UNL1        0.1702
     20 C           5.2667    0.3509    0.8651 C.3     1  UNL1        0.0017
     21 C           4.4927    1.4566    1.4600 C.3     1  UNL1       -0.0435
     22 O           5.2700   -1.5507   -0.5012 O.3     1  UNL1       -0.3463
     23 C           6.3648   -2.1691    0.0947 C.3     1  UNL1        0.0744
     24 C           5.8307   -2.5374    1.4547 C.3     1  UNL1        0.0744
     25 O           4.6663   -1.8051    1.6270 O.3     1  UNL1       -0.3463
     26 N           4.2591    3.3514   -0.3855 N.am    1  UNL1       -0.1815
     27 O           5.4595    3.2238   -0.9118 O.3     1  UNL1       -0.2924
     28 C           3.8550    4.4951    0.3083 C.2     1  UNL1        0.2253
     29 O           2.7054    4.6396    0.8194 O.2     1  UNL1       -0.2772
     30 C          -1.0348    1.2492   -0.8307 C.ar    1  UNL1       -0.0334
     31 C          -1.9550    0.5019   -0.1615 C.ar    1  UNL1       -0.0181
     32 C          -5.7296   -0.7239    0.8470 C.ar    1  UNL1        0.0068
     33 C          -5.1757    0.2642    1.6215 C.ar    1  UNL1       -0.0522
     34 C          -5.8755    1.4208    1.8206 C.ar    1  UNL1       -0.0611
     35 C          -7.1251    1.6218    1.2634 C.ar    1  UNL1       -0.0597
     36 C          -7.6488    0.6189    0.4977 C.ar    1  UNL1       -0.0357
     37 C          -6.9798   -0.5629    0.2703 C.ar    1  UNL1        0.0716
     38 N          -7.5481   -1.5022   -0.4804 N.ar    1  UNL1       -0.2519
     39 H          -8.5870   -3.8538   -1.1626 H       1  UNL1        0.0292
     40 H          -7.6485   -3.2771   -2.5627 H       1  UNL1        0.0292
     41 H          -6.9501   -4.6056   -1.5359 H       1  UNL1        0.0292
     42 H          -5.1601   -3.8336   -0.3546 H       1  UNL1        0.0639
     43 H          -3.5520   -3.3091    1.2211 H       1  UNL1        0.0748
     44 H          -3.6989   -1.8281    2.2807 H       1  UNL1        0.0748
     45 H          -0.6908   -2.5693   -0.7636 H       1  UNL1        0.0655
     46 H           0.9467   -1.2274   -1.9554 H       1  UNL1        0.0638
     47 H           1.5585    3.3991   -0.8487 H       1  UNL1        0.0523
     48 H           2.6922    3.4027   -2.2230 H       1  UNL1        0.0523
     49 H           3.8751    1.4241   -1.1392 H       1  UNL1        0.0544
     50 H           2.5556    2.3017    1.4685 H       1  UNL1        0.0320
     51 H           2.5399   -0.0962    2.0058 H       1  UNL1        0.0270
     52 H           1.3786    0.2882    0.7624 H       1  UNL1        0.0270
     53 H           2.6402   -1.7587    0.3136 H       1  UNL1        0.0317
     54 H           3.1013   -0.6313   -0.9846 H       1  UNL1        0.0317
     55 H           5.8941    0.6727   -0.0223 H       1  UNL1        0.0317
     56 H           6.0710    0.0900    1.6234 H       1  UNL1        0.0317
     57 H           4.2883    1.2939    2.5240 H       1  UNL1        0.0270
     58 H           4.9684    2.4212    1.3146 H       1  UNL1        0.0270
     59 H           7.1976   -1.4387    0.1537 H       1  UNL1        0.0584
     60 H           6.7238   -3.0422   -0.4656 H       1  UNL1        0.0584
     61 H           6.6200   -2.2460    2.1989 H       1  UNL1        0.0584
     62 H           5.6801   -3.6292    1.5799 H       1  UNL1        0.0584
     63 H           5.4105    3.0626   -1.9045 H       1  UNL1        0.2417
     64 H           4.5492    5.3197    0.4287 H       1  UNL1        0.1274
     65 H          -1.1233    2.3337   -0.8560 H       1  UNL1        0.0638
     66 H          -2.7634    1.0523    0.3344 H       1  UNL1        0.0655
     67 H          -4.1948    0.1199    2.0640 H       1  UNL1        0.0624
     68 H          -5.4262    2.1994    2.4376 H       1  UNL1        0.0618
     69 H          -7.6032    2.5627    1.4732 H       1  UNL1        0.0618
     70 H          -8.6296    0.7539    0.0492 H       1  UNL1        0.0639
@<TRIPOS>BOND
     1     1     2    1
     2     2     3   ar
     3     3     4   ar
     4     4     5    1
     5     5     6    1
     6     6     7    1
     7     7     8   ar
     8     8     9   ar
     9     9    10   ar
    10    10    11    1
    11    11    12    2
    12    11    13    2
    13    11    14    1
    14    14    15    1
    15    15    16    1
    16    16    17    1
    17    17    18    1
    18    18    19    1
    19    19    20    1
    20    20    21    1
    21    19    22    1
    22    22    23    1
    23    23    24    1
    24    24    25    1
    25    15    26    1
    26    26    27    1
    27    26    28   am
    28    28    29    2
    29    10    30   ar
    30    30    31   ar
    31     4    32   ar
    32    32    33   ar
    33    33    34   ar
    34    34    35   ar
    35    35    36   ar
    36    36    37   ar
    37    37    38   ar
    38    38     2   ar
    39    31     7   ar
    40    37    32   ar
    41    21    16    1
    42    25    19    1
    43     1    39    1
    44     1    40    1
    45     1    41    1
    46     3    42    1
    47     5    43    1
    48     5    44    1
    49     8    45    1
    50     9    46    1
    51    14    47    1
    52    14    48    1
    53    15    49    1
    54    16    50    1
    55    17    51    1
    56    17    52    1
    57    18    53    1
    58    18    54    1
    59    20    55    1
    60    20    56    1
    61    21    57    1
    62    21    58    1
    63    23    59    1
    64    23    60    1
    65    24    61    1
    66    24    62    1
    67    27    63    1
    68    28    64    1
    69    30    65    1
    70    31    66    1
    71    33    67    1
    72    34    68    1
    73    35    69    1
    74    36    70    1
