@<TRIPOS>MOLECULE
*****
 53 55 0 0 0
SMALL
GASTEIGER

@<TRIPOS>ATOM
      1 C           7.9611    4.9703    2.2792 C.3     1  UNL1       -0.0025
      2 C           7.8393    3.4365    1.9436 C.1     1  UNL1       -0.1022
      3 C           7.7703    2.4620    1.7146 C.1     1  UNL1       -0.0617
      4 C           7.6381    0.9645    1.3689 C.3     1  UNL1        0.1499
      5 O           6.3519    0.7185    0.9285 O.3     1  UNL1       -0.4780
      6 C           5.3014    0.6496    0.3084 C.ar    1  UNL1        0.1399
      7 C           4.6593    0.8669   -0.8027 C.ar    1  UNL1       -0.0162
      8 C           3.3080    0.6269   -1.1327 C.ar    1  UNL1       -0.0277
      9 C           2.5351    0.0984   -0.1482 C.ar    1  UNL1        0.1259
     10 C           1.1926   -0.4766   -0.4442 C.2     1  UNL1        0.2666
     11 O           0.3912    0.0657   -1.2079 O.2     1  UNL1       -0.2682
     12 N           0.7601   -1.7579    0.1432 N.am    1  UNL1       -0.2802
     13 C          -0.5385   -2.2190   -0.3937 C.ar    1  UNL1        0.0369
     14 C          -0.3903   -3.2657   -1.3737 C.ar    1  UNL1       -0.0023
     15 C          -1.4426   -3.5471   -2.2668 C.ar    1  UNL1        0.1605
     16 F          -1.2884   -4.5306   -3.1583 F       1  UNL1       -0.2024
     17 C          -2.5969   -2.7617   -2.1298 C.ar    1  UNL1        0.1640
     18 F          -3.5455   -2.8919   -3.1129 F       1  UNL1       -0.2021
     19 C          -2.7533   -1.7706   -1.1983 C.ar    1  UNL1        0.0197
     20 C          -3.9655   -1.0512   -0.9573 C.3     1  UNL1        0.0952
     21 C          -4.7371   -0.9339   -2.3927 C.3     1  UNL1       -0.0352
     22 C          -3.8437    0.3607   -0.5769 C.3     1  UNL1        0.0223
     23 C          -4.8259    0.7100    0.5532 C.3     1  UNL1        0.1997
     24 C          -4.9920    2.1424    0.9224 C.3     1  UNL1        0.4266
     25 F          -5.9768    2.3012    1.8635 F       1  UNL1       -0.1669
     26 F          -5.0463    3.0575   -0.0459 F       1  UNL1       -0.1669
     27 F          -3.7675    2.4414    1.7124 F       1  UNL1       -0.1669
     28 O          -6.0603    0.0608    0.3384 O.2     1  UNL1       -0.4534
     29 C          -5.9860   -1.3261    0.3006 C.2     1  UNL1        0.2765
     30 N          -6.9182   -2.2310    0.8886 N.pl3   1  UNL1       -0.3134
     31 N          -4.9772   -1.8633   -0.3213 N.2     1  UNL1       -0.2257
     32 C          -1.6747   -1.5303   -0.3315 C.ar    1  UNL1       -0.0321
     33 N           3.1090   -0.1620    1.0693 N.ar    1  UNL1       -0.2467
     34 C           4.2425    0.0057    1.4293 C.ar    1  UNL1        0.0701
     35 H           7.9618    5.4951    1.3387 H       1  UNL1        0.0362
     36 H           8.7909    5.1479    2.9340 H       1  UNL1        0.0362
     37 H           6.9697    5.2758    2.7881 H       1  UNL1        0.0362
     38 H           8.4008    0.4952    0.7886 H       1  UNL1        0.0837
     39 H           7.6587    0.4395    2.4468 H       1  UNL1        0.0837
     40 H           5.2414    1.4316   -1.6179 H       1  UNL1        0.0655
     41 H           2.9724    0.8100   -2.1533 H       1  UNL1        0.0641
     42 H           1.2525   -2.1936    0.8461 H       1  UNL1        0.1552
     43 H           0.4995   -3.8362   -1.4487 H       1  UNL1        0.0666
     44 H          -5.4682   -0.1303   -2.2578 H       1  UNL1        0.0256
     45 H          -4.0190   -0.8158   -3.1883 H       1  UNL1        0.0256
     46 H          -5.3376   -1.8643   -2.4642 H       1  UNL1        0.0256
     47 H          -2.8581    0.6463   -0.2435 H       1  UNL1        0.0330
     48 H          -4.1338    1.0999   -1.4551 H       1  UNL1        0.0330
     49 H          -4.3123    0.2354    1.4959 H       1  UNL1        0.0826
     50 H          -6.7225   -2.6878    1.8010 H       1  UNL1        0.1466
     51 H          -7.7959   -2.3740    0.3417 H       1  UNL1        0.1466
     52 H          -1.7560   -0.7859    0.4218 H       1  UNL1        0.0640
     53 H           4.9227   -0.0090    2.3024 H       1  UNL1        0.0867
@<TRIPOS>BOND
     1     1     2    1
     2     2     3    3
     3     3     4    1
     4     4     5    1
     5     5     6    1
     6     6     7   ar
     7     7     8   ar
     8     8     9   ar
     9     9    10    1
    10    10    11    2
    11    10    12   am
    12    12    13    1
    13    13    14   ar
    14    14    15   ar
    15    15    16    1
    16    15    17   ar
    17    17    18    1
    18    17    19   ar
    19    19    20    1
    20    20    21    1
    21    20    22    1
    22    22    23    1
    23    23    24    1
    24    24    25    1
    25    24    26    1
    26    24    27    1
    27    23    28    1
    28    28    29    1
    29    29    30    1
    30    29    31    2
    31    19    32   ar
    32     9    33   ar
    33    33    34   ar
    34    34     6   ar
    35    32    13   ar
    36    31    20    1
    37     1    35    1
    38     1    36    1
    39     1    37    1
    40     4    38    1
    41     4    39    1
    42     7    40    1
    43     8    41    1
    44    12    42    1
    45    14    43    1
    46    21    44    1
    47    21    45    1
    48    21    46    1
    49    22    47    1
    50    22    48    1
    51    23    49    1
    52    30    50    1
    53    30    51    1
    54    32    52    1
    55    34    53    1
