
     RDKit          3D

 72 73  0  0  0  0  0  0  0  0999 V2000
   -4.2030    0.7329   -1.6925 C   0  0  2  0  0  0  0  0  0  0  0  0
   -3.9879   -0.7542   -1.8108 C   0  0  0  0  0  0  0  0  0  0  0  0
   -5.2499   -1.5311   -1.5014 C   0  0  0  0  0  0  0  0  0  0  0  0
   -5.4573   -1.9431   -0.1821 C   0  0  0  0  0  0  0  0  0  0  0  0
   -6.5594   -2.6509    0.2537 C   0  0  0  0  0  0  0  0  0  0  0  0
   -7.4953   -2.9496   -0.7186 C   0  0  0  0  0  0  0  0  0  0  0  0
   -7.3230   -2.5590   -2.0308 C   0  0  0  0  0  0  0  0  0  0  0  0
   -6.2113   -1.8529   -2.4346 C   0  0  0  0  0  0  0  0  0  0  0  0
   -3.0613    1.5442   -1.9713 N   0  0  0  0  0  0  0  0  0  0  0  0
   -1.8646    1.4996   -1.2334 C   0  0  0  0  0  0  0  0  0  0  0  0
   -1.1435    2.6311   -0.8895 O   0  0  0  0  0  0  0  0  0  0  0  0
   -1.4079    0.3835   -0.8547 N   0  0  0  0  0  0  0  0  0  0  0  0
   -0.1925    0.1688   -0.0890 C   0  0  1  0  0  0  0  0  0  0  0  0
   -0.0320   -1.3240    0.1124 C   0  0  0  0  0  0  0  0  0  0  0  0
    1.1619   -1.7057    0.8747 C   0  0  0  0  0  0  0  0  0  0  0  0
    2.4235   -2.0233    0.3557 C   0  0  0  0  0  0  0  0  0  0  0  0
    3.4906   -2.3774    1.1773 C   0  0  0  0  0  0  0  0  0  0  0  0
    3.3542   -2.4339    2.5607 C   0  0  0  0  0  0  0  0  0  0  0  0
    4.5318   -2.8031    3.1498 O   0  0  0  0  0  0  0  0  0  0  0  0
    4.6962   -2.9506    4.5318 C   0  0  0  0  0  0  0  0  0  0  0  0
    5.0580   -4.3865    4.8185 C   0  0  0  0  0  0  0  0  0  0  0  0
    5.2946   -4.9065    6.0782 O   0  0  0  0  0  0  0  0  0  0  0  0
    5.1404   -5.1357    3.8023 O   0  0  0  0  0  0  0  0  0  0  0  0
    5.8469   -2.1565    5.0626 C   0  0  0  0  0  0  0  0  0  0  0  0
    6.6111   -1.3829    4.1853 O   0  0  0  0  0  0  0  0  0  0  0  0
    6.1320   -2.1787    6.2864 O   0  0  0  0  0  0  0  0  0  0  0  0
    2.1282   -2.1257    3.0745 C   0  0  0  0  0  0  0  0  0  0  0  0
    1.0673   -1.7740    2.2694 C   0  0  0  0  0  0  0  0  0  0  0  0
    1.0039    0.6665   -0.8148 C   0  0  0  0  0  0  0  0  0  0  0  0
    2.1135    0.6394    0.0148 O   0  0  0  0  0  0  0  0  0  0  0  0
    1.1332    1.0850   -2.0145 N   0  0  0  0  0  0  0  0  0  0  0  0
    2.3973    1.5217   -2.5102 C   0  0  0  0  0  0  0  0  0  0  0  0
    2.7803    2.9247   -2.1792 C   0  0  0  0  0  0  0  0  0  0  0  0
    1.8358    3.9542   -2.7092 C   0  0  0  0  0  0  0  0  0  0  0  0
    2.3940    5.3125   -2.2678 C   0  0  0  0  0  0  0  0  0  0  0  0
    1.5108    6.4350   -2.7469 C   0  0  0  0  0  0  0  0  0  0  0  0
   -4.8360    1.1173   -0.3866 C   0  0  0  0  0  0  0  0  0  0  0  0
   -5.9231    0.7227    0.3645 O   0  0  0  0  0  0  0  0  0  0  0  0
   -4.1682    2.0541    0.1337 O   0  0  0  0  0  0  0  0  0  0  0  0
   -4.9741    0.9684   -2.4922 H   0  0  0  0  0  0  0  0  0  0  0  0
   -3.7021   -1.0203   -2.8321 H   0  0  0  0  0  0  0  0  0  0  0  0
   -3.1988   -1.0449   -1.0896 H   0  0  0  0  0  0  0  0  0  0  0  0
   -4.7198   -1.7167    0.5968 H   0  0  0  0  0  0  0  0  0  0  0  0
   -6.6626   -2.9426    1.2924 H   0  0  0  0  0  0  0  0  0  0  0  0
   -8.3688   -3.5153   -0.3580 H   0  0  0  0  0  0  0  0  0  0  0  0
   -8.0878   -2.8188   -2.7619 H   0  0  0  0  0  0  0  0  0  0  0  0
   -6.0476   -1.5363   -3.4430 H   0  0  0  0  0  0  0  0  0  0  0  0
   -3.0689    2.2472   -2.7776 H   0  0  0  0  0  0  0  0  0  0  0  0
   -0.3823    2.6511   -0.2153 H   0  0  0  0  0  0  0  0  0  0  0  0
   -0.3322    0.6296    0.9067 H   0  0  0  0  0  0  0  0  0  0  0  0
   -0.9238   -1.6395    0.6932 H   0  0  0  0  0  0  0  0  0  0  0  0
   -0.1193   -1.8732   -0.8555 H   0  0  0  0  0  0  0  0  0  0  0  0
    2.5032   -1.9716   -0.7374 H   0  0  0  0  0  0  0  0  0  0  0  0
    4.3914   -2.5893    0.5992 H   0  0  0  0  0  0  0  0  0  0  0  0
    3.7872   -2.7484    5.1044 H   0  0  0  0  0  0  0  0  0  0  0  0
    6.0436   -5.6101    6.1876 H   0  0  0  0  0  0  0  0  0  0  0  0
    7.1039   -0.5656    4.5370 H   0  0  0  0  0  0  0  0  0  0  0  0
    2.0922   -2.1874    4.1518 H   0  0  0  0  0  0  0  0  0  0  0  0
    0.1461   -1.5542    2.8256 H   0  0  0  0  0  0  0  0  0  0  0  0
    3.0675    0.7869   -0.2706 H   0  0  0  0  0  0  0  0  0  0  0  0
    3.2512    0.8397   -2.2919 H   0  0  0  0  0  0  0  0  0  0  0  0
    2.3125    1.4807   -3.6385 H   0  0  0  0  0  0  0  0  0  0  0  0
    3.7734    3.1028   -2.6756 H   0  0  0  0  0  0  0  0  0  0  0  0
    2.9757    3.0355   -1.0921 H   0  0  0  0  0  0  0  0  0  0  0  0
    1.9164    3.9490   -3.8222 H   0  0  0  0  0  0  0  0  0  0  0  0
    0.7999    3.8373   -2.3906 H   0  0  0  0  0  0  0  0  0  0  0  0
    3.4295    5.4078   -2.6674 H   0  0  0  0  0  0  0  0  0  0  0  0
    2.4899    5.3087   -1.1674 H   0  0  0  0  0  0  0  0  0  0  0  0
    1.3225    7.1048   -1.8911 H   0  0  0  0  0  0  0  0  0  0  0  0
    2.1052    7.0470   -3.4735 H   0  0  0  0  0  0  0  0  0  0  0  0
    0.5921    6.0418   -3.2204 H   0  0  0  0  0  0  0  0  0  0  0  0
   -6.5046    1.4083    0.8277 H   0  0  0  0  0  0  0  0  0  0  0  0
  1  2  1  0
  2  3  1  0
  3  4  2  0
  4  5  1  0
  5  6  2  0
  6  7  1  0
  7  8  2  0
  1  9  1  0
  9 10  1  0
 10 11  1  0
 10 12  2  3
 12 13  1  0
 13 14  1  0
 14 15  1  0
 15 16  2  0
 16 17  1  0
 17 18  2  0
 18 19  1  0
 19 20  1  0
 20 21  1  0
 21 22  1  0
 21 23  2  0
 20 24  1  0
 24 25  1  0
 24 26  2  0
 18 27  1  0
 27 28  2  0
 13 29  1  0
 29 30  1  0
 29 31  2  3
 31 32  1  0
 32 33  1  0
 33 34  1  0
 34 35  1  0
 35 36  1  0
  1 37  1  0
 37 38  1  0
 37 39  2  0
  8  3  1  0
 28 15  1  0
  1 40  1  6
  2 41  1  0
  2 42  1  0
  4 43  1  0
  5 44  1  0
  6 45  1  0
  7 46  1  0
  8 47  1  0
  9 48  1  0
 11 49  1  0
 13 50  1  1
 14 51  1  0
 14 52  1  0
 16 53  1  0
 17 54  1  0
 20 55  1  0
 22 56  1  0
 25 57  1  0
 27 58  1  0
 28 59  1  0
 30 60  1  0
 32 61  1  0
 32 62  1  0
 33 63  1  0
 33 64  1  0
 34 65  1  0
 34 66  1  0
 35 67  1  0
 35 68  1  0
 36 69  1  0
 36 70  1  0
 36 71  1  0
 38 72  1  0
M  END
$$$$
