@<TRIPOS>MOLECULE
*****
 72 73 0 0 0
SMALL
GASTEIGER

@<TRIPOS>ATOM
      1 CA         -4.2030    0.7329   -1.6925 C.3     1  PHE1        0.1255
      2 CB         -3.9879   -0.7542   -1.8108 C.3     1  PHE1        0.0013
      3 CG         -5.2499   -1.5311   -1.5014 C.ar    1  PHE1       -0.0451
      4 CD1        -5.4573   -1.9431   -0.1821 C.ar    1  PHE1       -0.0585
      5 CE1        -6.5594   -2.6509    0.2537 C.ar    1  PHE1       -0.0615
      6 CZ         -7.4953   -2.9496   -0.7186 C.ar    1  PHE1       -0.0617
      7 CE2        -7.3230   -2.5590   -2.0308 C.ar    1  PHE1       -0.0615
      8 CD2        -6.2113   -1.8529   -2.4346 C.ar    1  PHE1       -0.0585
      9 N          -3.0613    1.5442   -1.9713 N.pl3   1  PHE1       -0.2861
     10 C          -1.8646    1.4996   -1.2334 C.2     0  UNK0        0.2767
     11 O          -1.1435    2.6311   -0.8895 O.2     0  UNK0       -0.4817
     12 N          -1.4079    0.3835   -0.8547 N.2     0  UNK0       -0.2238
     13 C          -0.1925    0.1688   -0.0890 C.3     0  UNK0        0.1344
     14 C          -0.0320   -1.3240    0.1124 C.3     0  UNK0        0.0036
     15 C           1.1619   -1.7057    0.8747 C.ar    0  UNK0       -0.0446
     16 C           2.4235   -2.0233    0.3557 C.ar    0  UNK0       -0.0550
     17 C           3.4906   -2.3774    1.1773 C.ar    0  UNK0       -0.0196
     18 C           3.3542   -2.4339    2.5607 C.ar    0  UNK0        0.1225
     19 O           4.5318   -2.8031    3.1498 O.3     0  UNK0       -0.4662
     20 C           4.6962   -2.9506    4.5318 C.3     0  UNK0        0.2905
     21 C           5.0580   -4.3865    4.8185 C.2     0  UNK0        0.3573
     22 O           5.2946   -4.9065    6.0782 O.3     0  UNK0       -0.4776
     23 O           5.1404   -5.1357    3.8023 O.2     0  UNK0       -0.2462
     24 C           5.8469   -2.1565    5.0626 C.2     0  UNK0        0.3573
     25 O           6.6111   -1.3829    4.1853 O.3     0  UNK0       -0.4776
     26 O           6.1320   -2.1787    6.2864 O.2     0  UNK0       -0.2462
     27 C           2.1282   -2.1257    3.0745 C.ar    0  UNK0       -0.0196
     28 C           1.0673   -1.7740    2.2694 C.ar    0  UNK0       -0.0550
     29 C           1.0039    0.6665   -0.8148 C.2     0  UNK0        0.2083
     30 O           2.1135    0.6394    0.0148 O.2     0  UNK0       -0.4942
     31 N           1.1332    1.0850   -2.0145 N.2     0  UNK0       -0.2530
     32 C           2.3973    1.5217   -2.5102 C.3     0  UNK0        0.0431
     33 C           2.7803    2.9247   -2.1792 C.3     0  UNK0       -0.0333
     34 C           1.8358    3.9542   -2.7092 C.3     0  UNK0       -0.0516
     35 C           2.3940    5.3125   -2.2678 C.3     0  UNK0       -0.0559
     36 C           1.5108    6.4350   -2.7469 C.3     0  UNK0       -0.0653
     37 C          -4.8360    1.1173   -0.3866 C.2     1  PHE1        0.3256
     38 O          -5.9231    0.7227    0.3645 O.3     1  PHE1       -0.4793
     39 OXT        -4.1682    2.0541    0.1337 O.2     1  PHE1       -0.2489
     40 HA         -4.9741    0.9684   -2.4922 H       1  PHE1        0.0618
     41 HB1        -3.7021   -1.0203   -2.8321 H       1  PHE1        0.0337
     42 HB2        -3.1988   -1.0449   -1.0896 H       1  PHE1        0.0337
     43 HD1        -4.7198   -1.7167    0.5968 H       1  PHE1        0.0620
     44 HE1        -6.6626   -2.9426    1.2924 H       1  PHE1        0.0618
     45 HZ         -8.3688   -3.5153   -0.3580 H       1  PHE1        0.0618
     46 HE2        -8.0878   -2.8188   -2.7619 H       1  PHE1        0.0618
     47 HD2        -6.0476   -1.5363   -3.4430 H       1  PHE1        0.0620
     48 H          -3.0689    2.2472   -2.7776 H       1  PHE1        0.1512
     49 H          -0.3823    2.6511   -0.2153 H       0  UNK0        0.2950
     50 H          -0.3322    0.6296    0.9067 H       0  UNK0        0.0647
     51 H          -0.9238   -1.6395    0.6932 H       0  UNK0        0.0339
     52 H          -0.1193   -1.8732   -0.8555 H       0  UNK0        0.0339
     53 H           2.5032   -1.9716   -0.7374 H       0  UNK0        0.0621
     54 H           4.3914   -2.5893    0.5992 H       0  UNK0        0.0654
     55 H           3.7872   -2.7484    5.1044 H       0  UNK0        0.0973
     56 H           6.0436   -5.6101    6.1876 H       0  UNK0        0.2952
     57 H           7.1039   -0.5656    4.5370 H       0  UNK0        0.2952
     58 H           2.0922   -2.1874    4.1518 H       0  UNK0        0.0654
     59 H           0.1461   -1.5542    2.8256 H       0  UNK0        0.0621
     60 H           3.0675    0.7869   -0.2706 H       0  UNK0        0.2935
     61 H           3.2512    0.8397   -2.2919 H       0  UNK0        0.0509
     62 H           2.3125    1.4807   -3.6385 H       0  UNK0        0.0509
     63 H           3.7734    3.1028   -2.6756 H       0  UNK0        0.0283
     64 H           2.9757    3.0355   -1.0921 H       0  UNK0        0.0283
     65 H           1.9164    3.9490   -3.8222 H       0  UNK0        0.0266
     66 H           0.7999    3.8373   -2.3906 H       0  UNK0        0.0266
     67 H           3.4295    5.4078   -2.6674 H       0  UNK0        0.0263
     68 H           2.4899    5.3087   -1.1674 H       0  UNK0        0.0263
     69 H           1.3225    7.1048   -1.8911 H       0  UNK0        0.0230
     70 H           2.1052    7.0470   -3.4735 H       0  UNK0        0.0230
     71 H           0.5921    6.0418   -3.2204 H       0  UNK0        0.0230
     72 H          -6.5046    1.4083    0.8277 H       1  PHE1        0.2951
@<TRIPOS>BOND
     1     1     2    1
     2     2     3    1
     3     3     4   ar
     4     4     5   ar
     5     5     6   ar
     6     6     7   ar
     7     7     8   ar
     8     1     9    1
     9     9    10    1
    10    10    11    1
    11    10    12    2
    12    12    13    1
    13    13    14    1
    14    14    15    1
    15    15    16   ar
    16    16    17   ar
    17    17    18   ar
    18    18    19    1
    19    19    20    1
    20    20    21    1
    21    21    22    1
    22    21    23    2
    23    20    24    1
    24    24    25    1
    25    24    26    2
    26    18    27   ar
    27    27    28   ar
    28    13    29    1
    29    29    30    1
    30    29    31    2
    31    31    32    1
    32    32    33    1
    33    33    34    1
    34    34    35    1
    35    35    36    1
    36     1    37    1
    37    37    38    1
    38    37    39    2
    39     8     3   ar
    40    28    15   ar
    41     1    40    1
    42     2    41    1
    43     2    42    1
    44     4    43    1
    45     5    44    1
    46     6    45    1
    47     7    46    1
    48     8    47    1
    49     9    48    1
    50    11    49    1
    51    13    50    1
    52    14    51    1
    53    14    52    1
    54    16    53    1
    55    17    54    1
    56    20    55    1
    57    22    56    1
    58    25    57    1
    59    27    58    1
    60    28    59    1
    61    30    60    1
    62    32    61    1
    63    32    62    1
    64    33    63    1
    65    33    64    1
    66    34    65    1
    67    34    66    1
    68    35    67    1
    69    35    68    1
    70    36    69    1
    71    36    70    1
    72    36    71    1
    73    38    72    1
