
     RDKit          3D

 24 25  0  0  0  0  0  0  0  0999 V2000
    1.6818    1.1173   -2.0066 O   0  0  0  0  0  0  0  0  0  0  0  0
    2.1017    0.3889   -0.8732 C   0  0  0  0  0  0  0  0  0  0  0  0
    3.4543    0.1687   -0.7110 C   0  0  0  0  0  0  0  0  0  0  0  0
    3.9566   -0.5260    0.3548 C   0  0  0  0  0  0  0  0  0  0  0  0
    5.6675   -0.7808    0.5271 Cl  0  0  0  0  0  0  0  0  0  0  0  0
    3.1308   -1.0424    1.3242 C   0  0  0  0  0  0  0  0  0  0  0  0
    1.8027   -0.8339    1.1781 C   0  0  0  0  0  0  0  0  0  0  0  0
    1.2281   -0.1068    0.0696 C   0  0  0  0  0  0  0  0  0  0  0  0
   -0.0556    0.0267    0.0421 O   0  0  0  0  0  0  0  0  0  0  0  0
   -1.3307    0.1593    0.0149 C   0  0  0  0  0  0  0  0  0  0  0  0
   -2.1036   -0.4035    1.0962 C   0  0  0  0  0  0  0  0  0  0  0  0
   -3.4516   -0.3182    1.1622 C   0  0  0  0  0  0  0  0  0  0  0  0
   -4.1380    0.3260    0.1702 C   0  0  0  0  0  0  0  0  0  0  0  0
   -5.8689    0.4337    0.2612 Cl  0  0  0  0  0  0  0  0  0  0  0  0
   -3.4840    0.8762   -0.8719 C   0  0  0  0  0  0  0  0  0  0  0  0
   -2.0893    0.7891   -0.9423 C   0  0  0  0  0  0  0  0  0  0  0  0
   -1.3632    1.5322   -2.3332 Cl  0  0  0  0  0  0  0  0  0  0  0  0
    1.7107    0.6882   -2.9327 H   0  0  0  0  0  0  0  0  0  0  0  0
    4.1167    0.5805   -1.4860 H   0  0  0  0  0  0  0  0  0  0  0  0
    3.5320   -1.5959    2.1726 H   0  0  0  0  0  0  0  0  0  0  0  0
    1.0876   -1.2210    1.9187 H   0  0  0  0  0  0  0  0  0  0  0  0
   -1.5237   -0.8983    1.8510 H   0  0  0  0  0  0  0  0  0  0  0  0
   -4.0364   -0.7478    1.9889 H   0  0  0  0  0  0  0  0  0  0  0  0
   -4.0253    1.3882   -1.6624 H   0  0  0  0  0  0  0  0  0  0  0  0
  1  2  1  0
  2  3  2  0
  3  4  1  0
  4  5  1  0
  4  6  2  0
  6  7  1  0
  7  8  2  0
  8  9  1  0
  9 10  1  0
 10 11  2  0
 11 12  1  0
 12 13  2  0
 13 14  1  0
 13 15  1  0
 15 16  2  0
 16 17  1  0
  8  2  1  0
 16 10  1  0
  1 18  1  0
  3 19  1  0
  6 20  1  0
  7 21  1  0
 11 22  1  0
 12 23  1  0
 15 24  1  0
M  END
$$$$
