@<TRIPOS>MOLECULE
*****
 24 25 0 0 0
SMALL
GASTEIGER

@<TRIPOS>ATOM
      1 O           1.6818    1.1173   -2.0066 O.3     1  UNL1       -0.5032
      2 C           2.1017    0.3889   -0.8732 C.ar    1  UNL1        0.1605
      3 C           3.4543    0.1687   -0.7110 C.ar    1  UNL1        0.0018
      4 C           3.9566   -0.5260    0.3548 C.ar    1  UNL1        0.0447
      5 CL          5.6675   -0.7808    0.5271 Cl      1  UNL1       -0.0834
      6 C           3.1308   -1.0424    1.3242 C.ar    1  UNL1       -0.0397
      7 C           1.8027   -0.8339    1.1781 C.ar    1  UNL1       -0.0143
      8 C           1.2281   -0.1068    0.0696 C.ar    1  UNL1        0.1697
      9 O          -0.0556    0.0267    0.0421 O.3     1  UNL1       -0.4509
     10 C          -1.3307    0.1593    0.0149 C.ar    1  UNL1        0.1469
     11 C          -2.1036   -0.4035    1.0962 C.ar    1  UNL1       -0.0165
     12 C          -3.4516   -0.3182    1.1622 C.ar    1  UNL1       -0.0398
     13 C          -4.1380    0.3260    0.1702 C.ar    1  UNL1        0.0426
     14 CL         -5.8689    0.4337    0.2612 Cl      1  UNL1       -0.0835
     15 C          -3.4840    0.8762   -0.8719 C.ar    1  UNL1       -0.0215
     16 C          -2.0893    0.7891   -0.9423 C.ar    1  UNL1        0.0845
     17 CL         -1.3632    1.5322   -2.3332 Cl      1  UNL1       -0.0797
     18 H           1.7107    0.6882   -2.9327 H       1  UNL1        0.2923
     19 H           4.1167    0.5805   -1.4860 H       1  UNL1        0.0670
     20 H           3.5320   -1.5959    2.1726 H       1  UNL1        0.0633
     21 H           1.0876   -1.2210    1.9187 H       1  UNL1        0.0656
     22 H          -1.5237   -0.8983    1.8510 H       1  UNL1        0.0655
     23 H          -4.0364   -0.7478    1.9889 H       1  UNL1        0.0633
     24 H          -4.0253    1.3882   -1.6624 H       1  UNL1        0.0648
@<TRIPOS>BOND
     1     1     2    1
     2     2     3   ar
     3     3     4   ar
     4     4     5    1
     5     4     6   ar
     6     6     7   ar
     7     7     8   ar
     8     8     9    1
     9     9    10    1
    10    10    11   ar
    11    11    12   ar
    12    12    13   ar
    13    13    14    1
    14    13    15   ar
    15    15    16   ar
    16    16    17    1
    17     8     2   ar
    18    16    10   ar
    19     1    18    1
    20     3    19    1
    21     6    20    1
    22     7    21    1
    23    11    22    1
    24    12    23    1
    25    15    24    1
