@<TRIPOS>MOLECULE
*****
 16 15 0 0 0
SMALL
GASTEIGER

@<TRIPOS>ATOM
      1 C           0.9734   -0.6158    0.9548 C.2     1  UNL1       -0.0317
      2 C           1.6735    0.5706    0.4759 C.2     1  UNL1        0.0649
      3 O           2.7494    1.4484    0.4884 O.co2   1  UNL1       -0.5452
      4 O           2.6866    1.3142    0.5533 O.co2   1  UNL1       -0.5452
      5 C          -0.1417   -0.6396    0.2410 C.2     1  UNL1        0.0104
      6 C          -1.0290   -1.7615    0.5464 C.2     1  UNL1        0.0706
      7 O          -0.7792   -2.7458    1.4900 O.co2   1  UNL1       -0.5449
      8 O          -2.1355   -2.1331    0.1137 O.co2   1  UNL1       -0.5449
      9 C          -0.7769    0.1633   -0.8098 C.3     1  UNL1        0.1209
     10 O          -2.0770    0.5171   -0.3913 O.3     1  UNL1       -0.3813
     11 C          -0.0235    1.3361   -1.2647 C.2     1  UNL1        0.0746
     12 O           1.0703    1.2678   -2.1091 O.co2   1  UNL1       -0.5468
     13 O          -0.3691    2.4847   -0.8818 O.co2   1  UNL1       -0.5468
     14 H           1.1933   -1.3658    1.6928 H       1  UNL1        0.0639
     15 H          -0.9416   -0.5001   -1.7071 H       1  UNL1        0.0707
     16 H          -2.0730    0.6595    0.6073 H       1  UNL1        0.2107
@<TRIPOS>UNITY_ATOM_ATTR
3 1
charge -1
7 1
charge -1
12 1
charge -1
@<TRIPOS>BOND
     1     1     2    1
     2     2     3   ar
     3     2     4   ar
     4     1     5    2
     5     5     6    1
     6     6     7   ar
     7     6     8   ar
     8     5     9    1
     9     9    10    1
    10     9    11    1
    11    11    12   ar
    12    11    13   ar
    13     1    14    1
    14     9    15    1
    15    10    16    1
