
     RDKit          3D

 16 15  0  0  0  0  0  0  0  0999 V2000
    0.9734   -0.6158    0.9548 C   0  0  0  0  0  0  0  0  0  0  0  0
    1.6735    0.5706    0.4759 C   0  0  0  0  0  0  0  0  0  0  0  0
    2.7494    1.4484    0.4884 O   0  0  0  0  0  1  0  0  0  0  0  0
    2.6866    1.3142    0.5533 O   0  0  0  0  0  0  0  0  0  0  0  0
   -0.1417   -0.6396    0.2410 C   0  0  0  0  0  0  0  0  0  0  0  0
   -1.0290   -1.7615    0.5464 C   0  0  0  0  0  0  0  0  0  0  0  0
   -0.7792   -2.7458    1.4900 O   0  0  0  0  0  1  0  0  0  0  0  0
   -2.1355   -2.1331    0.1137 O   0  0  0  0  0  0  0  0  0  0  0  0
   -0.7769    0.1633   -0.8098 C   0  0  1  0  0  0  0  0  0  0  0  0
   -2.0770    0.5171   -0.3913 O   0  0  0  0  0  0  0  0  0  0  0  0
   -0.0235    1.3361   -1.2647 C   0  0  0  0  0  0  0  0  0  0  0  0
    1.0703    1.2678   -2.1091 O   0  0  0  0  0  1  0  0  0  0  0  0
   -0.3691    2.4847   -0.8818 O   0  0  0  0  0  0  0  0  0  0  0  0
    1.1933   -1.3658    1.6928 H   0  0  0  0  0  0  0  0  0  0  0  0
   -0.9416   -0.5001   -1.7071 H   0  0  0  0  0  0  0  0  0  0  0  0
   -2.0730    0.6595    0.6073 H   0  0  0  0  0  0  0  0  0  0  0  0
  1  2  1  0
  2  3  1  0
  2  4  2  0
  1  5  2  0
  5  6  1  0
  6  7  1  0
  6  8  2  0
  5  9  1  0
  9 10  1  0
  9 11  1  0
 11 12  1  0
 11 13  2  0
  1 14  1  0
  9 15  1  6
 10 16  1  0
M  CHG  3   3  -1   7  -1  12  -1
M  END
$$$$
