
     RDKit          3D

 77 80  0  0  0  0  0  0  0  0999 V2000
    6.8120   -1.5555    2.3564 C   0  0  0  0  0  0  0  0  0  0  0  0
    6.4309   -1.1440    0.9240 C   0  0  1  0  0  0  0  0  0  0  0  0
    4.9572   -0.9928    0.9113 C   0  0  0  0  0  0  0  0  0  0  0  0
    4.3012   -0.6135   -0.3556 C   0  0  1  0  0  0  0  0  0  0  0  0
    4.5467   -1.5924   -1.4807 C   0  0  0  0  0  0  0  0  0  0  0  0
    2.7919   -0.5544   -0.0484 C   0  0  0  0  0  0  0  0  0  0  0  0
    1.8531   -0.1051   -1.4535 S   0  0  0  0  0  6  0  0  0  0  0  0
    2.2232    1.2457   -1.9951 O   0  0  0  0  0  0  0  0  0  0  0  0
    1.9545   -1.1608   -2.5465 O   0  0  0  0  0  0  0  0  0  0  0  0
    0.1890   -0.0716   -0.9915 N   0  0  0  0  0  0  0  0  0  0  0  0
   -0.0668    0.9031    0.0398 C   0  0  0  0  0  0  0  0  0  0  0  0
   -1.5663    1.0783    0.1213 C   0  0  0  0  0  0  0  0  0  0  0  0
   -2.1445   -0.2089    0.6306 C   0  0  0  0  0  0  0  0  0  0  0  0
   -3.5113   -0.3951   -0.0071 C   0  0  0  0  0  0  0  0  0  0  0  0
   -4.3352    0.7920    0.4124 C   0  0  0  0  0  0  0  0  0  0  0  0
   -5.7013    0.8350   -0.0963 C   0  0  0  0  0  0  0  0  0  0  0  0
   -5.9621    1.6498   -1.1907 C   0  0  0  0  0  0  0  0  0  0  0  0
   -7.2351    1.7518   -1.7394 C   0  0  0  0  0  0  0  0  0  0  0  0
   -8.2566    1.0325   -1.1888 C   0  0  0  0  0  0  0  0  0  0  0  0
   -9.6269    1.1148   -1.7442 C   0  0  0  0  0  0  0  0  0  0  0  0
   -9.5995    1.8655   -2.9272 F   0  0  0  0  0  0  0  0  0  0  0  0
  -10.4817    1.7583   -0.8419 F   0  0  0  0  0  0  0  0  0  0  0  0
  -10.1239   -0.1469   -1.9826 F   0  0  0  0  0  0  0  0  0  0  0  0
   -8.0269    0.2147   -0.1011 C   0  0  0  0  0  0  0  0  0  0  0  0
   -6.7327    0.1208    0.4445 C   0  0  0  0  0  0  0  0  0  0  0  0
   -6.5128   -0.7587    1.6127 C   0  0  0  0  0  0  0  0  0  0  0  0
   -6.3980   -2.2763    1.3059 C   0  0  0  0  0  0  0  0  0  0  0  0
   -7.5179   -1.7097    2.1123 C   0  0  0  0  0  0  0  0  0  0  0  0
   -1.2698   -1.3999    0.4817 C   0  0  0  0  0  0  0  0  0  0  0  0
   -0.3542   -1.3665   -0.7077 C   0  0  0  0  0  0  0  0  0  0  0  0
    4.6800    0.7022   -0.7737 N   0  0  0  0  0  0  0  0  0  0  0  0
    5.3166    0.8369   -1.9837 O   0  0  0  0  0  0  0  0  0  0  0  0
    4.4569    1.8963   -0.0429 C   0  0  0  0  0  0  0  0  0  0  0  0
    3.8973    1.9147    1.0753 O   0  0  0  0  0  0  0  0  0  0  0  0
    7.2122    0.0821    0.6722 C   0  0  0  0  0  0  0  0  0  0  0  0
    7.9798    0.0967   -0.4447 N   0  0  0  0  0  0  0  0  0  0  0  0
    8.7430    1.1643   -0.7524 C   0  0  0  0  0  0  0  0  0  0  0  0
    8.7732    2.2846    0.0574 C   0  0  0  0  0  0  0  0  0  0  0  0
    9.5278    3.3769   -0.2184 F   0  0  0  0  0  0  0  0  0  0  0  0
    7.9709    2.2283    1.1939 C   0  0  0  0  0  0  0  0  0  0  0  0
    7.2322    1.1449    1.4534 N   0  0  0  0  0  0  0  0  0  0  0  0
    6.3424   -2.5493    2.5152 H   0  0  0  0  0  0  0  0  0  0  0  0
    7.8922   -1.6701    2.4748 H   0  0  0  0  0  0  0  0  0  0  0  0
    6.3470   -0.8749    3.0857 H   0  0  0  0  0  0  0  0  0  0  0  0
    6.7843   -1.9931    0.2815 H   0  0  0  0  0  0  0  0  0  0  0  0
    4.5362   -1.9724    1.2870 H   0  0  0  0  0  0  0  0  0  0  0  0
    4.6898   -0.2708    1.7327 H   0  0  0  0  0  0  0  0  0  0  0  0
    4.3091   -1.1161   -2.4546 H   0  0  0  0  0  0  0  0  0  0  0  0
    3.8798   -2.4840   -1.4082 H   0  0  0  0  0  0  0  0  0  0  0  0
    5.5715   -1.9547   -1.5270 H   0  0  0  0  0  0  0  0  0  0  0  0
    2.4744   -1.5943    0.2495 H   0  0  0  0  0  0  0  0  0  0  0  0
    2.5707    0.0663    0.8291 H   0  0  0  0  0  0  0  0  0  0  0  0
    0.3324    1.8808   -0.3549 H   0  0  0  0  0  0  0  0  0  0  0  0
    0.3357    0.6476    1.0187 H   0  0  0  0  0  0  0  0  0  0  0  0
   -1.9754    1.2316   -0.9204 H   0  0  0  0  0  0  0  0  0  0  0  0
   -1.8609    1.9232    0.7817 H   0  0  0  0  0  0  0  0  0  0  0  0
   -2.3338   -0.0665    1.7293 H   0  0  0  0  0  0  0  0  0  0  0  0
   -3.4139   -0.4688   -1.1077 H   0  0  0  0  0  0  0  0  0  0  0  0
   -3.9463   -1.3412    0.3371 H   0  0  0  0  0  0  0  0  0  0  0  0
   -3.8025    1.7580    0.1287 H   0  0  0  0  0  0  0  0  0  0  0  0
   -4.3341    0.8549    1.5387 H   0  0  0  0  0  0  0  0  0  0  0  0
   -5.1443    2.2103   -1.6118 H   0  0  0  0  0  0  0  0  0  0  0  0
   -7.4304    2.3886   -2.5911 H   0  0  0  0  0  0  0  0  0  0  0  0
   -8.8425   -0.3453    0.3257 H   0  0  0  0  0  0  0  0  0  0  0  0
   -5.7268   -0.3651    2.3150 H   0  0  0  0  0  0  0  0  0  0  0  0
   -6.5304   -2.5990    0.2683 H   0  0  0  0  0  0  0  0  0  0  0  0
   -5.5463   -2.7830    1.8165 H   0  0  0  0  0  0  0  0  0  0  0  0
   -7.4524   -1.9414    3.2020 H   0  0  0  0  0  0  0  0  0  0  0  0
   -8.4996   -1.7681    1.6220 H   0  0  0  0  0  0  0  0  0  0  0  0
   -1.9514   -2.2877    0.3220 H   0  0  0  0  0  0  0  0  0  0  0  0
   -0.6972   -1.6613    1.4114 H   0  0  0  0  0  0  0  0  0  0  0  0
   -0.8639   -1.7481   -1.5986 H   0  0  0  0  0  0  0  0  0  0  0  0
    0.4939   -2.0524   -0.4958 H   0  0  0  0  0  0  0  0  0  0  0  0
    5.2413    1.7576   -2.3177 H   0  0  0  0  0  0  0  0  0  0  0  0
    4.7671    2.8519   -0.4308 H   0  0  0  0  0  0  0  0  0  0  0  0
    9.3654    1.1858   -1.6508 H   0  0  0  0  0  0  0  0  0  0  0  0
    7.9929    3.1128    1.8371 H   0  0  0  0  0  0  0  0  0  0  0  0
  1  2  1  0
  2  3  1  0
  3  4  1  0
  4  5  1  0
  4  6  1  0
  6  7  1  0
  7  8  2  0
  7  9  2  0
  7 10  1  0
 10 11  1  0
 11 12  1  0
 12 13  1  0
 13 14  1  0
 14 15  1  0
 15 16  1  0
 16 17  2  0
 17 18  1  0
 18 19  2  0
 19 20  1  0
 20 21  1  0
 20 22  1  0
 20 23  1  0
 19 24  1  0
 24 25  2  0
 25 26  1  0
 26 27  1  0
 27 28  1  0
 13 29  1  0
 29 30  1  0
  4 31  1  6
 31 32  1  0
 31 33  1  0
 33 34  2  0
  2 35  1  0
 35 36  2  0
 36 37  1  0
 37 38  2  0
 38 39  1  0
 38 40  1  0
 40 41  2  0
 30 10  1  0
 41 35  1  0
 25 16  1  0
 28 26  1  0
  1 42  1  0
  1 43  1  0
  1 44  1  0
  2 45  1  6
  3 46  1  0
  3 47  1  0
  5 48  1  0
  5 49  1  0
  5 50  1  0
  6 51  1  0
  6 52  1  0
 11 53  1  0
 11 54  1  0
 12 55  1  0
 12 56  1  0
 13 57  1  0
 14 58  1  0
 14 59  1  0
 15 60  1  0
 15 61  1  0
 17 62  1  0
 18 63  1  0
 24 64  1  0
 26 65  1  0
 27 66  1  0
 27 67  1  0
 28 68  1  0
 28 69  1  0
 29 70  1  0
 29 71  1  0
 30 72  1  0
 30 73  1  0
 32 74  1  0
 33 75  1  0
 37 76  1  0
 40 77  1  0
M  END
$$$$
