@<TRIPOS>MOLECULE
*****
 77 80 0 0 0
SMALL
GASTEIGER

@<TRIPOS>ATOM
      1 C           6.8120   -1.5555    2.3564 C.3     1  UNL1       -0.0554
      2 C           6.4309   -1.1440    0.9240 C.3     1  UNL1        0.0182
      3 C           4.9572   -0.9928    0.9113 C.3     1  UNL1       -0.0183
      4 C           4.3012   -0.6135   -0.3556 C.3     1  UNL1        0.0821
      5 C           4.5467   -1.5924   -1.4807 C.3     1  UNL1       -0.0396
      6 C           2.7919   -0.5544   -0.0484 C.3     1  UNL1        0.1053
      7 S           1.8531   -0.1051   -1.4535 S.O2    1  UNL1        0.0339
      8 O           2.2232    1.2457   -1.9951 O.2     1  UNL1       -0.1580
      9 O           1.9545   -1.1608   -2.5465 O.2     1  UNL1       -0.1580
     10 N           0.1890   -0.0716   -0.9915 N.3     1  UNL1       -0.1810
     11 C          -0.0668    0.9031    0.0398 C.3     1  UNL1        0.0204
     12 C          -1.5663    1.0783    0.1213 C.3     1  UNL1       -0.0357
     13 C          -2.1445   -0.2089    0.6306 C.3     1  UNL1       -0.0383
     14 C          -3.5113   -0.3951   -0.0071 C.3     1  UNL1       -0.0461
     15 C          -4.3352    0.7920    0.4124 C.3     1  UNL1       -0.0272
     16 C          -5.7013    0.8350   -0.0963 C.ar    1  UNL1       -0.0439
     17 C          -5.9621    1.6498   -1.1907 C.ar    1  UNL1       -0.0578
     18 C          -7.2351    1.7518   -1.7394 C.ar    1  UNL1       -0.0498
     19 C          -8.2566    1.0325   -1.1888 C.ar    1  UNL1        0.0551
     20 C          -9.6269    1.1148   -1.7442 C.3     1  UNL1        0.4174
     21 F          -9.5995    1.8655   -2.9272 F       1  UNL1       -0.1659
     22 F         -10.4817    1.7583   -0.8419 F       1  UNL1       -0.1659
     23 F         -10.1239   -0.1469   -1.9826 F       1  UNL1       -0.1659
     24 C          -8.0269    0.2147   -0.1011 C.ar    1  UNL1       -0.0464
     25 C          -6.7327    0.1208    0.4445 C.ar    1  UNL1       -0.0406
     26 C          -6.5128   -0.7587    1.6127 C.3     1  UNL1       -0.0155
     27 C          -6.3980   -2.2763    1.3059 C.3     1  UNL1       -0.0457
     28 C          -7.5179   -1.7097    2.1123 C.3     1  UNL1       -0.0457
     29 C          -1.2698   -1.3999    0.4817 C.3     1  UNL1       -0.0357
     30 C          -0.3542   -1.3665   -0.7077 C.3     1  UNL1        0.0204
     31 N           4.6800    0.7022   -0.7737 N.am    1  UNL1       -0.1788
     32 O           5.3166    0.8369   -1.9837 O.3     1  UNL1       -0.2921
     33 C           4.4569    1.8963   -0.0429 C.2     1  UNL1        0.2256
     34 O           3.8973    1.9147    1.0753 O.2     1  UNL1       -0.2772
     35 C           7.2122    0.0821    0.6722 C.ar    1  UNL1        0.1320
     36 N           7.9798    0.0967   -0.4447 N.ar    1  UNL1       -0.2372
     37 C           8.7430    1.1643   -0.7524 C.ar    1  UNL1        0.0663
     38 C           8.7732    2.2846    0.0574 C.ar    1  UNL1        0.1594
     39 F           9.5278    3.3769   -0.2184 F       1  UNL1       -0.2023
     40 C           7.9709    2.2283    1.1939 C.ar    1  UNL1        0.0663
     41 N           7.2322    1.1449    1.4534 N.ar    1  UNL1       -0.2372
     42 H           6.3424   -2.5493    2.5152 H       1  UNL1        0.0236
     43 H           7.8922   -1.6701    2.4748 H       1  UNL1        0.0236
     44 H           6.3470   -0.8749    3.0857 H       1  UNL1        0.0236
     45 H           6.7843   -1.9931    0.2815 H       1  UNL1        0.0377
     46 H           4.5362   -1.9724    1.2870 H       1  UNL1        0.0294
     47 H           4.6898   -0.2708    1.7327 H       1  UNL1        0.0294
     48 H           4.3091   -1.1161   -2.4546 H       1  UNL1        0.0252
     49 H           3.8798   -2.4840   -1.4082 H       1  UNL1        0.0252
     50 H           5.5715   -1.9547   -1.5270 H       1  UNL1        0.0252
     51 H           2.4744   -1.5943    0.2495 H       1  UNL1        0.0538
     52 H           2.5707    0.0663    0.8291 H       1  UNL1        0.0538
     53 H           0.3324    1.8808   -0.3549 H       1  UNL1        0.0444
     54 H           0.3357    0.6476    1.0187 H       1  UNL1        0.0444
     55 H          -1.9754    1.2316   -0.9204 H       1  UNL1        0.0281
     56 H          -1.8609    1.9232    0.7817 H       1  UNL1        0.0281
     57 H          -2.3338   -0.0665    1.7293 H       1  UNL1        0.0302
     58 H          -3.4139   -0.4688   -1.1077 H       1  UNL1        0.0271
     59 H          -3.9463   -1.3412    0.3371 H       1  UNL1        0.0271
     60 H          -3.8025    1.7580    0.1287 H       1  UNL1        0.0313
     61 H          -4.3341    0.8549    1.5387 H       1  UNL1        0.0313
     62 H          -5.1443    2.2103   -1.6118 H       1  UNL1        0.0620
     63 H          -7.4304    2.3886   -2.5911 H       1  UNL1        0.0623
     64 H          -8.8425   -0.3453    0.3257 H       1  UNL1        0.0626
     65 H          -5.7268   -0.3651    2.3150 H       1  UNL1        0.0349
     66 H          -6.5304   -2.5990    0.2683 H       1  UNL1        0.0271
     67 H          -5.5463   -2.7830    1.8165 H       1  UNL1        0.0271
     68 H          -7.4524   -1.9414    3.2020 H       1  UNL1        0.0271
     69 H          -8.4996   -1.7681    1.6220 H       1  UNL1        0.0271
     70 H          -1.9514   -2.2877    0.3220 H       1  UNL1        0.0281
     71 H          -0.6972   -1.6613    1.4114 H       1  UNL1        0.0281
     72 H          -0.8639   -1.7481   -1.5986 H       1  UNL1        0.0444
     73 H           0.4939   -2.0524   -0.4958 H       1  UNL1        0.0444
     74 H           5.2413    1.7576   -2.3177 H       1  UNL1        0.2417
     75 H           4.7671    2.8519   -0.4308 H       1  UNL1        0.1274
     76 H           9.3654    1.1858   -1.6508 H       1  UNL1        0.0860
     77 H           7.9929    3.1128    1.8371 H       1  UNL1        0.0860
@<TRIPOS>BOND
     1     1     2    1
     2     2     3    1
     3     3     4    1
     4     4     5    1
     5     4     6    1
     6     6     7    1
     7     7     8    2
     8     7     9    2
     9     7    10    1
    10    10    11    1
    11    11    12    1
    12    12    13    1
    13    13    14    1
    14    14    15    1
    15    15    16    1
    16    16    17   ar
    17    17    18   ar
    18    18    19   ar
    19    19    20    1
    20    20    21    1
    21    20    22    1
    22    20    23    1
    23    19    24   ar
    24    24    25   ar
    25    25    26    1
    26    26    27    1
    27    27    28    1
    28    13    29    1
    29    29    30    1
    30     4    31    1
    31    31    32    1
    32    31    33   am
    33    33    34    2
    34     2    35    1
    35    35    36   ar
    36    36    37   ar
    37    37    38   ar
    38    38    39    1
    39    38    40   ar
    40    40    41   ar
    41    30    10    1
    42    41    35   ar
    43    25    16   ar
    44    28    26    1
    45     1    42    1
    46     1    43    1
    47     1    44    1
    48     2    45    1
    49     3    46    1
    50     3    47    1
    51     5    48    1
    52     5    49    1
    53     5    50    1
    54     6    51    1
    55     6    52    1
    56    11    53    1
    57    11    54    1
    58    12    55    1
    59    12    56    1
    60    13    57    1
    61    14    58    1
    62    14    59    1
    63    15    60    1
    64    15    61    1
    65    17    62    1
    66    18    63    1
    67    24    64    1
    68    26    65    1
    69    27    66    1
    70    27    67    1
    71    28    68    1
    72    28    69    1
    73    29    70    1
    74    29    71    1
    75    30    72    1
    76    30    73    1
    77    32    74    1
    78    33    75    1
    79    37    76    1
    80    40    77    1
