@<TRIPOS>MOLECULE
*****
 24 24 0 0 0
SMALL
GASTEIGER

@<TRIPOS>ATOM
      1 O          -3.3626   -0.5317    0.2235 O.3     1  UNK1       -0.3934
      2 C          -2.4810    0.4268   -0.2735 C.3     1  UNK1        0.0620
      3 C          -1.0851    0.0070    0.1099 C.3     1  UNK1        0.0596
      4 N          -0.7432   -1.2527   -0.4221 N.3     1  UNK1       -0.3064
      5 C           0.6032   -1.5647   -0.6277 C.3     0  UNK0        0.0249
      6 C           1.6395   -0.6977   -0.0431 C.3     1  UNK1        0.0959
      7 O           2.2717   -1.3318    1.0535 O.3     1  UNK1       -0.3879
      8 C           1.2004    0.6425    0.4290 C.3     1  UNK1        0.1095
      9 O           2.1645    1.6152    0.4039 O.3     1  UNK1       -0.3866
     10 C          -0.0560    1.0272   -0.3354 C.3     1  UNK1        0.1009
     11 O          -0.4191    2.3100    0.0444 O.3     1  UNK1       -0.3875
     12 H          -2.9159   -1.1368    0.8554 H       1  UNK1        0.2095
     13 H          -2.5753    0.5050   -1.3765 H       1  UNK1        0.0573
     14 H          -2.6936    1.4001    0.2339 H       1  UNK1        0.0573
     15 H          -1.0344   -0.0452    1.2218 H       1  UNK1        0.0509
     16 H          -1.3677   -2.0304   -0.1791 H       1  UNK1        0.1224
     17 H           0.7828   -2.6193   -0.2586 H       0  UNK0        0.0450
     18 H           0.7846   -1.6494   -1.7415 H       0  UNK0        0.0450
     19 H           2.4835   -0.5245   -0.7758 H       1  UNK1        0.0633
     20 H           2.8212   -0.6038    1.4806 H       1  UNK1        0.2099
     21 H           0.8698    0.5379    1.5023 H       1  UNK1        0.0646
     22 H           2.6124    1.7369   -0.4547 H       1  UNK1        0.2100
     23 H           0.1129    0.9825   -1.4388 H       1  UNK1        0.0636
     24 H           0.3872    2.7968    0.3685 H       1  UNK1        0.2100
@<TRIPOS>BOND
     1     1     2    1
     2     2     3    1
     3     3     4    1
     4     4     5    1
     5     5     6    1
     6     6     7    1
     7     6     8    1
     8     8     9    1
     9     8    10    1
    10    10    11    1
    11    10     3    1
    12     1    12    1
    13     2    13    1
    14     2    14    1
    15     3    15    1
    16     4    16    1
    17     5    17    1
    18     5    18    1
    19     6    19    1
    20     7    20    1
    21     8    21    1
    22     9    22    1
    23    10    23    1
    24    11    24    1
