@<TRIPOS>MOLECULE
*****
 38 41 0 0 0
SMALL
GASTEIGER

@<TRIPOS>ATOM
      1 O          -0.3828   -1.0200   -0.8494 O.2     1  UNL1       -0.2735
      2 C          -0.3379    0.1445   -1.3132 C.2     1  UNL1        0.2375
      3 C           0.9871    0.8011   -1.5315 C.3     1  UNL1        0.1032
      4 N           2.0779   -0.0312   -1.1626 N.ar    1  UNL1       -0.2992
      5 C           2.6463   -0.8295   -2.0866 C.ar    1  UNL1        0.2522
      6 O           2.1749   -0.7956   -3.2504 O.2     1  UNL1       -0.2677
      7 C           3.7150   -1.6642   -1.7764 C.ar    1  UNL1        0.0036
      8 C           4.2132   -1.6848   -0.4993 C.ar    1  UNL1       -0.0474
      9 C           3.6255   -0.8624    0.4482 C.ar    1  UNL1        0.0016
     10 C           4.0940   -0.8605    1.7347 C.ar    1  UNL1       -0.0145
     11 C           3.5677   -0.0806    2.7387 C.ar    1  UNL1        0.1591
     12 F           4.0700   -0.1139    4.0063 F       1  UNL1       -0.2025
     13 C           2.5128    0.7285    2.3908 C.ar    1  UNL1        0.1604
     14 F           1.9245    1.5295    3.2928 F       1  UNL1       -0.2024
     15 C           2.0178    0.7428    1.0825 C.ar    1  UNL1        0.0006
     16 C           2.5541   -0.0419    0.0879 C.ar    1  UNL1        0.0554
     17 N          -1.5596    0.7937   -1.6133 N.am    1  UNL1       -0.2779
     18 C          -2.7634    0.1071   -1.3790 C.ar    1  UNL1        0.0836
     19 S          -3.5521   -0.9476   -2.6611 S.2     1  UNL1       -0.0801
     20 C          -4.9670   -1.4110   -1.5704 C.ar    1  UNL1       -0.0078
     21 C          -4.7039   -0.7487   -0.4055 C.ar    1  UNL1        0.0374
     22 BR         -6.0313   -1.0109    1.0274 Br      1  UNL1       -0.0490
     23 C          -3.6027    0.0139   -0.3007 C.ar    1  UNL1        0.0614
     24 C          -3.2256    0.7805    0.9352 C.ar    1  UNL1        0.1648
     25 N          -2.1056    1.5508    1.0293 N.ar    1  UNL1       -0.1295
     26 N          -2.0238    2.1077    2.2244 N.ar    1  UNL1       -0.1377
     27 C          -3.0923    1.7081    2.9303 C.ar    1  UNL1        0.1175
     28 N          -3.8215    0.8834    2.1019 N.ar    1  UNL1       -0.3276
     29 H           1.0344    1.0623   -2.6453 H       1  UNL1        0.0589
     30 H           0.9624    1.7755   -1.0190 H       1  UNL1        0.0589
     31 H           4.1638   -2.3022   -2.5298 H       1  UNL1        0.0672
     32 H           5.0440   -2.3158   -0.2047 H       1  UNL1        0.0626
     33 H           4.9266   -1.5074    1.9839 H       1  UNL1        0.0654
     34 H           1.1952    1.3839    0.8684 H       1  UNL1        0.0668
     35 H          -1.5367    1.7624   -1.9996 H       1  UNL1        0.1554
     36 H          -5.7372   -2.0501   -1.8948 H       1  UNL1        0.0705
     37 H          -3.3663    1.9579    3.9474 H       1  UNL1        0.1046
     38 H          -4.6977    0.4447    2.4174 H       1  UNL1        0.1683
@<TRIPOS>BOND
     1     1     2    2
     2     2     3    1
     3     3     4    1
     4     4     5   ar
     5     5     6    2
     6     5     7   ar
     7     7     8   ar
     8     8     9   ar
     9     9    10   ar
    10    10    11   ar
    11    11    12    1
    12    11    13   ar
    13    13    14    1
    14    13    15   ar
    15    15    16   ar
    16     2    17   am
    17    17    18    1
    18    18    19   ar
    19    19    20   ar
    20    20    21   ar
    21    21    22    1
    22    21    23   ar
    23    23    24    1
    24    24    25   ar
    25    25    26   ar
    26    26    27   ar
    27    27    28   ar
    28    16     4   ar
    29    23    18   ar
    30    28    24   ar
    31    16     9   ar
    32     3    29    1
    33     3    30    1
    34     7    31    1
    35     8    32    1
    36    10    33    1
    37    15    34    1
    38    17    35    1
    39    20    36    1
    40    27    37    1
    41    28    38    1
