@<TRIPOS>MOLECULE
*****
 129 134 0 0 0
SMALL
GASTEIGER

@<TRIPOS>ATOM
      1 C           1.4908   -0.6233   -2.2653 C.3     1  UNL1        0.0768
      2 C           0.5630   -1.3879   -3.2057 C.3     1  UNL1       -0.0370
      3 O           1.9951    0.4000   -2.9885 O.3     1  UNL1       -0.3441
      4 C           2.7011    1.3405   -2.2126 C.3     1  UNL1        0.1882
      5 O           3.5002    0.6895   -1.2777 O.3     1  UNL1       -0.3401
      6 C           4.8545    0.9030   -1.4990 C.3     1  UNL1        0.1184
      7 C           5.5490   -0.3689   -1.9482 C.3     1  UNL1        0.1134
      8 C           6.5885   -0.1153   -3.0148 C.3     1  UNL1        0.0730
      9 O           6.9779   -1.3681   -3.5279 O.3     1  UNL1       -0.3924
     10 O           5.9809   -1.1513   -0.9031 O.3     1  UNL1       -0.3405
     11 C           6.9622   -0.4610   -0.1271 C.3     1  UNL1        0.1880
     12 O           7.4524   -1.3748    0.7227 O.3     1  UNL1       -0.3460
     13 C           8.7310   -1.7569    0.7171 C.3     1  UNL1        0.0796
     14 C           9.8521   -0.8371    1.0205 C.3     1  UNL1        0.1134
     15 O          11.0790   -1.6042    1.0494 O.3     1  UNL1       -0.3407
     16 C          11.9081   -0.9550    1.9499 C.3     1  UNL1        0.1854
     17 O          13.0531   -1.6845    2.2237 O.3     1  UNL1       -0.3649
     18 C          12.2764    0.3902    1.3716 C.3     1  UNL1        0.1339
     19 O          11.8666    1.4417    2.2057 O.3     1  UNL1       -0.3841
     20 C          11.6619    0.5616    0.0240 C.3     1  UNL1        0.1141
     21 O          12.2660   -0.2005   -0.9588 O.3     1  UNL1       -0.3864
     22 C          10.1491    0.2605    0.0492 C.3     1  UNL1        0.1119
     23 O           9.5636    1.4535    0.4602 O.3     1  UNL1       -0.3865
     24 C           6.2772    0.7140    0.5602 C.3     1  UNL1        0.1341
     25 O           5.2962    0.1762    1.4229 O.3     1  UNL1       -0.3841
     26 C           5.5554    1.6170   -0.3811 C.3     1  UNL1        0.1144
     27 O           6.5421    2.4535   -0.9582 O.3     1  UNL1       -0.3864
     28 C           1.5973    2.0538   -1.4936 C.3     1  UNL1        0.1332
     29 O           1.9955    3.1860   -0.8075 O.3     1  UNL1       -0.3841
     30 C           1.0557    1.0880   -0.4801 C.3     1  UNL1        0.1035
     31 O          -0.0554    1.7366    0.0843 O.3     1  UNL1       -0.3874
     32 C           0.6559   -0.2727   -1.0494 C.3     1  UNL1        0.0631
     33 N           0.9294   -1.2342   -0.0815 N.3     1  UNL1       -0.3002
     34 C           0.2168   -1.5745    1.0334 C.3     1  UNL1        0.0555
     35 C          -0.0327   -0.4142    1.9232 C.2     1  UNL1       -0.0608
     36 C          -1.2125   -0.0495    2.5097 C.2     1  UNL1       -0.0158
     37 C          -1.3854    1.1331    3.3916 C.3     1  UNL1        0.0678
     38 O          -2.3320    1.9924    2.8273 O.3     1  UNL1       -0.3906
     39 C          -2.4437   -0.8127    2.3332 C.3     1  UNL1        0.1132
     40 O          -3.4634   -0.3433    1.6328 O.3     1  UNL1       -0.3384
     41 C          -4.7048   -0.1749    2.1324 C.3     1  UNL1        0.1887
     42 O          -5.3773    0.9802    1.8953 O.3     1  UNL1       -0.3405
     43 C          -6.2660    0.9579    0.8420 C.3     1  UNL1        0.1134
     44 C          -6.8193    2.3599    0.6805 C.3     1  UNL1        0.0730
     45 O          -5.7297    3.2059    0.4165 O.3     1  UNL1       -0.3924
     46 C          -7.4414    0.0339    1.0309 C.3     1  UNL1        0.1184
     47 O          -7.8670   -0.4166   -0.2122 O.3     1  UNL1       -0.3401
     48 C          -9.2213   -0.1518   -0.4402 C.3     1  UNL1        0.1884
     49 O          -9.3145    0.7194   -1.4864 O.3     1  UNL1       -0.3405
     50 C         -10.5685    1.0655   -1.9062 C.3     1  UNL1        0.1130
     51 C         -11.0928    2.3205   -1.2321 C.3     1  UNL1        0.0730
     52 O         -10.2593    3.4162   -1.4925 O.3     1  UNL1       -0.3924
     53 C         -11.5754   -0.0365   -1.8191 C.3     1  UNL1        0.1119
     54 O         -12.4514    0.0378   -2.8871 O.3     1  UNL1       -0.3865
     55 C         -10.9350   -1.4020   -1.7082 C.3     1  UNL1        0.1141
     56 O         -11.8635   -2.4107   -1.5696 O.3     1  UNL1       -0.3864
     57 C         -10.0041   -1.4158   -0.5461 C.3     1  UNL1        0.1341
     58 O          -9.0795   -2.4610   -0.7739 O.3     1  UNL1       -0.3841
     59 C          -6.9372   -1.1188    1.8769 C.3     1  UNL1        0.1144
     60 O          -6.9750   -0.7080    3.2068 O.3     1  UNL1       -0.3864
     61 C          -5.5160   -1.3365    1.4994 C.3     1  UNL1        0.1341
     62 O          -5.2452   -1.5000    0.1728 O.3     1  UNL1       -0.3841
     63 C          -2.0322   -2.2493    1.9682 C.3     1  UNL1        0.1128
     64 O          -1.4386   -2.8059    3.1005 O.3     1  UNL1       -0.3863
     65 C          -1.1019   -2.2727    0.8084 C.3     1  UNL1        0.1026
     66 O          -1.7266   -1.6500   -0.2668 O.3     1  UNL1       -0.3873
     67 H           2.3125   -1.3276   -2.0212 H       1  UNL1        0.0611
     68 H           1.1278   -1.7471   -4.1016 H       1  UNL1        0.0255
     69 H          -0.1220   -0.5907   -3.6216 H       1  UNL1        0.0255
     70 H           0.0120   -2.1755   -2.6964 H       1  UNL1        0.0255
     71 H           3.2283    1.9619   -2.9286 H       1  UNL1        0.0937
     72 H           4.8924    1.5717   -2.3982 H       1  UNL1        0.0651
     73 H           4.7662   -0.9967   -2.4723 H       1  UNL1        0.0647
     74 H           6.0804    0.4055   -3.8580 H       1  UNL1        0.0584
     75 H           7.4186    0.5218   -2.7198 H       1  UNL1        0.0584
     76 H           7.8284   -1.2037   -4.0091 H       1  UNL1        0.2095
     77 H           7.7230   -0.0531   -0.7981 H       1  UNL1        0.0937
     78 H           8.8103   -2.5825    1.5245 H       1  UNL1        0.0587
     79 H           8.9908   -2.3854   -0.2058 H       1  UNL1        0.0587
     80 H           9.7422   -0.4568    2.0480 H       1  UNL1        0.0647
     81 H          11.3686   -0.7784    2.9210 H       1  UNL1        0.0935
     82 H          13.6992   -1.5417    1.4895 H       1  UNL1        0.2126
     83 H          13.3663    0.4961    1.2652 H       1  UNL1        0.0671
     84 H          12.3779    2.2476    1.9158 H       1  UNL1        0.2101
     85 H          11.7555    1.6157   -0.3003 H       1  UNL1        0.0648
     86 H          12.6267   -1.0265   -0.5944 H       1  UNL1        0.2100
     87 H           9.9240    0.0361   -1.0073 H       1  UNL1        0.0647
     88 H          10.0106    2.2367    0.0200 H       1  UNL1        0.2100
     89 H           6.9513    1.2787    1.2105 H       1  UNL1        0.0671
     90 H           5.0534   -0.7370    1.0860 H       1  UNL1        0.2101
     91 H           4.7931    2.2515    0.1146 H       1  UNL1        0.0648
     92 H           6.7961    3.1838   -0.3491 H       1  UNL1        0.2100
     93 H           0.7664    2.2594   -2.2060 H       1  UNL1        0.0671
     94 H           1.4270    3.9303   -1.1324 H       1  UNL1        0.2101
     95 H           1.8232    1.0155    0.3123 H       1  UNL1        0.0637
     96 H          -0.7117    1.9506   -0.6471 H       1  UNL1        0.2100
     97 H          -0.3952   -0.1109   -1.3592 H       1  UNL1        0.0512
     98 H           1.5228   -2.0212   -0.4147 H       1  UNL1        0.1230
     99 H           0.8441   -2.3527    1.6111 H       1  UNL1        0.0531
    100 H           0.7265    0.2978    2.2398 H       1  UNL1        0.0589
    101 H          -1.5779    0.8973    4.4366 H       1  UNL1        0.0605
    102 H          -0.4339    1.7310    3.3976 H       1  UNL1        0.0605
    103 H          -2.5435    2.7626    3.3825 H       1  UNL1        0.2098
    104 H          -2.8708   -0.9807    3.3510 H       1  UNL1        0.0672
    105 H          -4.8547   -0.4293    3.2031 H       1  UNL1        0.0938
    106 H          -5.7441    0.7618   -0.1403 H       1  UNL1        0.0647
    107 H          -7.5599    2.4005   -0.1483 H       1  UNL1        0.0584
    108 H          -7.2626    2.6898    1.6414 H       1  UNL1        0.0584
    109 H          -5.4025    3.0956   -0.4935 H       1  UNL1        0.2095
    110 H          -8.2994    0.5117    1.5418 H       1  UNL1        0.0651
    111 H          -9.5898    0.3708    0.4887 H       1  UNL1        0.0938
    112 H         -10.4758    1.3325   -2.9948 H       1  UNL1        0.0647
    113 H         -11.1288    2.2198   -0.1250 H       1  UNL1        0.0584
    114 H         -12.0769    2.6026   -1.6599 H       1  UNL1        0.0584
    115 H         -10.7180    4.2503   -1.3002 H       1  UNL1        0.2095
    116 H         -12.1609    0.1113   -0.8767 H       1  UNL1        0.0647
    117 H         -12.5390   -0.8672   -3.2645 H       1  UNL1        0.2100
    118 H         -10.3426   -1.5422   -2.6399 H       1  UNL1        0.0648
    119 H         -12.6096   -2.1791   -0.9636 H       1  UNL1        0.2100
    120 H         -10.4910   -1.6851    0.4129 H       1  UNL1        0.0671
    121 H          -9.5925   -3.3006   -0.5628 H       1  UNL1        0.2101
    122 H          -7.5889   -2.0130    1.8203 H       1  UNL1        0.0648
    123 H          -7.1862    0.2490    3.2905 H       1  UNL1        0.2100
    124 H          -5.1950   -2.2915    2.0115 H       1  UNL1        0.0671
    125 H          -6.0317   -1.8722   -0.2740 H       1  UNL1        0.2101
    126 H          -2.8864   -2.8715    1.7158 H       1  UNL1        0.0649
    127 H          -1.6644   -3.7872    3.1774 H       1  UNL1        0.2100
    128 H          -0.8894   -3.3487    0.5947 H       1  UNL1        0.0639
    129 H          -2.4958   -2.2227   -0.5618 H       1  UNL1        0.2100
@<TRIPOS>BOND
     1     1     2    1
     2     1     3    1
     3     3     4    1
     4     4     5    1
     5     5     6    1
     6     6     7    1
     7     7     8    1
     8     8     9    1
     9     7    10    1
    10    10    11    1
    11    11    12    1
    12    12    13    1
    13    13    14    1
    14    14    15    1
    15    15    16    1
    16    16    17    1
    17    16    18    1
    18    18    19    1
    19    18    20    1
    20    20    21    1
    21    20    22    1
    22    22    23    1
    23    11    24    1
    24    24    25    1
    25    24    26    1
    26    26    27    1
    27     4    28    1
    28    28    29    1
    29    28    30    1
    30    30    31    1
    31    30    32    1
    32    32    33    1
    33    33    34    1
    34    34    35    1
    35    35    36    2
    36    36    37    1
    37    37    38    1
    38    36    39    1
    39    39    40    1
    40    40    41    1
    41    41    42    1
    42    42    43    1
    43    43    44    1
    44    44    45    1
    45    43    46    1
    46    46    47    1
    47    47    48    1
    48    48    49    1
    49    49    50    1
    50    50    51    1
    51    51    52    1
    52    50    53    1
    53    53    54    1
    54    53    55    1
    55    55    56    1
    56    55    57    1
    57    57    58    1
    58    46    59    1
    59    59    60    1
    60    59    61    1
    61    61    62    1
    62    39    63    1
    63    63    64    1
    64    63    65    1
    65    65    66    1
    66    32     1    1
    67    65    34    1
    68    26     6    1
    69    61    41    1
    70    22    14    1
    71    57    48    1
    72     1    67    1
    73     2    68    1
    74     2    69    1
    75     2    70    1
    76     4    71    1
    77     6    72    1
    78     7    73    1
    79     8    74    1
    80     8    75    1
    81     9    76    1
    82    11    77    1
    83    13    78    1
    84    13    79    1
    85    14    80    1
    86    16    81    1
    87    17    82    1
    88    18    83    1
    89    19    84    1
    90    20    85    1
    91    21    86    1
    92    22    87    1
    93    23    88    1
    94    24    89    1
    95    25    90    1
    96    26    91    1
    97    27    92    1
    98    28    93    1
    99    29    94    1
   100    30    95    1
   101    31    96    1
   102    32    97    1
   103    33    98    1
   104    34    99    1
   105    35   100    1
   106    37   101    1
   107    37   102    1
   108    38   103    1
   109    39   104    1
   110    41   105    1
   111    43   106    1
   112    44   107    1
   113    44   108    1
   114    45   109    1
   115    46   110    1
   116    48   111    1
   117    50   112    1
   118    51   113    1
   119    51   114    1
   120    52   115    1
   121    53   116    1
   122    54   117    1
   123    55   118    1
   124    56   119    1
   125    57   120    1
   126    58   121    1
   127    59   122    1
   128    60   123    1
   129    61   124    1
   130    62   125    1
   131    63   126    1
   132    64   127    1
   133    65   128    1
   134    66   129    1
