@<TRIPOS>MOLECULE
*****
 79 85 0 0 0
SMALL
GASTEIGER

@<TRIPOS>ATOM
      1 C          -6.9696    4.6192   -0.0537 C.3     1  UNL1       -0.0397
      2 C          -6.5237    3.1923    0.0233 C.ar    1  UNL1       -0.0503
      3 C          -7.0565    2.3210    0.9384 C.ar    1  UNL1       -0.0568
      4 C          -6.6334    1.0087    0.9957 C.ar    1  UNL1       -0.0359
      5 C          -5.6560    0.5240    0.1319 C.ar    1  UNL1        0.0674
      6 N          -5.2350   -0.8306    0.2104 N.ar    1  UNL1       -0.2181
      7 N          -5.8233   -1.8645   -0.3700 N.ar    1  UNL1       -0.1691
      8 C          -5.1730   -3.0086   -0.0908 C.ar    1  UNL1        0.0706
      9 C          -5.5173   -4.3941   -0.5553 C.3     1  UNL1        0.0063
     10 C          -4.4873   -5.3444    0.0286 C.3     1  UNL1       -0.0546
     11 C          -6.8833   -4.7550   -0.0206 C.3     1  UNL1       -0.0546
     12 C          -5.4497   -4.4997   -2.0542 C.3     1  UNL1       -0.0546
     13 C          -4.1131   -2.6261    0.7201 C.ar    1  UNL1        0.0021
     14 C          -4.1572   -1.2606    0.9051 C.ar    1  UNL1        0.1299
     15 N          -3.2305   -0.5115    1.6809 N.am    1  UNL1       -0.2538
     16 C          -2.0574   -0.0117    1.0497 C.2     1  UNL1        0.3092
     17 O          -1.8888   -0.2575   -0.1622 O.2     1  UNL1       -0.2521
     18 N          -1.0976    0.7464    1.7669 N.am    1  UNL1       -0.2686
     19 C           0.0838    1.2531    1.1650 C.ar    1  UNL1        0.0427
     20 C           1.2677    0.5807    1.1291 C.ar    1  UNL1       -0.0363
     21 C           2.3925    1.1371    0.5156 C.ar    1  UNL1       -0.0169
     22 C           2.3885    2.3749   -0.0833 C.ar    1  UNL1        0.1381
     23 O           3.4504    2.9520   -0.6876 O.3     1  UNL1       -0.4373
     24 C           4.7075    2.4623   -0.8277 C.ar    1  UNL1        0.2249
     25 C           5.6267    3.2742   -1.5102 C.ar    1  UNL1        0.0186
     26 C           6.9198    2.8751   -1.7060 C.ar    1  UNL1        0.0362
     27 N           7.2849    1.6761   -1.2226 N.ar    1  UNL1       -0.2225
     28 C           6.4529    0.8662   -0.5676 C.ar    1  UNL1        0.2226
     29 N           6.8875   -0.3817   -0.0800 N.pl3   1  UNL1       -0.2823
     30 C           8.1553   -0.9709   -0.2262 C.ar    1  UNL1        0.0526
     31 C           9.1618   -0.5305   -1.0237 C.ar    1  UNL1        0.0512
     32 N          10.3754   -1.1677   -1.0885 N.ar    1  UNL1       -0.2342
     33 C          10.6537   -2.2636   -0.3748 C.ar    1  UNL1        0.1557
     34 N          11.7551   -3.0617   -0.2646 N.ar    1  UNL1       -0.2602
     35 N          11.4658   -4.0099    0.5950 N.ar    1  UNL1       -0.1799
     36 C          10.2174   -3.8743    1.0603 C.ar    1  UNL1        0.0585
     37 C           9.6669   -2.7526    0.4505 C.ar    1  UNL1        0.0401
     38 C           8.4435   -2.1238    0.5264 C.ar    1  UNL1       -0.0268
     39 N           5.1913    1.3000   -0.3986 N.ar    1  UNL1       -0.1789
     40 C           1.1483    3.0574   -0.0350 C.ar    1  UNL1        0.0262
     41 C           1.1161    4.3169   -0.6362 C.ar    1  UNL1       -0.0505
     42 C          -0.0713    5.0217   -0.6154 C.ar    1  UNL1       -0.0611
     43 C          -1.1834    4.4640   -0.0049 C.ar    1  UNL1       -0.0611
     44 C          -1.1130    3.2306    0.5720 C.ar    1  UNL1       -0.0521
     45 C           0.0568    2.4956    0.5711 C.ar    1  UNL1        0.0069
     46 C          -5.1340    1.4105   -0.7776 C.ar    1  UNL1       -0.0359
     47 C          -5.5552    2.7327   -0.8409 C.ar    1  UNL1       -0.0568
     48 H          -6.4204    5.2214    0.6982 H       1  UNL1        0.0278
     49 H          -8.0629    4.6506    0.0717 H       1  UNL1        0.0278
     50 H          -6.7429    5.0539   -1.0481 H       1  UNL1        0.0278
     51 H          -7.8281    2.7010    1.6216 H       1  UNL1        0.0621
     52 H          -7.0472    0.3209    1.7108 H       1  UNL1        0.0639
     53 H          -4.8207   -6.3812   -0.1828 H       1  UNL1        0.0239
     54 H          -3.4993   -5.2048   -0.4338 H       1  UNL1        0.0239
     55 H          -4.3823   -5.1629    1.1326 H       1  UNL1        0.0239
     56 H          -6.8512   -5.8327    0.2306 H       1  UNL1        0.0239
     57 H          -7.6711   -4.5573   -0.7769 H       1  UNL1        0.0239
     58 H          -7.0622   -4.2004    0.9063 H       1  UNL1        0.0239
     59 H          -6.3851   -5.0243   -2.3894 H       1  UNL1        0.0239
     60 H          -5.3261   -3.5202   -2.5612 H       1  UNL1        0.0239
     61 H          -4.6135   -5.1387   -2.3759 H       1  UNL1        0.0239
     62 H          -3.3964   -3.3336    1.1154 H       1  UNL1        0.0671
     63 H          -3.4286   -0.3404    2.6935 H       1  UNL1        0.1578
     64 H          -1.2686    0.9394    2.7825 H       1  UNL1        0.1564
     65 H           1.3145   -0.3926    1.5863 H       1  UNL1        0.0637
     66 H           3.3002    0.5304    0.5325 H       1  UNL1        0.0655
     67 H           5.2731    4.2380   -1.8810 H       1  UNL1        0.0686
     68 H           7.6518    3.4737   -2.2256 H       1  UNL1        0.0832
     69 H           6.1238   -0.9166    0.4637 H       1  UNL1        0.1551
     70 H           9.0046    0.3487   -1.6372 H       1  UNL1        0.0849
     71 H          12.6507   -2.8912   -0.8039 H       1  UNL1        0.1905
     72 H           9.6755   -4.4910    1.7809 H       1  UNL1        0.0854
     73 H           7.6813   -2.5134    1.1730 H       1  UNL1        0.0644
     74 H           2.0015    4.7249   -1.1048 H       1  UNL1        0.0625
     75 H          -0.1077    5.9961   -1.0774 H       1  UNL1        0.0618
     76 H          -2.1399    5.0027    0.0266 H       1  UNL1        0.0618
     77 H          -1.9692    2.7912    1.0463 H       1  UNL1        0.0624
     78 H          -4.3852    1.0853   -1.4574 H       1  UNL1        0.0639
     79 H          -5.1283    3.4315   -1.5744 H       1  UNL1        0.0621
@<TRIPOS>BOND
     1     1     2    1
     2     2     3   ar
     3     3     4   ar
     4     4     5   ar
     5     5     6    1
     6     6     7   ar
     7     7     8   ar
     8     8     9    1
     9     9    10    1
    10     9    11    1
    11     9    12    1
    12     8    13   ar
    13    13    14   ar
    14    14    15    1
    15    15    16   am
    16    16    17    2
    17    16    18   am
    18    18    19    1
    19    19    20   ar
    20    20    21   ar
    21    21    22   ar
    22    22    23    1
    23    23    24    1
    24    24    25   ar
    25    25    26   ar
    26    26    27   ar
    27    27    28   ar
    28    28    29    1
    29    29    30    1
    30    30    31   ar
    31    31    32   ar
    32    32    33   ar
    33    33    34   ar
    34    34    35   ar
    35    35    36   ar
    36    36    37   ar
    37    37    38   ar
    38    28    39   ar
    39    22    40   ar
    40    40    41   ar
    41    41    42   ar
    42    42    43   ar
    43    43    44   ar
    44    44    45   ar
    45     5    46   ar
    46    46    47   ar
    47    47     2   ar
    48    14     6   ar
    49    45    19   ar
    50    39    24   ar
    51    45    40   ar
    52    38    30   ar
    53    37    33   ar
    54     1    48    1
    55     1    49    1
    56     1    50    1
    57     3    51    1
    58     4    52    1
    59    10    53    1
    60    10    54    1
    61    10    55    1
    62    11    56    1
    63    11    57    1
    64    11    58    1
    65    12    59    1
    66    12    60    1
    67    12    61    1
    68    13    62    1
    69    15    63    1
    70    18    64    1
    71    20    65    1
    72    21    66    1
    73    25    67    1
    74    26    68    1
    75    29    69    1
    76    31    70    1
    77    34    71    1
    78    36    72    1
    79    38    73    1
    80    41    74    1
    81    42    75    1
    82    43    76    1
    83    44    77    1
    84    46    78    1
    85    47    79    1
