@<TRIPOS>MOLECULE
*****
 82 85 0 0 0
SMALL
GASTEIGER

@<TRIPOS>ATOM
      1 C          -7.8379   -1.3971    1.7327 C.3     1  UNL1        0.0788
      2 O          -7.5131   -2.3615    0.7983 O.3     1  UNL1       -0.4950
      3 C          -6.3006   -2.5843    0.1975 C.ar    1  UNL1        0.1241
      4 C          -6.1598   -3.6067   -0.7310 C.ar    1  UNL1        0.0218
      5 C          -4.9391   -3.8633   -1.3659 C.ar    1  UNL1        0.1241
      6 O          -4.8612   -4.8958   -2.2764 O.3     1  UNL1       -0.4950
      7 C          -3.7026   -5.2824   -2.9672 C.3     1  UNL1        0.0788
      8 C          -3.8970   -3.0527   -1.0230 C.ar    1  UNL1       -0.0119
      9 C          -4.0061   -2.0020   -0.0813 C.ar    1  UNL1       -0.0077
     10 C          -2.8416   -1.1733    0.1761 C.ar    1  UNL1        0.0232
     11 C          -1.5737   -1.6975   -0.0259 C.ar    1  UNL1       -0.0401
     12 C          -0.4171   -0.9231    0.1249 C.ar    1  UNL1        0.0193
     13 C           0.8396   -1.4334   -0.0731 C.ar    1  UNL1        0.0389
     14 N           1.9464   -0.6834    0.0740 N.ar    1  UNL1       -0.2398
     15 C           1.9154    0.6089    0.4215 C.ar    1  UNL1        0.1207
     16 N           3.0631    1.4170    0.6340 N.pl3   1  UNL1       -0.3290
     17 C           4.1425    0.9048    1.4352 C.3     1  UNL1        0.0104
     18 C           4.9390   -0.1099    0.7019 C.3     1  UNL1       -0.0374
     19 C           5.6188    0.5437   -0.4858 C.3     1  UNL1       -0.0505
     20 C           6.5685    1.6386   -0.0193 C.3     1  UNL1       -0.0402
     21 C           7.6125    0.9704    0.8703 C.3     1  UNL1       -0.0009
     22 N           8.3115   -0.0026    0.0554 N.3     1  UNL1       -0.2980
     23 C           9.1187    0.6961   -0.8884 C.3     1  UNL1        0.0224
     24 C          10.4220    0.0656   -1.2397 C.3     1  UNL1        0.0604
     25 O          10.9997   -0.6690   -0.2298 O.3     1  UNL1       -0.3772
     26 C          10.0923   -1.6835    0.1275 C.3     1  UNL1        0.0604
     27 C           8.9477   -0.9944    0.8451 C.3     1  UNL1        0.0224
     28 C           0.6375    1.1461    0.6257 C.ar    1  UNL1        0.0041
     29 C          -0.5144    0.4004    0.4831 C.ar    1  UNL1        0.0778
     30 N          -1.7285    0.8888    0.6754 N.ar    1  UNL1       -0.2310
     31 C          -2.8824    0.1486    0.5357 C.ar    1  UNL1        0.1345
     32 N          -4.0395    0.8714    0.8733 N.am    1  UNL1       -0.2537
     33 C          -4.7738    1.6228   -0.0497 C.2     1  UNL1        0.3053
     34 O          -4.5081    1.6816   -1.2812 O.2     1  UNL1       -0.2525
     35 N          -5.8856    2.3634    0.4735 N.am    1  UNL1       -0.2944
     36 C          -6.6512    3.1811   -0.4384 C.3     1  UNL1        0.0276
     37 C          -7.7613    3.8417    0.3914 C.3     1  UNL1       -0.0442
     38 C          -7.2920    2.3990   -1.5567 C.3     1  UNL1       -0.0442
     39 C          -5.7307    4.2472   -1.0009 C.3     1  UNL1       -0.0442
     40 C          -5.2063   -1.7791    0.5199 C.ar    1  UNL1       -0.0119
     41 H          -8.0363   -0.4386    1.1801 H       1  UNL1        0.0660
     42 H          -6.9968   -1.2116    2.4062 H       1  UNL1        0.0660
     43 H          -8.7848   -1.6207    2.2855 H       1  UNL1        0.0660
     44 H          -6.9818   -4.2369   -0.9907 H       1  UNL1        0.0691
     45 H          -3.2385   -6.1423   -2.4037 H       1  UNL1        0.0660
     46 H          -2.9210   -4.5049   -3.0298 H       1  UNL1        0.0660
     47 H          -3.9692   -5.6304   -4.0013 H       1  UNL1        0.0660
     48 H          -2.9369   -3.2140   -1.4988 H       1  UNL1        0.0660
     49 H          -1.4731   -2.7352   -0.2990 H       1  UNL1        0.0632
     50 H           0.9372   -2.4713   -0.3549 H       1  UNL1        0.0837
     51 H           3.1034    2.3574    0.2099 H       1  UNL1        0.1474
     52 H           3.7500    0.3907    2.3659 H       1  UNL1        0.0461
     53 H           4.7666    1.7349    1.8552 H       1  UNL1        0.0461
     54 H           4.2338   -0.8538    0.2552 H       1  UNL1        0.0280
     55 H           5.6462   -0.6668    1.3323 H       1  UNL1        0.0280
     56 H           4.8903    0.9473   -1.1839 H       1  UNL1        0.0266
     57 H           6.2106   -0.2509   -0.9782 H       1  UNL1        0.0266
     58 H           6.0630    2.4750    0.4622 H       1  UNL1        0.0278
     59 H           7.0793    2.0418   -0.9387 H       1  UNL1        0.0278
     60 H           7.1503    0.5730    1.7706 H       1  UNL1        0.0427
     61 H           8.3428    1.7956    1.1533 H       1  UNL1        0.0427
     62 H           8.5337    0.7988   -1.8377 H       1  UNL1        0.0449
     63 H           9.2830    1.7699   -0.5596 H       1  UNL1        0.0449
     64 H          11.1532    0.9001   -1.4593 H       1  UNL1        0.0572
     65 H          10.3327   -0.4943   -2.1915 H       1  UNL1        0.0572
     66 H           9.7357   -2.2201   -0.7565 H       1  UNL1        0.0572
     67 H          10.5462   -2.3971    0.8187 H       1  UNL1        0.0572
     68 H           8.1844   -1.8097    1.0277 H       1  UNL1        0.0449
     69 H           9.2855   -0.6711    1.8502 H       1  UNL1        0.0449
     70 H           0.5729    2.1674    0.8980 H       1  UNL1        0.0673
     71 H          -4.2938    0.8416    1.9124 H       1  UNL1        0.1578
     72 H          -6.1138    2.2922    1.4920 H       1  UNL1        0.1508
     73 H          -8.5385    4.1333   -0.3131 H       1  UNL1        0.0250
     74 H          -7.2812    4.7006    0.9098 H       1  UNL1        0.0250
     75 H          -8.0638    3.1030    1.1541 H       1  UNL1        0.0250
     76 H          -6.7912    2.5492   -2.5360 H       1  UNL1        0.0250
     77 H          -8.3449    2.7329   -1.7149 H       1  UNL1        0.0250
     78 H          -7.2630    1.3322   -1.2661 H       1  UNL1        0.0250
     79 H          -5.7334    4.1840   -2.1024 H       1  UNL1        0.0250
     80 H          -6.1349    5.2290   -0.6828 H       1  UNL1        0.0250
     81 H          -4.6830    4.0932   -0.6535 H       1  UNL1        0.0250
     82 H          -5.3724   -1.0154    1.2414 H       1  UNL1        0.0660
@<TRIPOS>BOND
     1     1     2    1
     2     2     3    1
     3     3     4   ar
     4     4     5   ar
     5     5     6    1
     6     6     7    1
     7     5     8   ar
     8     8     9   ar
     9     9    10    1
    10    10    11   ar
    11    11    12   ar
    12    12    13   ar
    13    13    14   ar
    14    14    15   ar
    15    15    16    1
    16    16    17    1
    17    17    18    1
    18    18    19    1
    19    19    20    1
    20    20    21    1
    21    21    22    1
    22    22    23    1
    23    23    24    1
    24    24    25    1
    25    25    26    1
    26    26    27    1
    27    15    28   ar
    28    28    29   ar
    29    29    30   ar
    30    30    31   ar
    31    31    32    1
    32    32    33   am
    33    33    34    2
    34    33    35   am
    35    35    36    1
    36    36    37    1
    37    36    38    1
    38    36    39    1
    39     9    40   ar
    40    40     3   ar
    41    31    10   ar
    42    29    12   ar
    43    27    22    1
    44     1    41    1
    45     1    42    1
    46     1    43    1
    47     4    44    1
    48     7    45    1
    49     7    46    1
    50     7    47    1
    51     8    48    1
    52    11    49    1
    53    13    50    1
    54    16    51    1
    55    17    52    1
    56    17    53    1
    57    18    54    1
    58    18    55    1
    59    19    56    1
    60    19    57    1
    61    20    58    1
    62    20    59    1
    63    21    60    1
    64    21    61    1
    65    23    62    1
    66    23    63    1
    67    24    64    1
    68    24    65    1
    69    26    66    1
    70    26    67    1
    71    27    68    1
    72    27    69    1
    73    28    70    1
    74    32    71    1
    75    35    72    1
    76    37    73    1
    77    37    74    1
    78    37    75    1
    79    38    76    1
    80    38    77    1
    81    38    78    1
    82    39    79    1
    83    39    80    1
    84    39    81    1
    85    40    82    1
