@<TRIPOS>MOLECULE
*****
 66 65 0 0 0
SMALL
GASTEIGER

@<TRIPOS>ATOM
      1 C           4.1234    1.9864   -1.3747 C.3     1  UNL1       -0.0127
      2 N           3.6323    1.0950   -0.4133 N.3     1  UNL1       -0.3029
      3 C           4.0921   -0.2202   -0.3366 C.3     1  UNL1        0.0226
      4 C           5.5268   -0.4112    0.1021 C.3     1  UNL1        0.0718
      5 O           5.8048   -1.7937    0.1192 O.3     1  UNL1       -0.2851
      6 P           7.3967   -2.0938    0.5352 P.3     1  UNL1        0.4834
      7 O           7.8863   -1.1025    1.8061 O.3     1  UNL1       -0.3022
      8 O           7.5157   -3.5464    0.9664 O.2     1  UNL1       -0.2269
      9 O           8.4239   -1.8828   -0.8174 O.3     1  UNL1       -0.1862
     10 P           9.8962   -1.3059   -0.1870 P.3     1  UNL1        0.4808
     11 O           9.7740    0.3680    0.0573 O.3     1  UNL1       -0.3023
     12 O          11.1441   -1.5578   -1.3133 O.3     1  UNL1       -0.3023
     13 O          10.1664   -2.0536    1.0968 O.2     1  UNL1       -0.2271
     14 C           3.0804    1.7308    0.7223 C.3     1  UNL1        0.0021
     15 C           1.7957    2.4247    0.2318 C.3     1  UNL1       -0.0217
     16 C           0.9624    1.2817   -0.3014 C.2     1  UNL1       -0.0838
     17 C          -0.2343    0.7748   -0.0095 C.2     1  UNL1       -0.0762
     18 C          -0.8856    1.5177    1.0973 C.3     1  UNL1       -0.0438
     19 C          -0.6706   -0.3867   -0.7804 C.3     1  UNL1       -0.0286
     20 C          -1.9075   -0.2403   -1.5893 C.3     1  UNL1       -0.0308
     21 C          -3.1214    0.1009   -0.8114 C.2     1  UNL1       -0.0847
     22 C          -4.3261   -0.4515   -0.5439 C.2     1  UNL1       -0.0762
     23 C          -4.4713   -1.7535   -1.2091 C.3     1  UNL1       -0.0438
     24 C          -5.2152    0.3287    0.3473 C.3     1  UNL1       -0.0286
     25 C          -6.4939    0.7423   -0.2781 C.3     1  UNL1       -0.0308
     26 C          -7.2884   -0.4263   -0.6954 C.2     1  UNL1       -0.0850
     27 C          -8.4860   -0.6281   -0.1438 C.2     1  UNL1       -0.0796
     28 C          -9.0217    0.3095    0.8801 C.3     1  UNL1       -0.0440
     29 C          -9.3799   -1.7920   -0.4997 C.3     1  UNL1       -0.0440
     30 H           3.3186    2.1130   -2.1589 H       1  UNL1        0.0391
     31 H           4.2641    3.0214   -0.9754 H       1  UNL1        0.0391
     32 H           5.0671    1.6466   -1.8517 H       1  UNL1        0.0391
     33 H           4.0121   -0.6804   -1.3574 H       1  UNL1        0.0449
     34 H           3.3971   -0.8322    0.2997 H       1  UNL1        0.0449
     35 H           5.7343    0.0738    1.0601 H       1  UNL1        0.0578
     36 H           6.1432    0.0559   -0.6962 H       1  UNL1        0.0578
     37 H           7.6591   -1.5406    2.6530 H       1  UNL1        0.2220
     38 H           8.9419    0.7019   -0.3544 H       1  UNL1        0.2220
     39 H          10.9313   -0.9942   -2.0951 H       1  UNL1        0.2220
     40 H           3.7566    2.4590    1.2130 H       1  UNL1        0.0429
     41 H           2.7182    0.9594    1.4418 H       1  UNL1        0.0429
     42 H           2.0681    3.1328   -0.5774 H       1  UNL1        0.0320
     43 H           1.3427    2.9317    1.0808 H       1  UNL1        0.0320
     44 H           1.5583    0.8241   -1.1155 H       1  UNL1        0.0572
     45 H          -1.6446    0.9185    1.6270 H       1  UNL1        0.0274
     46 H          -1.3000    2.4893    0.7382 H       1  UNL1        0.0274
     47 H          -0.1507    1.8053    1.8809 H       1  UNL1        0.0274
     48 H          -0.8733   -1.2036   -0.0256 H       1  UNL1        0.0313
     49 H           0.1351   -0.8181   -1.4162 H       1  UNL1        0.0313
     50 H          -2.0914   -1.1950   -2.1519 H       1  UNL1        0.0310
     51 H          -1.7672    0.5194   -2.4050 H       1  UNL1        0.0310
     52 H          -2.8759    1.0870   -0.3821 H       1  UNL1        0.0572
     53 H          -3.5019   -2.3055   -1.2780 H       1  UNL1        0.0274
     54 H          -4.8387   -1.6302   -2.2381 H       1  UNL1        0.0274
     55 H          -5.1957   -2.3957   -0.6591 H       1  UNL1        0.0274
     56 H          -5.3892   -0.3530    1.2423 H       1  UNL1        0.0313
     57 H          -4.6609    1.1860    0.8101 H       1  UNL1        0.0313
     58 H          -6.2515    1.4162   -1.1350 H       1  UNL1        0.0310
     59 H          -7.0585    1.3243    0.5110 H       1  UNL1        0.0310
     60 H          -7.0274   -1.1701   -1.4279 H       1  UNL1        0.0572
     61 H          -9.0815    1.3253    0.4309 H       1  UNL1        0.0274
     62 H         -10.0440    0.0556    1.1926 H       1  UNL1        0.0274
     63 H          -8.3040    0.2865    1.7413 H       1  UNL1        0.0274
     64 H          -9.9821   -2.0740    0.4099 H       1  UNL1        0.0274
     65 H         -10.0029   -1.5138   -1.3507 H       1  UNL1        0.0274
     66 H          -8.7254   -2.6407   -0.8031 H       1  UNL1        0.0274
@<TRIPOS>BOND
     1     1     2    1
     2     2     3    1
     3     3     4    1
     4     4     5    1
     5     6     5    1
     6     6     7    1
     7     6     8    2
     8     6     9    1
     9     9    10    1
    10    10    11    1
    11    10    12    1
    12    10    13    2
    13     2    14    1
    14    14    15    1
    15    15    16    1
    16    16    17    2
    17    17    18    1
    18    17    19    1
    19    19    20    1
    20    20    21    1
    21    21    22    2
    22    22    23    1
    23    22    24    1
    24    24    25    1
    25    25    26    1
    26    26    27    2
    27    27    28    1
    28    27    29    1
    29     1    30    1
    30     1    31    1
    31     1    32    1
    32     3    33    1
    33     3    34    1
    34     4    35    1
    35     4    36    1
    36     7    37    1
    37    11    38    1
    38    12    39    1
    39    14    40    1
    40    14    41    1
    41    15    42    1
    42    15    43    1
    43    16    44    1
    44    18    45    1
    45    18    46    1
    46    18    47    1
    47    19    48    1
    48    19    49    1
    49    20    50    1
    50    20    51    1
    51    21    52    1
    52    23    53    1
    53    23    54    1
    54    23    55    1
    55    24    56    1
    56    24    57    1
    57    25    58    1
    58    25    59    1
    59    26    60    1
    60    28    61    1
    61    28    62    1
    62    28    63    1
    63    29    64    1
    64    29    65    1
    65    29    66    1
