@<TRIPOS>MOLECULE
*****
 57 62 0 0 0
SMALL
GASTEIGER

@<TRIPOS>ATOM
      1 C           1.5023    4.0479    0.6253 C.3     1  UNL1       -0.0376
      2 C           1.6051    2.6487    0.1369 C.ar    1  UNL1       -0.0205
      3 C           2.6845    2.0254   -0.4463 C.ar    1  UNL1        0.0090
      4 N           2.3818    0.7370   -0.7516 N.ar    1  UNL1       -0.3423
      5 C           3.2430   -0.2262   -1.3917 C.3     1  UNL1        0.0597
      6 C           4.5268   -0.5141   -0.6333 C.3     1  UNL1        0.0207
      7 N           5.1446   -0.6786   -1.9602 N.3     1  UNL1       -0.3013
      8 C           6.5328   -0.3798   -2.0188 C.3     1  UNL1       -0.0126
      9 C           4.2303    0.3778   -2.3995 C.3     1  UNL1        0.0207
     10 C           1.1136    0.5065   -0.3703 C.ar    1  UNL1        0.0571
     11 C           0.6116    1.6617    0.1694 C.ar    1  UNL1        0.0630
     12 C          -0.8175    1.5612    0.4347 C.2     1  UNL1        0.2548
     13 O          -1.6018    2.3925    0.9332 O.2     1  UNL1       -0.2695
     14 N          -1.2090    0.2445   -0.0060 N.am    1  UNL1       -0.2388
     15 C          -2.5788   -0.1446   -0.2473 C.ar    1  UNL1        0.1313
     16 C          -2.9158   -1.3358   -0.7990 C.ar    1  UNL1       -0.0161
     17 C          -4.2306   -1.6868   -1.0188 C.ar    1  UNL1       -0.0164
     18 C          -4.6606   -2.9680   -1.6151 C.3     1  UNL1       -0.0374
     19 C          -5.2008   -0.7763   -0.6551 C.ar    1  UNL1        0.1345
     20 N          -6.5473   -0.7574   -0.7099 N.ar    1  UNL1       -0.1276
     21 N          -6.9617    0.3869   -0.2148 N.ar    1  UNL1       -0.0635
     22 N          -5.9567    1.1481    0.1749 N.ar    1  UNL1       -0.2297
     23 C          -5.9399    2.4632    0.7673 C.3     1  UNL1        0.0341
     24 C          -4.8324    0.4345   -0.0931 C.ar    1  UNL1        0.1803
     25 N          -3.5484    0.7039    0.0886 N.ar    1  UNL1       -0.2108
     26 C           0.0089   -0.4991   -0.1677 C.3     1  UNL1        0.0986
     27 C           0.3496   -1.1713    1.1570 C.ar    1  UNL1       -0.0207
     28 C          -0.5694   -1.9429    1.8298 C.ar    1  UNL1       -0.0550
     29 C          -0.2352   -2.5373    3.0500 C.ar    1  UNL1       -0.0431
     30 C           1.0046   -2.3675    3.6005 C.ar    1  UNL1        0.0410
     31 CL          1.3928   -3.1267    5.1323 Cl      1  UNL1       -0.0835
     32 C           1.9480   -1.6039    2.9581 C.ar    1  UNL1       -0.0431
     33 C           1.5816   -1.0260    1.7442 C.ar    1  UNL1       -0.0550
     34 H           1.1736    4.6686   -0.2470 H       1  UNL1        0.0278
     35 H           0.7703    4.1269    1.4532 H       1  UNL1        0.0278
     36 H           2.5031    4.4230    0.9100 H       1  UNL1        0.0278
     37 H           3.6352    2.4733   -0.6403 H       1  UNL1        0.0812
     38 H           2.7530   -1.1127   -1.8016 H       1  UNL1        0.0553
     39 H           4.4799   -1.4517   -0.0479 H       1  UNL1        0.0447
     40 H           4.9117    0.3766   -0.1116 H       1  UNL1        0.0447
     41 H           6.7754    0.7072   -2.0590 H       1  UNL1        0.0391
     42 H           7.0862   -0.8950   -1.2016 H       1  UNL1        0.0391
     43 H           6.9358   -0.8150   -2.9641 H       1  UNL1        0.0391
     44 H           3.8939    0.2543   -3.4565 H       1  UNL1        0.0447
     45 H           4.5299    1.3977   -2.1217 H       1  UNL1        0.0447
     46 H          -2.1422   -2.0445   -1.0814 H       1  UNL1        0.0655
     47 H          -3.7951   -3.4712   -2.0746 H       1  UNL1        0.0278
     48 H          -5.1279   -3.6468   -0.8696 H       1  UNL1        0.0278
     49 H          -5.4434   -2.8021   -2.4074 H       1  UNL1        0.0278
     50 H          -5.5971    2.4528    1.8126 H       1  UNL1        0.0474
     51 H          -5.2374    3.1515    0.2169 H       1  UNL1        0.0474
     52 H          -6.9277    2.9596    0.7093 H       1  UNL1        0.0474
     53 H           0.0208   -1.2087   -0.9928 H       1  UNL1        0.0620
     54 H          -1.5504   -2.1096    1.4487 H       1  UNL1        0.0621
     55 H          -0.9693   -3.1439    3.5713 H       1  UNL1        0.0632
     56 H           2.9212   -1.4667    3.3839 H       1  UNL1        0.0632
     57 H           2.3442   -0.4211    1.2674 H       1  UNL1        0.0621
@<TRIPOS>BOND
     1     1     2    1
     2     2     3   ar
     3     3     4   ar
     4     4     5    1
     5     5     6    1
     6     6     7    1
     7     7     8    1
     8     7     9    1
     9     4    10   ar
    10    10    11   ar
    11    11    12    1
    12    12    13    2
    13    12    14   am
    14    14    15    1
    15    15    16   ar
    16    16    17   ar
    17    17    18    1
    18    17    19   ar
    19    19    20   ar
    20    20    21   ar
    21    21    22   ar
    22    22    23    1
    23    22    24   ar
    24    24    25   ar
    25    14    26    1
    26    26    27    1
    27    27    28   ar
    28    28    29   ar
    29    29    30   ar
    30    30    31    1
    31    30    32   ar
    32    32    33   ar
    33    11     2   ar
    34    25    15   ar
    35    33    27   ar
    36     9     5    1
    37    26    10    1
    38    24    19   ar
    39     1    34    1
    40     1    35    1
    41     1    36    1
    42     3    37    1
    43     5    38    1
    44     6    39    1
    45     6    40    1
    46     8    41    1
    47     8    42    1
    48     8    43    1
    49     9    44    1
    50     9    45    1
    51    16    46    1
    52    18    47    1
    53    18    48    1
    54    18    49    1
    55    23    50    1
    56    23    51    1
    57    23    52    1
    58    26    53    1
    59    28    54    1
    60    29    55    1
    61    32    56    1
    62    33    57    1
