
     RDKit          3D

 57 62  0  0  0  0  0  0  0  0999 V2000
    1.5023    4.0479    0.6253 C   0  0  0  0  0  0  0  0  0  0  0  0
    1.6051    2.6487    0.1369 C   0  0  0  0  0  0  0  0  0  0  0  0
    2.6845    2.0254   -0.4463 C   0  0  0  0  0  0  0  0  0  0  0  0
    2.3818    0.7370   -0.7516 N   0  0  0  0  0  0  0  0  0  0  0  0
    3.2430   -0.2262   -1.3917 C   0  0  0  0  0  0  0  0  0  0  0  0
    4.5268   -0.5141   -0.6333 C   0  0  0  0  0  0  0  0  0  0  0  0
    5.1446   -0.6786   -1.9602 N   0  0  0  0  0  0  0  0  0  0  0  0
    6.5328   -0.3798   -2.0188 C   0  0  0  0  0  0  0  0  0  0  0  0
    4.2303    0.3778   -2.3995 C   0  0  0  0  0  0  0  0  0  0  0  0
    1.1136    0.5065   -0.3703 C   0  0  0  0  0  0  0  0  0  0  0  0
    0.6116    1.6617    0.1694 C   0  0  0  0  0  0  0  0  0  0  0  0
   -0.8175    1.5612    0.4347 C   0  0  0  0  0  0  0  0  0  0  0  0
   -1.6018    2.3925    0.9332 O   0  0  0  0  0  0  0  0  0  0  0  0
   -1.2090    0.2445   -0.0060 N   0  0  0  0  0  0  0  0  0  0  0  0
   -2.5788   -0.1446   -0.2473 C   0  0  0  0  0  0  0  0  0  0  0  0
   -2.9158   -1.3358   -0.7990 C   0  0  0  0  0  0  0  0  0  0  0  0
   -4.2306   -1.6868   -1.0188 C   0  0  0  0  0  0  0  0  0  0  0  0
   -4.6606   -2.9680   -1.6151 C   0  0  0  0  0  0  0  0  0  0  0  0
   -5.2008   -0.7763   -0.6551 C   0  0  0  0  0  0  0  0  0  0  0  0
   -6.5473   -0.7574   -0.7099 N   0  0  0  0  0  0  0  0  0  0  0  0
   -6.9617    0.3869   -0.2148 N   0  0  0  0  0  0  0  0  0  0  0  0
   -5.9567    1.1481    0.1749 N   0  0  0  0  0  0  0  0  0  0  0  0
   -5.9399    2.4632    0.7673 C   0  0  0  0  0  0  0  0  0  0  0  0
   -4.8324    0.4345   -0.0931 C   0  0  0  0  0  0  0  0  0  0  0  0
   -3.5484    0.7039    0.0886 N   0  0  0  0  0  0  0  0  0  0  0  0
    0.0089   -0.4991   -0.1677 C   0  0  0  0  0  0  0  0  0  0  0  0
    0.3496   -1.1713    1.1570 C   0  0  0  0  0  0  0  0  0  0  0  0
   -0.5694   -1.9429    1.8298 C   0  0  0  0  0  0  0  0  0  0  0  0
   -0.2352   -2.5373    3.0500 C   0  0  0  0  0  0  0  0  0  0  0  0
    1.0046   -2.3675    3.6005 C   0  0  0  0  0  0  0  0  0  0  0  0
    1.3928   -3.1267    5.1323 Cl  0  0  0  0  0  0  0  0  0  0  0  0
    1.9480   -1.6039    2.9581 C   0  0  0  0  0  0  0  0  0  0  0  0
    1.5816   -1.0260    1.7442 C   0  0  0  0  0  0  0  0  0  0  0  0
    1.1736    4.6686   -0.2470 H   0  0  0  0  0  0  0  0  0  0  0  0
    0.7703    4.1269    1.4532 H   0  0  0  0  0  0  0  0  0  0  0  0
    2.5031    4.4230    0.9100 H   0  0  0  0  0  0  0  0  0  0  0  0
    3.6352    2.4733   -0.6403 H   0  0  0  0  0  0  0  0  0  0  0  0
    2.7530   -1.1127   -1.8016 H   0  0  0  0  0  0  0  0  0  0  0  0
    4.4799   -1.4517   -0.0479 H   0  0  0  0  0  0  0  0  0  0  0  0
    4.9117    0.3766   -0.1116 H   0  0  0  0  0  0  0  0  0  0  0  0
    6.7754    0.7072   -2.0590 H   0  0  0  0  0  0  0  0  0  0  0  0
    7.0862   -0.8950   -1.2016 H   0  0  0  0  0  0  0  0  0  0  0  0
    6.9358   -0.8150   -2.9641 H   0  0  0  0  0  0  0  0  0  0  0  0
    3.8939    0.2543   -3.4565 H   0  0  0  0  0  0  0  0  0  0  0  0
    4.5299    1.3977   -2.1217 H   0  0  0  0  0  0  0  0  0  0  0  0
   -2.1422   -2.0445   -1.0814 H   0  0  0  0  0  0  0  0  0  0  0  0
   -3.7951   -3.4712   -2.0746 H   0  0  0  0  0  0  0  0  0  0  0  0
   -5.1279   -3.6468   -0.8696 H   0  0  0  0  0  0  0  0  0  0  0  0
   -5.4434   -2.8021   -2.4074 H   0  0  0  0  0  0  0  0  0  0  0  0
   -5.5971    2.4528    1.8126 H   0  0  0  0  0  0  0  0  0  0  0  0
   -5.2374    3.1515    0.2169 H   0  0  0  0  0  0  0  0  0  0  0  0
   -6.9277    2.9596    0.7093 H   0  0  0  0  0  0  0  0  0  0  0  0
    0.0208   -1.2087   -0.9928 H   0  0  0  0  0  0  0  0  0  0  0  0
   -1.5504   -2.1096    1.4487 H   0  0  0  0  0  0  0  0  0  0  0  0
   -0.9693   -3.1439    3.5713 H   0  0  0  0  0  0  0  0  0  0  0  0
    2.9212   -1.4667    3.3839 H   0  0  0  0  0  0  0  0  0  0  0  0
    2.3442   -0.4211    1.2674 H   0  0  0  0  0  0  0  0  0  0  0  0
  1  2  1  0
  2  3  2  0
  3  4  1  0
  4  5  1  0
  5  6  1  0
  6  7  1  0
  7  8  1  0
  7  9  1  0
  4 10  1  0
 10 11  2  0
 11 12  1  0
 12 13  2  0
 12 14  1  0
 14 15  1  0
 15 16  2  0
 16 17  1  0
 17 18  1  0
 17 19  2  0
 19 20  1  0
 20 21  2  0
 21 22  1  0
 22 23  1  0
 22 24  1  0
 24 25  2  0
 14 26  1  0
 26 27  1  0
 27 28  2  0
 28 29  1  0
 29 30  2  0
 30 31  1  0
 30 32  1  0
 32 33  2  0
 11  2  1  0
 25 15  1  0
 33 27  1  0
  9  5  1  0
 26 10  1  0
 24 19  1  0
  1 34  1  0
  1 35  1  0
  1 36  1  0
  3 37  1  0
  5 38  1  0
  6 39  1  0
  6 40  1  0
  8 41  1  0
  8 42  1  0
  8 43  1  0
  9 44  1  0
  9 45  1  0
 16 46  1  0
 18 47  1  0
 18 48  1  0
 18 49  1  0
 23 50  1  0
 23 51  1  0
 23 52  1  0
 26 53  1  0
 28 54  1  0
 29 55  1  0
 32 56  1  0
 33 57  1  0
M  END
$$$$
