@<TRIPOS>MOLECULE
*****
 51 54 0 0 0
SMALL
GASTEIGER

@<TRIPOS>ATOM
      1 C           3.5505   -1.8504   -1.3492 C.3     1  UNL1        0.0004
      2 N           4.0327   -1.1741   -0.1607 N.pl3   1  UNL1       -0.3342
      3 C           4.5691   -2.0080    0.9103 C.3     1  UNL1        0.0004
      4 C           4.0497    0.2318    0.0148 C.ar    1  UNL1        0.0613
      5 C           5.3348    0.8019    0.1447 C.ar    1  UNL1       -0.0196
      6 C           5.4754    2.1574    0.2655 C.ar    1  UNL1        0.0716
      7 C           6.7730    2.7754    0.4002 C.1     1  UNL1        0.1007
      8 N           7.8186    3.2863    0.5155 N.1     1  UNL1       -0.1908
      9 C           4.3571    2.9712    0.2605 C.ar    1  UNL1        0.0459
     10 N           3.1583    2.3916    0.1365 N.ar    1  UNL1       -0.2472
     11 C           2.9778    1.0500    0.0153 C.ar    1  UNL1        0.1466
     12 C           1.6165    0.5678   -0.0401 C.2     1  UNL1        0.2684
     13 O           0.7795    1.4198   -0.5028 O.2     1  UNL1       -0.2681
     14 N           1.1419   -0.6962    0.3548 N.am    1  UNL1       -0.2802
     15 C          -0.1906   -1.1378    0.2758 C.ar    1  UNL1        0.0342
     16 C          -0.4487   -2.4500    0.7307 C.ar    1  UNL1       -0.0377
     17 C          -1.7246   -2.9636    0.6900 C.ar    1  UNL1       -0.0243
     18 C          -2.7753   -2.1791    0.1936 C.ar    1  UNL1        0.1292
     19 F          -3.9833   -2.7898    0.2318 F       1  UNL1       -0.2051
     20 C          -2.5536   -0.9090   -0.2530 C.ar    1  UNL1        0.0228
     21 C          -3.6619   -0.1036   -0.7947 C.3     1  UNL1        0.1603
     22 C          -4.2529   -0.7678   -2.0018 C.3     1  UNL1        0.2686
     23 F          -3.2994   -0.9431   -3.0098 F       1  UNL1       -0.2062
     24 F          -4.9523   -1.9107   -1.7868 F       1  UNL1       -0.2062
     25 N          -4.6482   -0.0051    0.2454 N.2     1  UNL1       -0.2194
     26 C          -4.7484    0.9377    1.1038 C.2     1  UNL1        0.2764
     27 N          -5.7870    0.8645    2.0569 N.pl3   1  UNL1       -0.3134
     28 O          -3.8199    1.9632    1.0262 O.2     1  UNL1       -0.4622
     29 C          -3.2133    2.3049   -0.1875 C.3     1  UNL1        0.1091
     30 C          -4.1701    2.3656   -1.3987 C.3     1  UNL1       -0.0064
     31 C          -3.1704    1.2802   -1.2131 C.3     1  UNL1        0.0344
     32 C          -1.2455   -0.4173   -0.1974 C.ar    1  UNL1       -0.0321
     33 H           4.4041   -2.1432   -2.0119 H       1  UNL1        0.0428
     34 H           3.0176   -2.8058   -1.0896 H       1  UNL1        0.0428
     35 H           2.8819   -1.2018   -1.9581 H       1  UNL1        0.0428
     36 H           3.9907   -1.8647    1.8464 H       1  UNL1        0.0428
     37 H           4.5472   -3.0827    0.6500 H       1  UNL1        0.0428
     38 H           5.6458   -1.7377    1.0384 H       1  UNL1        0.0428
     39 H           6.2165    0.1687    0.1493 H       1  UNL1        0.0650
     40 H           4.5053    4.0354    0.3570 H       1  UNL1        0.0843
     41 H           1.8616   -1.3676    0.7807 H       1  UNL1        0.1552
     42 H           0.3555   -3.0621    1.1149 H       1  UNL1        0.0637
     43 H          -1.9344   -3.9647    1.0346 H       1  UNL1        0.0647
     44 H          -4.9937   -0.0521   -2.5117 H       1  UNL1        0.1047
     45 H          -6.7599    0.7215    1.7433 H       1  UNL1        0.1466
     46 H          -5.5634    0.9548    3.0605 H       1  UNL1        0.1466
     47 H          -2.4520    3.1038   -0.1510 H       1  UNL1        0.0737
     48 H          -3.9919    3.1777   -2.1332 H       1  UNL1        0.0306
     49 H          -5.2393    2.2080   -1.1850 H       1  UNL1        0.0306
     50 H          -2.3679    1.2769   -1.9724 H       1  UNL1        0.0366
     51 H          -1.1132    0.5718   -0.5508 H       1  UNL1        0.0640
@<TRIPOS>BOND
     1     1     2    1
     2     2     3    1
     3     2     4    1
     4     4     5   ar
     5     5     6   ar
     6     6     7    1
     7     7     8    3
     8     6     9   ar
     9     9    10   ar
    10    10    11   ar
    11    11    12    1
    12    12    13    2
    13    12    14   am
    14    14    15    1
    15    15    16   ar
    16    16    17   ar
    17    17    18   ar
    18    18    19    1
    19    18    20   ar
    20    20    21    1
    21    21    22    1
    22    22    23    1
    23    22    24    1
    24    21    25    1
    25    25    26    2
    26    26    27    1
    27    26    28    1
    28    28    29    1
    29    29    30    1
    30    30    31    1
    31    20    32   ar
    32    11     4   ar
    33    32    15   ar
    34    31    21    1
    35    31    29    1
    36     1    33    1
    37     1    34    1
    38     1    35    1
    39     3    36    1
    40     3    37    1
    41     3    38    1
    42     5    39    1
    43     9    40    1
    44    14    41    1
    45    16    42    1
    46    17    43    1
    47    22    44    1
    48    27    45    1
    49    27    46    1
    50    29    47    1
    51    30    48    1
    52    30    49    1
    53    31    50    1
    54    32    51    1
