@<TRIPOS>MOLECULE
*****
 76 80 0 0 0
SMALL
GASTEIGER

@<TRIPOS>ATOM
      1 C          -8.1968    4.0367    0.8366 C.3     1  UNL1       -0.0306
      2 C          -7.2562    4.0535   -0.3241 C.3     1  UNL1        0.0885
      3 O          -6.4239    2.9003   -0.3053 O.3     1  UNL1       -0.4744
      4 C          -6.9535    1.6205   -0.3631 C.ar    1  UNL1        0.2555
      5 N          -8.2378    1.2454   -0.4386 N.ar    1  UNL1       -0.1315
      6 N          -8.3475   -0.0531   -0.4750 N.ar    1  UNL1       -0.2664
      7 C          -9.5711   -0.8492   -0.5598 C.3     1  UNL1        0.0389
      8 C         -10.1003   -1.1667    0.8204 C.3     1  UNL1       -0.0455
      9 C          -7.0899   -0.5544   -0.4216 C.ar    1  UNL1        0.0506
     10 C          -6.1801    0.4679   -0.3508 C.ar    1  UNL1        0.1152
     11 N          -4.7706    0.4564   -0.2783 N.pl3   1  UNL1       -0.2782
     12 C          -3.9962   -0.7300   -0.2941 C.ar    1  UNL1        0.2202
     13 N          -4.6014   -1.9261   -0.3690 N.ar    1  UNL1       -0.2224
     14 C          -3.9134   -3.0694   -0.3988 C.ar    1  UNL1        0.0361
     15 C          -2.5101   -2.9957   -0.3494 C.ar    1  UNL1       -0.0062
     16 C          -1.7963   -4.2829   -0.3355 C.3     1  UNL1       -0.0362
     17 C          -1.8650   -1.8001   -0.2746 C.ar    1  UNL1        0.0809
     18 C          -0.4203   -1.6556   -0.1968 C.ar    1  UNL1        0.0258
     19 C           0.6179   -2.5166   -0.4273 C.ar    1  UNL1        0.0120
     20 N           1.8195   -1.8732   -0.2775 N.ar    1  UNL1       -0.3586
     21 C           1.5948   -0.5958    0.0486 C.ar    1  UNL1        0.0686
     22 C           2.5014    0.4222    0.3055 C.ar    1  UNL1        0.0576
     23 N           3.9188    0.1645    0.2121 N.am    1  UNL1       -0.2825
     24 C           4.5537   -0.3229    1.3753 C.2     1  UNL1        0.2342
     25 O           3.8431   -0.5160    2.4268 O.2     1  UNL1       -0.2738
     26 C           6.0057   -0.6117    1.3988 C.3     1  UNL1        0.0848
     27 C           6.1488   -2.1217    1.4718 C.3     1  UNL1       -0.0409
     28 N           6.7600    0.0199    0.4423 N.3     1  UNL1       -0.2893
     29 C           6.7803    1.4289    0.5514 C.3     1  UNL1        0.0124
     30 C           8.1192    2.0330    0.1491 C.3     1  UNL1        0.0114
     31 N           8.5492    1.5164   -1.1387 N.3     1  UNL1       -0.3029
     32 C           9.9454    1.9035   -1.2815 C.3     1  UNL1       -0.0127
     33 C           8.5152    0.0872   -1.1501 C.3     1  UNL1        0.0114
     34 C           7.1280   -0.4803   -0.7873 C.3     1  UNL1        0.0124
     35 C           2.0207    1.6674    0.6361 C.ar    1  UNL1       -0.0384
     36 C           0.6669    1.8579    0.6996 C.ar    1  UNL1       -0.0593
     37 C          -0.2297    0.8222    0.4382 C.ar    1  UNL1       -0.0518
     38 C           0.2306   -0.4413    0.1031 C.ar    1  UNL1        0.0107
     39 N          -2.6539   -0.6965   -0.2486 N.ar    1  UNL1       -0.2139
     40 H          -8.3251    3.0440    1.3045 H       1  UNL1        0.0262
     41 H          -7.8464    4.7321    1.6412 H       1  UNL1        0.0262
     42 H          -9.2184    4.3230    0.4759 H       1  UNL1        0.0262
     43 H          -6.6740    4.9700   -0.3942 H       1  UNL1        0.0694
     44 H          -7.8510    3.9756   -1.2745 H       1  UNL1        0.0694
     45 H         -10.3212   -0.1914   -1.0463 H       1  UNL1        0.0506
     46 H          -9.3843   -1.7752   -1.1496 H       1  UNL1        0.0506
     47 H         -11.2010   -1.3485    0.8003 H       1  UNL1        0.0247
     48 H          -9.9908   -0.2053    1.4065 H       1  UNL1        0.0247
     49 H          -9.5571   -1.9569    1.3457 H       1  UNL1        0.0247
     50 H          -6.8731   -1.6327   -0.4352 H       1  UNL1        0.0846
     51 H          -4.2422    1.3548   -0.2079 H       1  UNL1        0.1552
     52 H          -4.4161   -4.0228   -0.4595 H       1  UNL1        0.0834
     53 H          -2.5660   -5.0930   -0.0797 H       1  UNL1        0.0279
     54 H          -1.3860   -4.5993   -1.2876 H       1  UNL1        0.0279
     55 H          -1.0997   -4.3828    0.5361 H       1  UNL1        0.0279
     56 H           0.5297   -3.5523   -0.7091 H       1  UNL1        0.0814
     57 H           2.7335   -2.3548   -0.4102 H       1  UNL1        0.1654
     58 H           4.3785    0.3381   -0.6875 H       1  UNL1        0.1549
     59 H           6.3386   -0.2670    2.4327 H       1  UNL1        0.0556
     60 H           5.3307   -2.4797    2.1304 H       1  UNL1        0.0249
     61 H           6.0022   -2.6090    0.4886 H       1  UNL1        0.0249
     62 H           7.0977   -2.3537    1.9681 H       1  UNL1        0.0249
     63 H           6.5997    1.7867    1.5894 H       1  UNL1        0.0439
     64 H           6.0409    1.8742   -0.1496 H       1  UNL1        0.0439
     65 H           8.8401    1.8756    0.9504 H       1  UNL1        0.0439
     66 H           7.9449    3.1184    0.0267 H       1  UNL1        0.0439
     67 H          10.0735    2.9794   -1.0314 H       1  UNL1        0.0391
     68 H          10.6097    1.2945   -0.6292 H       1  UNL1        0.0391
     69 H          10.2799    1.7592   -2.3285 H       1  UNL1        0.0391
     70 H           9.1956   -0.2800   -0.3357 H       1  UNL1        0.0439
     71 H           8.8799   -0.3188   -2.1063 H       1  UNL1        0.0439
     72 H           7.2933   -1.5843   -0.8473 H       1  UNL1        0.0439
     73 H           6.4884   -0.1419   -1.6562 H       1  UNL1        0.0439
     74 H           2.6895    2.4783    0.8419 H       1  UNL1        0.0637
     75 H           0.2882    2.8295    0.9579 H       1  UNL1        0.0618
     76 H          -1.2875    0.9716    0.4919 H       1  UNL1        0.0624
@<TRIPOS>BOND
     1     1     2    1
     2     2     3    1
     3     3     4    1
     4     4     5   ar
     5     5     6   ar
     6     6     7    1
     7     7     8    1
     8     6     9   ar
     9     9    10   ar
    10    10    11    1
    11    11    12    1
    12    12    13   ar
    13    13    14   ar
    14    14    15   ar
    15    15    16    1
    16    15    17   ar
    17    17    18    1
    18    18    19   ar
    19    19    20   ar
    20    20    21   ar
    21    21    22   ar
    22    22    23    1
    23    23    24   am
    24    24    25    2
    25    24    26    1
    26    26    27    1
    27    26    28    1
    28    28    29    1
    29    29    30    1
    30    30    31    1
    31    31    32    1
    32    31    33    1
    33    33    34    1
    34    22    35   ar
    35    35    36   ar
    36    36    37   ar
    37    37    38   ar
    38    17    39   ar
    39    10     4   ar
    40    39    12   ar
    41    38    18   ar
    42    38    21   ar
    43    34    28    1
    44     1    40    1
    45     1    41    1
    46     1    42    1
    47     2    43    1
    48     2    44    1
    49     7    45    1
    50     7    46    1
    51     8    47    1
    52     8    48    1
    53     8    49    1
    54     9    50    1
    55    11    51    1
    56    14    52    1
    57    16    53    1
    58    16    54    1
    59    16    55    1
    60    19    56    1
    61    20    57    1
    62    23    58    1
    63    26    59    1
    64    27    60    1
    65    27    61    1
    66    27    62    1
    67    29    63    1
    68    29    64    1
    69    30    65    1
    70    30    66    1
    71    32    67    1
    72    32    68    1
    73    32    69    1
    74    33    70    1
    75    33    71    1
    76    34    72    1
    77    34    73    1
    78    35    74    1
    79    36    75    1
    80    37    76    1
