
     RDKit          3D

 76 80  0  0  0  0  0  0  0  0999 V2000
   -8.1968    4.0367    0.8366 C   0  0  0  0  0  0  0  0  0  0  0  0
   -7.2562    4.0535   -0.3241 C   0  0  0  0  0  0  0  0  0  0  0  0
   -6.4239    2.9003   -0.3053 O   0  0  0  0  0  0  0  0  0  0  0  0
   -6.9535    1.6205   -0.3631 C   0  0  0  0  0  0  0  0  0  0  0  0
   -8.2378    1.2454   -0.4386 N   0  0  0  0  0  0  0  0  0  0  0  0
   -8.3475   -0.0531   -0.4750 N   0  0  0  0  0  0  0  0  0  0  0  0
   -9.5711   -0.8492   -0.5598 C   0  0  0  0  0  0  0  0  0  0  0  0
  -10.1003   -1.1667    0.8204 C   0  0  0  0  0  0  0  0  0  0  0  0
   -7.0899   -0.5544   -0.4216 C   0  0  0  0  0  0  0  0  0  0  0  0
   -6.1801    0.4679   -0.3508 C   0  0  0  0  0  0  0  0  0  0  0  0
   -4.7706    0.4564   -0.2783 N   0  0  0  0  0  0  0  0  0  0  0  0
   -3.9962   -0.7300   -0.2941 C   0  0  0  0  0  0  0  0  0  0  0  0
   -4.6014   -1.9261   -0.3690 N   0  0  0  0  0  0  0  0  0  0  0  0
   -3.9134   -3.0694   -0.3988 C   0  0  0  0  0  0  0  0  0  0  0  0
   -2.5101   -2.9957   -0.3494 C   0  0  0  0  0  0  0  0  0  0  0  0
   -1.7963   -4.2829   -0.3355 C   0  0  0  0  0  0  0  0  0  0  0  0
   -1.8650   -1.8001   -0.2746 C   0  0  0  0  0  0  0  0  0  0  0  0
   -0.4203   -1.6556   -0.1968 C   0  0  0  0  0  0  0  0  0  0  0  0
    0.6179   -2.5166   -0.4273 C   0  0  0  0  0  0  0  0  0  0  0  0
    1.8195   -1.8732   -0.2775 N   0  0  0  0  0  0  0  0  0  0  0  0
    1.5948   -0.5958    0.0486 C   0  0  0  0  0  0  0  0  0  0  0  0
    2.5014    0.4222    0.3055 C   0  0  0  0  0  0  0  0  0  0  0  0
    3.9188    0.1645    0.2121 N   0  0  0  0  0  0  0  0  0  0  0  0
    4.5537   -0.3229    1.3753 C   0  0  0  0  0  0  0  0  0  0  0  0
    3.8431   -0.5160    2.4268 O   0  0  0  0  0  0  0  0  0  0  0  0
    6.0057   -0.6117    1.3988 C   0  0  1  0  0  0  0  0  0  0  0  0
    6.1488   -2.1217    1.4718 C   0  0  0  0  0  0  0  0  0  0  0  0
    6.7600    0.0199    0.4423 N   0  0  0  0  0  0  0  0  0  0  0  0
    6.7803    1.4289    0.5514 C   0  0  0  0  0  0  0  0  0  0  0  0
    8.1192    2.0330    0.1491 C   0  0  0  0  0  0  0  0  0  0  0  0
    8.5492    1.5164   -1.1387 N   0  0  0  0  0  0  0  0  0  0  0  0
    9.9454    1.9035   -1.2815 C   0  0  0  0  0  0  0  0  0  0  0  0
    8.5152    0.0872   -1.1501 C   0  0  0  0  0  0  0  0  0  0  0  0
    7.1280   -0.4803   -0.7873 C   0  0  0  0  0  0  0  0  0  0  0  0
    2.0207    1.6674    0.6361 C   0  0  0  0  0  0  0  0  0  0  0  0
    0.6669    1.8579    0.6996 C   0  0  0  0  0  0  0  0  0  0  0  0
   -0.2297    0.8222    0.4382 C   0  0  0  0  0  0  0  0  0  0  0  0
    0.2306   -0.4413    0.1031 C   0  0  0  0  0  0  0  0  0  0  0  0
   -2.6539   -0.6965   -0.2486 N   0  0  0  0  0  0  0  0  0  0  0  0
   -8.3251    3.0440    1.3045 H   0  0  0  0  0  0  0  0  0  0  0  0
   -7.8464    4.7321    1.6412 H   0  0  0  0  0  0  0  0  0  0  0  0
   -9.2184    4.3230    0.4759 H   0  0  0  0  0  0  0  0  0  0  0  0
   -6.6740    4.9700   -0.3942 H   0  0  0  0  0  0  0  0  0  0  0  0
   -7.8510    3.9756   -1.2745 H   0  0  0  0  0  0  0  0  0  0  0  0
  -10.3212   -0.1914   -1.0463 H   0  0  0  0  0  0  0  0  0  0  0  0
   -9.3843   -1.7752   -1.1496 H   0  0  0  0  0  0  0  0  0  0  0  0
  -11.2010   -1.3485    0.8003 H   0  0  0  0  0  0  0  0  0  0  0  0
   -9.9908   -0.2053    1.4065 H   0  0  0  0  0  0  0  0  0  0  0  0
   -9.5571   -1.9569    1.3457 H   0  0  0  0  0  0  0  0  0  0  0  0
   -6.8731   -1.6327   -0.4352 H   0  0  0  0  0  0  0  0  0  0  0  0
   -4.2422    1.3548   -0.2079 H   0  0  0  0  0  0  0  0  0  0  0  0
   -4.4161   -4.0228   -0.4595 H   0  0  0  0  0  0  0  0  0  0  0  0
   -2.5660   -5.0930   -0.0797 H   0  0  0  0  0  0  0  0  0  0  0  0
   -1.3860   -4.5993   -1.2876 H   0  0  0  0  0  0  0  0  0  0  0  0
   -1.0997   -4.3828    0.5361 H   0  0  0  0  0  0  0  0  0  0  0  0
    0.5297   -3.5523   -0.7091 H   0  0  0  0  0  0  0  0  0  0  0  0
    2.7335   -2.3548   -0.4102 H   0  0  0  0  0  0  0  0  0  0  0  0
    4.3785    0.3381   -0.6875 H   0  0  0  0  0  0  0  0  0  0  0  0
    6.3386   -0.2670    2.4327 H   0  0  0  0  0  0  0  0  0  0  0  0
    5.3307   -2.4797    2.1304 H   0  0  0  0  0  0  0  0  0  0  0  0
    6.0022   -2.6090    0.4886 H   0  0  0  0  0  0  0  0  0  0  0  0
    7.0977   -2.3537    1.9681 H   0  0  0  0  0  0  0  0  0  0  0  0
    6.5997    1.7867    1.5894 H   0  0  0  0  0  0  0  0  0  0  0  0
    6.0409    1.8742   -0.1496 H   0  0  0  0  0  0  0  0  0  0  0  0
    8.8401    1.8756    0.9504 H   0  0  0  0  0  0  0  0  0  0  0  0
    7.9449    3.1184    0.0267 H   0  0  0  0  0  0  0  0  0  0  0  0
   10.0735    2.9794   -1.0314 H   0  0  0  0  0  0  0  0  0  0  0  0
   10.6097    1.2945   -0.6292 H   0  0  0  0  0  0  0  0  0  0  0  0
   10.2799    1.7592   -2.3285 H   0  0  0  0  0  0  0  0  0  0  0  0
    9.1956   -0.2800   -0.3357 H   0  0  0  0  0  0  0  0  0  0  0  0
    8.8799   -0.3188   -2.1063 H   0  0  0  0  0  0  0  0  0  0  0  0
    7.2933   -1.5843   -0.8473 H   0  0  0  0  0  0  0  0  0  0  0  0
    6.4884   -0.1419   -1.6562 H   0  0  0  0  0  0  0  0  0  0  0  0
    2.6895    2.4783    0.8419 H   0  0  0  0  0  0  0  0  0  0  0  0
    0.2882    2.8295    0.9579 H   0  0  0  0  0  0  0  0  0  0  0  0
   -1.2875    0.9716    0.4919 H   0  0  0  0  0  0  0  0  0  0  0  0
  1  2  1  0
  2  3  1  0
  3  4  1  0
  4  5  2  0
  5  6  1  0
  6  7  1  0
  7  8  1  0
  6  9  1  0
  9 10  2  0
 10 11  1  0
 11 12  1  0
 12 13  2  0
 13 14  1  0
 14 15  2  0
 15 16  1  0
 15 17  1  0
 17 18  1  0
 18 19  2  0
 19 20  1  0
 20 21  1  0
 21 22  2  0
 22 23  1  0
 23 24  1  0
 24 25  2  0
 24 26  1  0
 26 27  1  0
 26 28  1  0
 28 29  1  0
 29 30  1  0
 30 31  1  0
 31 32  1  0
 31 33  1  0
 33 34  1  0
 22 35  1  0
 35 36  2  0
 36 37  1  0
 37 38  2  0
 17 39  2  0
 10  4  1  0
 39 12  1  0
 38 18  1  0
 38 21  1  0
 34 28  1  0
  1 40  1  0
  1 41  1  0
  1 42  1  0
  2 43  1  0
  2 44  1  0
  7 45  1  0
  7 46  1  0
  8 47  1  0
  8 48  1  0
  8 49  1  0
  9 50  1  0
 11 51  1  0
 14 52  1  0
 16 53  1  0
 16 54  1  0
 16 55  1  0
 19 56  1  0
 20 57  1  0
 23 58  1  0
 26 59  1  1
 27 60  1  0
 27 61  1  0
 27 62  1  0
 29 63  1  0
 29 64  1  0
 30 65  1  0
 30 66  1  0
 32 67  1  0
 32 68  1  0
 32 69  1  0
 33 70  1  0
 33 71  1  0
 34 72  1  0
 34 73  1  0
 35 74  1  0
 36 75  1  0
 37 76  1  0
M  END
$$$$
