
     RDKit          3D

 43 45  0  0  0  0  0  0  0  0999 V2000
   -2.4277   -1.3666    1.2623 C   0  0  0  0  0  0  0  0  0  0  0  0
   -1.4576   -1.2072    0.0953 C   0  0  0  0  0  0  0  0  0  0  0  0
   -1.8777   -2.0402   -1.0755 C   0  0  0  0  0  0  0  0  0  0  0  0
   -1.3865    0.2156   -0.2281 N   0  0  0  0  0  0  0  0  0  0  0  0
   -0.1705    0.8798   -0.0330 C   0  0  0  0  0  0  0  0  0  0  0  0
   -0.0676    2.1042   -0.2918 O   0  0  0  0  0  0  0  0  0  0  0  0
    1.0313    0.2379    0.4633 C   0  0  0  0  0  0  0  0  0  0  0  0
    1.1295   -0.3311    1.7003 C   0  0  0  0  0  0  0  0  0  0  0  0
    2.3417   -0.9058    2.0618 C   0  0  0  0  0  0  0  0  0  0  0  0
    3.4369   -0.9099    1.1982 C   0  0  0  0  0  0  0  0  0  0  0  0
    4.6507   -1.4857    1.5602 C   0  0  0  0  0  0  0  0  0  0  0  0
    5.7262   -1.4812    0.6910 C   0  0  0  0  0  0  0  0  0  0  0  0
    5.5929   -0.9055   -0.5333 C   0  0  0  0  0  0  0  0  0  0  0  0
    4.4168   -0.3290   -0.9285 C   0  0  0  0  0  0  0  0  0  0  0  0
    3.3265   -0.3305   -0.0542 C   0  0  0  0  0  0  0  0  0  0  0  0
    2.1249    0.2393   -0.4131 C   0  0  0  0  0  0  0  0  0  0  0  0
   -2.5286    0.8946   -0.7548 C   0  0  2  0  0  0  0  0  0  0  0  0
   -2.2301    1.4253   -2.1570 C   0  0  0  0  0  0  0  0  0  0  0  0
   -3.4949    2.2765   -2.3530 C   0  0  0  0  0  0  0  0  0  0  0  0
   -3.7427    2.8787   -1.0803 N   0  0  0  0  0  0  0  0  0  0  0  0
   -2.9649    2.1503   -0.0748 C   0  0  0  0  0  0  0  0  0  0  0  0
   -2.3944   -2.3858    1.6881 H   0  0  0  0  0  0  0  0  0  0  0  0
   -2.2275   -0.6543    2.0642 H   0  0  0  0  0  0  0  0  0  0  0  0
   -3.4511   -1.1764    0.8786 H   0  0  0  0  0  0  0  0  0  0  0  0
   -0.4794   -1.5407    0.4440 H   0  0  0  0  0  0  0  0  0  0  0  0
   -1.3145   -2.9951   -1.0363 H   0  0  0  0  0  0  0  0  0  0  0  0
   -2.9649   -2.2552   -1.0905 H   0  0  0  0  0  0  0  0  0  0  0  0
   -1.5771   -1.5619   -2.0333 H   0  0  0  0  0  0  0  0  0  0  0  0
    0.2726   -0.3354    2.3896 H   0  0  0  0  0  0  0  0  0  0  0  0
    2.4511   -1.3616    3.0319 H   0  0  0  0  0  0  0  0  0  0  0  0
    4.7162   -1.9301    2.5354 H   0  0  0  0  0  0  0  0  0  0  0  0
    6.6655   -1.9341    0.9933 H   0  0  0  0  0  0  0  0  0  0  0  0
    6.4112   -0.8711   -1.2691 H   0  0  0  0  0  0  0  0  0  0  0  0
    4.2606    0.1368   -1.8872 H   0  0  0  0  0  0  0  0  0  0  0  0
    2.0341    0.6875   -1.3737 H   0  0  0  0  0  0  0  0  0  0  0  0
   -3.4145    0.1931   -0.8378 H   0  0  0  0  0  0  0  0  0  0  0  0
   -2.1538    0.6346   -2.9038 H   0  0  0  0  0  0  0  0  0  0  0  0
   -1.4104    2.1341   -2.1354 H   0  0  0  0  0  0  0  0  0  0  0  0
   -3.3585    2.9989   -3.1624 H   0  0  0  0  0  0  0  0  0  0  0  0
   -4.3014    1.5775   -2.6199 H   0  0  0  0  0  0  0  0  0  0  0  0
   -3.4805    3.8786   -1.1409 H   0  0  0  0  0  0  0  0  0  0  0  0
   -3.5963    1.9436    0.8225 H   0  0  0  0  0  0  0  0  0  0  0  0
   -2.1158    2.8072    0.1589 H   0  0  0  0  0  0  0  0  0  0  0  0
  1  2  1  0
  2  3  1  0
  2  4  1  0
  4  5  1  0
  5  6  2  0
  5  7  1  0
  7  8  2  0
  8  9  1  0
  9 10  2  0
 10 11  1  0
 11 12  2  0
 12 13  1  0
 13 14  2  0
 14 15  1  0
 15 16  2  0
  4 17  1  0
 17 18  1  0
 18 19  1  0
 19 20  1  0
 20 21  1  0
 16  7  1  0
 21 17  1  0
 15 10  1  0
  1 22  1  0
  1 23  1  0
  1 24  1  0
  2 25  1  0
  3 26  1  0
  3 27  1  0
  3 28  1  0
  8 29  1  0
  9 30  1  0
 11 31  1  0
 12 32  1  0
 13 33  1  0
 14 34  1  0
 16 35  1  0
 17 36  1  6
 18 37  1  0
 18 38  1  0
 19 39  1  0
 19 40  1  0
 20 41  1  0
 21 42  1  0
 21 43  1  0
M  END
$$$$
