@<TRIPOS>MOLECULE
*****
 43 45 0 0 0
SMALL
GASTEIGER

@<TRIPOS>ATOM
      1 C          -2.4277   -1.3666    1.2623 C.3     1  UNL1       -0.0467
      2 C          -1.4576   -1.2072    0.0953 C.3     1  UNL1        0.0210
      3 C          -1.8777   -2.0402   -1.0755 C.3     1  UNL1       -0.0467
      4 N          -1.3865    0.2156   -0.2281 N.am    1  UNL1       -0.2907
      5 C          -0.1705    0.8798   -0.0330 C.2     1  UNL1        0.2471
      6 O          -0.0676    2.1042   -0.2918 O.2     1  UNL1       -0.2700
      7 C           1.0313    0.2379    0.4633 C.ar    1  UNL1        0.0375
      8 C           1.1295   -0.3311    1.7003 C.ar    1  UNL1       -0.0490
      9 C           2.3417   -0.9058    2.0618 C.ar    1  UNL1       -0.0533
     10 C           3.4369   -0.9099    1.1982 C.ar    1  UNL1       -0.0178
     11 C           4.6507   -1.4857    1.5602 C.ar    1  UNL1       -0.0540
     12 C           5.7262   -1.4812    0.6910 C.ar    1  UNL1       -0.0612
     13 C           5.5929   -0.9055   -0.5333 C.ar    1  UNL1       -0.0612
     14 C           4.4168   -0.3290   -0.9285 C.ar    1  UNL1       -0.0540
     15 C           3.3265   -0.3305   -0.0542 C.ar    1  UNL1       -0.0172
     16 C           2.1249    0.2393   -0.4131 C.ar    1  UNL1       -0.0419
     17 C          -2.5286    0.8946   -0.7548 C.3     1  UNL1        0.0402
     18 C          -2.2301    1.4253   -2.1570 C.3     1  UNL1       -0.0205
     19 C          -3.4949    2.2765   -2.3530 C.3     1  UNL1       -0.0023
     20 N          -3.7427    2.8787   -1.0803 N.3     1  UNL1       -0.3142
     21 C          -2.9649    2.1503   -0.0748 C.3     1  UNL1        0.0146
     22 H          -2.3944   -2.3858    1.6881 H       1  UNL1        0.0247
     23 H          -2.2275   -0.6543    2.0642 H       1  UNL1        0.0247
     24 H          -3.4511   -1.1764    0.8786 H       1  UNL1        0.0247
     25 H          -0.4794   -1.5407    0.4440 H       1  UNL1        0.0495
     26 H          -1.3145   -2.9951   -1.0363 H       1  UNL1        0.0247
     27 H          -2.9649   -2.2552   -1.0905 H       1  UNL1        0.0247
     28 H          -1.5771   -1.5619   -2.0333 H       1  UNL1        0.0247
     29 H           0.2726   -0.3354    2.3896 H       1  UNL1        0.0625
     30 H           2.4511   -1.3616    3.0319 H       1  UNL1        0.0624
     31 H           4.7162   -1.9301    2.5354 H       1  UNL1        0.0624
     32 H           6.6655   -1.9341    0.9933 H       1  UNL1        0.0618
     33 H           6.4112   -0.8711   -1.2691 H       1  UNL1        0.0618
     34 H           4.2606    0.1368   -1.8872 H       1  UNL1        0.0624
     35 H           2.0341    0.6875   -1.3737 H       1  UNL1        0.0631
     36 H          -3.4145    0.1931   -0.8378 H       1  UNL1        0.0514
     37 H          -2.1538    0.6346   -2.9038 H       1  UNL1        0.0296
     38 H          -1.4104    2.1341   -2.1354 H       1  UNL1        0.0296
     39 H          -3.3585    2.9989   -3.1624 H       1  UNL1        0.0425
     40 H          -4.3014    1.5775   -2.6199 H       1  UNL1        0.0425
     41 H          -3.4805    3.8786   -1.1409 H       1  UNL1        0.1220
     42 H          -3.5963    1.9436    0.8225 H       1  UNL1        0.0442
     43 H          -2.1158    2.8072    0.1589 H       1  UNL1        0.0442
@<TRIPOS>BOND
     1     1     2    1
     2     2     3    1
     3     2     4    1
     4     4     5   am
     5     5     6    2
     6     5     7    1
     7     7     8   ar
     8     8     9   ar
     9     9    10   ar
    10    10    11   ar
    11    11    12   ar
    12    12    13   ar
    13    13    14   ar
    14    14    15   ar
    15    15    16   ar
    16     4    17    1
    17    17    18    1
    18    18    19    1
    19    19    20    1
    20    20    21    1
    21    16     7   ar
    22    21    17    1
    23    15    10   ar
    24     1    22    1
    25     1    23    1
    26     1    24    1
    27     2    25    1
    28     3    26    1
    29     3    27    1
    30     3    28    1
    31     8    29    1
    32     9    30    1
    33    11    31    1
    34    12    32    1
    35    13    33    1
    36    14    34    1
    37    16    35    1
    38    17    36    1
    39    18    37    1
    40    18    38    1
    41    19    39    1
    42    19    40    1
    43    20    41    1
    44    21    42    1
    45    21    43    1
