@<TRIPOS>MOLECULE
*****
 52 55 0 0 0
SMALL
GASTEIGER

@<TRIPOS>ATOM
      1 N          -4.7921   -1.0903   -3.5111 N.pl3   1  UNL1       -0.3424
      2 C          -3.7403   -1.9068   -3.0358 C.ar    1  UNL1        0.1335
      3 N          -3.2397   -2.9295   -3.7433 N.ar    1  UNL1       -0.2203
      4 C          -2.2393   -3.7075   -3.2962 C.ar    1  UNL1        0.1202
      5 N          -1.7105   -3.4599   -2.0905 N.ar    1  UNL1       -0.2197
      6 C          -2.1741   -2.4188   -1.2972 C.ar    1  UNL1        0.1402
      7 N          -1.5815   -2.2422   -0.0319 N.pl3   1  UNL1       -0.2987
      8 C          -0.2456   -1.6785   -0.0298 C.ar    1  UNL1        0.0340
      9 C           0.3663   -1.3513    1.1729 C.ar    1  UNL1       -0.0370
     10 C           1.6450   -0.8341    1.1582 C.ar    1  UNL1       -0.0167
     11 C           2.3510   -0.6261   -0.0260 C.ar    1  UNL1        0.1393
     12 O           3.6483   -0.1047   -0.0389 O.3     1  UNL1       -0.4859
     13 C           4.2401    0.2248    1.2263 C.3     1  UNL1        0.1147
     14 C           5.6151    0.7359    1.0286 C.ar    1  UNL1       -0.0104
     15 C           6.7244   -0.1113    1.0636 C.ar    1  UNL1       -0.0554
     16 C           8.0035    0.3271    0.8810 C.ar    1  UNL1       -0.0614
     17 C           8.2055    1.6761    0.6501 C.ar    1  UNL1       -0.0617
     18 C           7.1397    2.5629    0.6049 C.ar    1  UNL1       -0.0614
     19 C           5.8651    2.0731    0.7955 C.ar    1  UNL1       -0.0554
     20 C           1.7355   -0.9529   -1.2091 C.ar    1  UNL1        0.0843
     21 CL          2.5995   -0.7020   -2.7247 Cl      1  UNL1       -0.0797
     22 C           0.4614   -1.4674   -1.1836 C.ar    1  UNL1       -0.0186
     23 C          -3.1827   -1.6389   -1.7550 C.ar    1  UNL1        0.1163
     24 C          -3.7605   -0.5601   -1.0090 C.2     1  UNL1        0.2549
     25 O          -4.8247   -0.0125   -1.5047 O.2     1  UNL1       -0.2696
     26 N          -3.3648    0.0282    0.1995 N.am    1  UNL1       -0.2813
     27 C          -4.0823    1.1143    0.8186 C.ar    1  UNL1        0.0337
     28 C          -3.7978    2.4278    0.5251 C.ar    1  UNL1       -0.0405
     29 C          -4.4911    3.4731    1.1348 C.ar    1  UNL1       -0.0600
     30 C          -5.4747    3.1864    2.0440 C.ar    1  UNL1       -0.0616
     31 C          -5.7818    1.8882    2.3579 C.ar    1  UNL1       -0.0600
     32 C          -5.0773    0.8602    1.7371 C.ar    1  UNL1       -0.0405
     33 H          -4.5446   -0.1666   -3.9255 H       1  UNL1        0.1437
     34 H          -5.7941   -1.3455   -3.4763 H       1  UNL1        0.1437
     35 H          -1.8395   -4.5350   -3.8769 H       1  UNL1        0.1048
     36 H          -2.0222   -2.5050    0.8808 H       1  UNL1        0.1536
     37 H          -0.1748   -1.5111    2.1013 H       1  UNL1        0.0637
     38 H           2.1609   -0.5649    2.0792 H       1  UNL1        0.0655
     39 H           4.2976   -0.6940    1.8511 H       1  UNL1        0.0748
     40 H           3.5828    1.0053    1.7036 H       1  UNL1        0.0748
     41 H           6.5452   -1.1576    1.2433 H       1  UNL1        0.0621
     42 H           8.8689   -0.3321    0.9092 H       1  UNL1        0.0618
     43 H           9.2337    2.0369    0.5025 H       1  UNL1        0.0618
     44 H           7.3241    3.5979    0.4237 H       1  UNL1        0.0618
     45 H           5.0123    2.7655    0.7616 H       1  UNL1        0.0621
     46 H           0.0295   -1.7052   -2.1466 H       1  UNL1        0.0652
     47 H          -2.5279   -0.2982    0.6831 H       1  UNL1        0.1551
     48 H          -3.0119    2.6175   -0.2012 H       1  UNL1        0.0636
     49 H          -4.2451    4.4969    0.8828 H       1  UNL1        0.0618
     50 H          -6.0298    3.9933    2.5336 H       1  UNL1        0.0618
     51 H          -6.5571    1.6607    3.0751 H       1  UNL1        0.0618
     52 H          -5.3477   -0.1422    2.0109 H       1  UNL1        0.0636
@<TRIPOS>BOND
     1     1     2    1
     2     2     3   ar
     3     3     4   ar
     4     4     5   ar
     5     5     6   ar
     6     6     7    1
     7     7     8    1
     8     8     9   ar
     9     9    10   ar
    10    10    11   ar
    11    11    12    1
    12    12    13    1
    13    13    14    1
    14    14    15   ar
    15    15    16   ar
    16    16    17   ar
    17    17    18   ar
    18    18    19   ar
    19    11    20   ar
    20    20    21    1
    21    20    22   ar
    22     6    23   ar
    23    23    24    1
    24    24    25    2
    25    24    26   am
    26    26    27    1
    27    27    28   ar
    28    28    29   ar
    29    29    30   ar
    30    30    31   ar
    31    31    32   ar
    32    23     2   ar
    33    32    27   ar
    34    22     8   ar
    35    19    14   ar
    36     1    33    1
    37     1    34    1
    38     4    35    1
    39     7    36    1
    40     9    37    1
    41    10    38    1
    42    13    39    1
    43    13    40    1
    44    15    41    1
    45    16    42    1
    46    17    43    1
    47    18    44    1
    48    19    45    1
    49    22    46    1
    50    26    47    1
    51    28    48    1
    52    29    49    1
    53    30    50    1
    54    31    51    1
    55    32    52    1
