
     RDKit          3D

 52 55  0  0  0  0  0  0  0  0999 V2000
   -4.7921   -1.0903   -3.5111 N   0  0  0  0  0  0  0  0  0  0  0  0
   -3.7403   -1.9068   -3.0358 C   0  0  0  0  0  0  0  0  0  0  0  0
   -3.2397   -2.9295   -3.7433 N   0  0  0  0  0  0  0  0  0  0  0  0
   -2.2393   -3.7075   -3.2962 C   0  0  0  0  0  0  0  0  0  0  0  0
   -1.7105   -3.4599   -2.0905 N   0  0  0  0  0  0  0  0  0  0  0  0
   -2.1741   -2.4188   -1.2972 C   0  0  0  0  0  0  0  0  0  0  0  0
   -1.5815   -2.2422   -0.0319 N   0  0  0  0  0  0  0  0  0  0  0  0
   -0.2456   -1.6785   -0.0298 C   0  0  0  0  0  0  0  0  0  0  0  0
    0.3663   -1.3513    1.1729 C   0  0  0  0  0  0  0  0  0  0  0  0
    1.6450   -0.8341    1.1582 C   0  0  0  0  0  0  0  0  0  0  0  0
    2.3510   -0.6261   -0.0260 C   0  0  0  0  0  0  0  0  0  0  0  0
    3.6483   -0.1047   -0.0389 O   0  0  0  0  0  0  0  0  0  0  0  0
    4.2401    0.2248    1.2263 C   0  0  0  0  0  0  0  0  0  0  0  0
    5.6151    0.7359    1.0286 C   0  0  0  0  0  0  0  0  0  0  0  0
    6.7244   -0.1113    1.0636 C   0  0  0  0  0  0  0  0  0  0  0  0
    8.0035    0.3271    0.8810 C   0  0  0  0  0  0  0  0  0  0  0  0
    8.2055    1.6761    0.6501 C   0  0  0  0  0  0  0  0  0  0  0  0
    7.1397    2.5629    0.6049 C   0  0  0  0  0  0  0  0  0  0  0  0
    5.8651    2.0731    0.7955 C   0  0  0  0  0  0  0  0  0  0  0  0
    1.7355   -0.9529   -1.2091 C   0  0  0  0  0  0  0  0  0  0  0  0
    2.5995   -0.7020   -2.7247 Cl  0  0  0  0  0  0  0  0  0  0  0  0
    0.4614   -1.4674   -1.1836 C   0  0  0  0  0  0  0  0  0  0  0  0
   -3.1827   -1.6389   -1.7550 C   0  0  0  0  0  0  0  0  0  0  0  0
   -3.7605   -0.5601   -1.0090 C   0  0  0  0  0  0  0  0  0  0  0  0
   -4.8247   -0.0125   -1.5047 O   0  0  0  0  0  0  0  0  0  0  0  0
   -3.3648    0.0282    0.1995 N   0  0  0  0  0  0  0  0  0  0  0  0
   -4.0823    1.1143    0.8186 C   0  0  0  0  0  0  0  0  0  0  0  0
   -3.7978    2.4278    0.5251 C   0  0  0  0  0  0  0  0  0  0  0  0
   -4.4911    3.4731    1.1348 C   0  0  0  0  0  0  0  0  0  0  0  0
   -5.4747    3.1864    2.0440 C   0  0  0  0  0  0  0  0  0  0  0  0
   -5.7818    1.8882    2.3579 C   0  0  0  0  0  0  0  0  0  0  0  0
   -5.0773    0.8602    1.7371 C   0  0  0  0  0  0  0  0  0  0  0  0
   -4.5446   -0.1666   -3.9255 H   0  0  0  0  0  0  0  0  0  0  0  0
   -5.7941   -1.3455   -3.4763 H   0  0  0  0  0  0  0  0  0  0  0  0
   -1.8395   -4.5350   -3.8769 H   0  0  0  0  0  0  0  0  0  0  0  0
   -2.0222   -2.5050    0.8808 H   0  0  0  0  0  0  0  0  0  0  0  0
   -0.1748   -1.5111    2.1013 H   0  0  0  0  0  0  0  0  0  0  0  0
    2.1609   -0.5649    2.0792 H   0  0  0  0  0  0  0  0  0  0  0  0
    4.2976   -0.6940    1.8511 H   0  0  0  0  0  0  0  0  0  0  0  0
    3.5828    1.0053    1.7036 H   0  0  0  0  0  0  0  0  0  0  0  0
    6.5452   -1.1576    1.2433 H   0  0  0  0  0  0  0  0  0  0  0  0
    8.8689   -0.3321    0.9092 H   0  0  0  0  0  0  0  0  0  0  0  0
    9.2337    2.0369    0.5025 H   0  0  0  0  0  0  0  0  0  0  0  0
    7.3241    3.5979    0.4237 H   0  0  0  0  0  0  0  0  0  0  0  0
    5.0123    2.7655    0.7616 H   0  0  0  0  0  0  0  0  0  0  0  0
    0.0295   -1.7052   -2.1466 H   0  0  0  0  0  0  0  0  0  0  0  0
   -2.5279   -0.2982    0.6831 H   0  0  0  0  0  0  0  0  0  0  0  0
   -3.0119    2.6175   -0.2012 H   0  0  0  0  0  0  0  0  0  0  0  0
   -4.2451    4.4969    0.8828 H   0  0  0  0  0  0  0  0  0  0  0  0
   -6.0298    3.9933    2.5336 H   0  0  0  0  0  0  0  0  0  0  0  0
   -6.5571    1.6607    3.0751 H   0  0  0  0  0  0  0  0  0  0  0  0
   -5.3477   -0.1422    2.0109 H   0  0  0  0  0  0  0  0  0  0  0  0
  1  2  1  0
  2  3  2  0
  3  4  1  0
  4  5  2  0
  5  6  1  0
  6  7  1  0
  7  8  1  0
  8  9  2  0
  9 10  1  0
 10 11  2  0
 11 12  1  0
 12 13  1  0
 13 14  1  0
 14 15  2  0
 15 16  1  0
 16 17  2  0
 17 18  1  0
 18 19  2  0
 11 20  1  0
 20 21  1  0
 20 22  2  0
  6 23  2  0
 23 24  1  0
 24 25  2  0
 24 26  1  0
 26 27  1  0
 27 28  2  0
 28 29  1  0
 29 30  2  0
 30 31  1  0
 31 32  2  0
 23  2  1  0
 32 27  1  0
 22  8  1  0
 19 14  1  0
  1 33  1  0
  1 34  1  0
  4 35  1  0
  7 36  1  0
  9 37  1  0
 10 38  1  0
 13 39  1  0
 13 40  1  0
 15 41  1  0
 16 42  1  0
 17 43  1  0
 18 44  1  0
 19 45  1  0
 22 46  1  0
 26 47  1  0
 28 48  1  0
 29 49  1  0
 30 50  1  0
 31 51  1  0
 32 52  1  0
M  END
$$$$
