
     RDKit          3D

 39 42  0  0  0  0  0  0  0  0999 V2000
    3.0603   -1.5638    3.6010 N   0  0  0  0  0  0  0  0  0  0  0  0
    3.1910   -1.3246    2.4819 C   0  0  0  0  0  0  0  0  0  0  0  0
    3.3633   -1.0330    1.0802 C   0  0  0  0  0  0  0  0  0  0  0  0
    4.5194   -1.2854    0.3572 C   0  0  0  0  0  0  0  0  0  0  0  0
    4.2575   -0.8746   -0.8975 N   0  0  0  0  0  0  0  0  0  0  0  0
    2.9940   -0.3892   -0.9496 C   0  0  0  0  0  0  0  0  0  0  0  0
    2.2911    0.1352   -2.0147 C   0  0  0  0  0  0  0  0  0  0  0  0
    1.0153    0.5683   -1.8488 C   0  0  0  0  0  0  0  0  0  0  0  0
    0.4025    0.4848   -0.5868 C   0  0  0  0  0  0  0  0  0  0  0  0
   -0.9618    0.9544   -0.4036 C   0  0  0  0  0  0  0  0  0  0  0  0
   -2.0934    0.2520   -0.0911 C   0  0  0  0  0  0  0  0  0  0  0  0
   -2.1510   -1.1845    0.1450 C   0  0  0  0  0  0  0  0  0  0  0  0
   -1.6625   -1.7825    1.2863 C   0  0  0  0  0  0  0  0  0  0  0  0
   -1.7163   -3.1569    1.4799 C   0  0  0  0  0  0  0  0  0  0  0  0
   -1.0742   -3.8467    2.9507 Cl  0  0  0  0  0  0  0  0  0  0  0  0
   -2.2684   -3.9580    0.5183 C   0  0  0  0  0  0  0  0  0  0  0  0
   -2.7631   -3.3933   -0.6261 C   0  0  0  0  0  0  0  0  0  0  0  0
   -2.7013   -2.0204   -0.8028 C   0  0  0  0  0  0  0  0  0  0  0  0
   -3.1845   -1.4204   -1.9333 F   0  0  0  0  0  0  0  0  0  0  0  0
   -3.1451    1.1303   -0.0396 N   0  0  0  0  0  0  0  0  0  0  0  0
   -2.6563    2.3500   -0.3173 C   0  0  0  0  0  0  0  0  0  0  0  0
   -1.3289    2.2405   -0.5381 N   0  0  0  0  0  0  0  0  0  0  0  0
   -0.4829    3.3736   -0.8549 C   0  0  0  0  0  0  0  0  0  0  0  0
    0.0310    4.0271    0.4258 C   0  0  0  0  0  0  0  0  0  0  0  0
    0.8372    5.1035    0.0862 F   0  0  0  0  0  0  0  0  0  0  0  0
    0.7541    3.1725    1.2003 F   0  0  0  0  0  0  0  0  0  0  0  0
    1.1739   -0.0516    0.4215 C   0  0  0  0  0  0  0  0  0  0  0  0
    2.4336   -0.4852    0.2790 N   0  0  0  0  0  0  0  0  0  0  0  0
    5.4070   -1.7210    0.7691 H   0  0  0  0  0  0  0  0  0  0  0  0
    2.7387    0.2164   -3.0048 H   0  0  0  0  0  0  0  0  0  0  0  0
    0.4053    0.9887   -2.6471 H   0  0  0  0  0  0  0  0  0  0  0  0
   -1.2292   -1.2015    2.0670 H   0  0  0  0  0  0  0  0  0  0  0  0
   -2.3177   -5.0270    0.6505 H   0  0  0  0  0  0  0  0  0  0  0  0
   -3.2127   -3.9760   -1.4257 H   0  0  0  0  0  0  0  0  0  0  0  0
   -3.2373    3.2816   -0.3580 H   0  0  0  0  0  0  0  0  0  0  0  0
   -1.0648    4.0939   -1.4649 H   0  0  0  0  0  0  0  0  0  0  0  0
    0.4480    3.0137   -1.3956 H   0  0  0  0  0  0  0  0  0  0  0  0
   -0.8341    4.4483    0.9833 H   0  0  0  0  0  0  0  0  0  0  0  0
    0.7627   -0.1390    1.4170 H   0  0  0  0  0  0  0  0  0  0  0  0
  1  2  3  0
  2  3  1  0
  3  4  2  0
  4  5  1  0
  5  6  2  0
  6  7  1  0
  7  8  2  0
  8  9  1  0
  9 10  1  0
 10 11  2  0
 11 12  1  0
 12 13  2  0
 13 14  1  0
 14 15  1  0
 14 16  2  0
 16 17  1  0
 17 18  2  0
 18 19  1  0
 11 20  1  0
 20 21  2  0
 21 22  1  0
 22 23  1  0
 23 24  1  0
 24 25  1  0
 24 26  1  0
  9 27  2  0
 27 28  1  0
 28  3  1  0
 28  6  1  0
 22 10  1  0
 18 12  1  0
  4 29  1  0
  7 30  1  0
  8 31  1  0
 13 32  1  0
 16 33  1  0
 17 34  1  0
 21 35  1  0
 23 36  1  0
 23 37  1  0
 24 38  1  0
 27 39  1  0
M  END
$$$$
