@<TRIPOS>MOLECULE
*****
 39 42 0 0 0
SMALL
GASTEIGER

@<TRIPOS>ATOM
      1 N           3.0603   -1.5638    3.6010 N.1     1  UNL1       -0.1893
      2 C           3.1910   -1.3246    2.4819 C.1     1  UNL1        0.1192
      3 C           3.3633   -1.0330    1.0802 C.ar    1  UNL1        0.1438
      4 C           4.5194   -1.2854    0.3572 C.ar    1  UNL1        0.0643
      5 N           4.2575   -0.8746   -0.8975 N.ar    1  UNL1       -0.2348
      6 C           2.9940   -0.3892   -0.9496 C.ar    1  UNL1        0.1385
      7 C           2.2911    0.1352   -2.0147 C.ar    1  UNL1       -0.0181
      8 C           1.0153    0.5683   -1.8488 C.ar    1  UNL1       -0.0477
      9 C           0.4025    0.4848   -0.5868 C.ar    1  UNL1        0.0173
     10 C          -0.9618    0.9544   -0.4036 C.ar    1  UNL1        0.0781
     11 C          -2.0934    0.2520   -0.0911 C.ar    1  UNL1        0.0995
     12 C          -2.1510   -1.1845    0.1450 C.ar    1  UNL1        0.0390
     13 C          -1.6625   -1.7825    1.2863 C.ar    1  UNL1       -0.0314
     14 C          -1.7163   -3.1569    1.4799 C.ar    1  UNL1        0.0418
     15 CL         -1.0742   -3.8467    2.9507 Cl      1  UNL1       -0.0835
     16 C          -2.2684   -3.9580    0.5183 C.ar    1  UNL1       -0.0406
     17 C          -2.7631   -3.3933   -0.6261 C.ar    1  UNL1       -0.0244
     18 C          -2.7013   -2.0204   -0.8028 C.ar    1  UNL1        0.1327
     19 F          -3.1845   -1.4204   -1.9333 F       1  UNL1       -0.2048
     20 N          -3.1451    1.1303   -0.0396 N.ar    1  UNL1       -0.2350
     21 C          -2.6563    2.3500   -0.3173 C.ar    1  UNL1        0.0972
     22 N          -1.3289    2.2405   -0.5381 N.ar    1  UNL1       -0.3241
     23 C          -0.4829    3.3736   -0.8549 C.3     1  UNL1        0.0852
     24 C           0.0310    4.0271    0.4258 C.3     1  UNL1        0.2569
     25 F           0.8372    5.1035    0.0862 F       1  UNL1       -0.2073
     26 F           0.7541    3.1725    1.2003 F       1  UNL1       -0.2073
     27 C           1.1739   -0.0516    0.4215 C.ar    1  UNL1        0.0216
     28 N           2.4336   -0.4852    0.2790 N.ar    1  UNL1       -0.2906
     29 H           5.4070   -1.7210    0.7691 H       1  UNL1        0.0859
     30 H           2.7387    0.2164   -3.0048 H       1  UNL1        0.0654
     31 H           0.4053    0.9887   -2.6471 H       1  UNL1        0.0626
     32 H          -1.2292   -1.2015    2.0670 H       1  UNL1        0.0639
     33 H          -2.3177   -5.0270    0.6505 H       1  UNL1        0.0633
     34 H          -3.2127   -3.9760   -1.4257 H       1  UNL1        0.0647
     35 H          -3.2373    3.2816   -0.3580 H       1  UNL1        0.1029
     36 H          -1.0648    4.0939   -1.4649 H       1  UNL1        0.0548
     37 H           0.4480    3.0137   -1.3956 H       1  UNL1        0.0548
     38 H          -0.8341    4.4483    0.9833 H       1  UNL1        0.1037
     39 H           0.7627   -0.1390    1.4170 H       1  UNL1        0.0820
@<TRIPOS>BOND
     1     1     2    3
     2     2     3    1
     3     3     4   ar
     4     4     5   ar
     5     5     6   ar
     6     6     7   ar
     7     7     8   ar
     8     8     9   ar
     9     9    10    1
    10    10    11   ar
    11    11    12    1
    12    12    13   ar
    13    13    14   ar
    14    14    15    1
    15    14    16   ar
    16    16    17   ar
    17    17    18   ar
    18    18    19    1
    19    11    20   ar
    20    20    21   ar
    21    21    22   ar
    22    22    23    1
    23    23    24    1
    24    24    25    1
    25    24    26    1
    26     9    27   ar
    27    27    28   ar
    28    28     3   ar
    29    28     6   ar
    30    22    10   ar
    31    18    12   ar
    32     4    29    1
    33     7    30    1
    34     8    31    1
    35    13    32    1
    36    16    33    1
    37    17    34    1
    38    21    35    1
    39    23    36    1
    40    23    37    1
    41    24    38    1
    42    27    39    1
