
     RDKit          3D

 42 45  0  0  0  0  0  0  0  0999 V2000
   -2.7350   -3.5182    1.5180 C   0  0  0  0  0  0  0  0  0  0  0  0
   -2.0747   -2.8662    0.4812 C   0  0  0  0  0  0  0  0  0  0  0  0
   -2.4707   -1.5837    0.5649 N   0  0  0  0  0  0  0  0  0  0  0  0
   -3.3236   -1.4073    1.5763 C   0  0  0  0  0  0  0  0  0  0  0  0
   -3.4938   -2.6188    2.1791 N   0  0  0  0  0  0  0  0  0  0  0  0
   -1.9962   -0.5704   -0.3547 C   0  0  0  0  0  0  0  0  0  0  0  0
   -2.7592    0.6831   -0.3393 C   0  0  0  0  0  0  0  0  0  0  0  0
   -2.4930    1.8986    0.2507 C   0  0  0  0  0  0  0  0  0  0  0  0
   -3.3326    2.9858    0.1724 C   0  0  0  0  0  0  0  0  0  0  0  0
   -4.5199    2.9118   -0.5222 C   0  0  0  0  0  0  0  0  0  0  0  0
   -4.8506    1.7243   -1.1386 C   0  0  0  0  0  0  0  0  0  0  0  0
   -3.9790    0.6651   -1.0321 C   0  0  0  0  0  0  0  0  0  0  0  0
   -0.5249   -0.4040   -0.2811 C   0  0  0  0  0  0  0  0  0  0  0  0
    0.3370   -0.6212   -1.3515 C   0  0  0  0  0  0  0  0  0  0  0  0
    1.7083   -0.4882   -1.3025 C   0  0  0  0  0  0  0  0  0  0  0  0
    2.2945   -0.1118   -0.1115 C   0  0  0  0  0  0  0  0  0  0  0  0
    1.4753    0.1109    0.9665 C   0  0  0  0  0  0  0  0  0  0  0  0
    0.1088   -0.0289    0.8914 C   0  0  0  0  0  0  0  0  0  0  0  0
    3.7365    0.0352   -0.0365 C   0  0  0  0  0  0  0  0  0  0  0  0
    4.3582    0.4625   -1.2137 C   0  0  0  0  0  0  0  0  0  0  0  0
    5.7247    0.6400   -1.2692 C   0  0  0  0  0  0  0  0  0  0  0  0
    6.4997    0.3886   -0.1309 C   0  0  0  0  0  0  0  0  0  0  0  0
    5.8944   -0.0333    1.0345 C   0  0  0  0  0  0  0  0  0  0  0  0
    4.5167   -0.2056    1.0687 C   0  0  0  0  0  0  0  0  0  0  0  0
   -2.7471   -4.5467    1.8640 H   0  0  0  0  0  0  0  0  0  0  0  0
   -1.4159   -3.3981   -0.1730 H   0  0  0  0  0  0  0  0  0  0  0  0
   -3.7720   -0.4552    1.8319 H   0  0  0  0  0  0  0  0  0  0  0  0
   -2.1604   -1.0370   -1.3819 H   0  0  0  0  0  0  0  0  0  0  0  0
   -1.5586    1.9428    0.7874 H   0  0  0  0  0  0  0  0  0  0  0  0
   -3.0085    3.8865    0.6808 H   0  0  0  0  0  0  0  0  0  0  0  0
   -5.1571    3.7830   -0.5651 H   0  0  0  0  0  0  0  0  0  0  0  0
   -5.7778    1.6490   -1.6878 H   0  0  0  0  0  0  0  0  0  0  0  0
   -4.3073   -0.2355   -1.5432 H   0  0  0  0  0  0  0  0  0  0  0  0
   -0.1244   -0.9197   -2.2966 H   0  0  0  0  0  0  0  0  0  0  0  0
    2.2775   -0.6905   -2.2244 H   0  0  0  0  0  0  0  0  0  0  0  0
    1.9900    0.4063    1.8836 H   0  0  0  0  0  0  0  0  0  0  0  0
   -0.4073    0.1633    1.7960 H   0  0  0  0  0  0  0  0  0  0  0  0
    3.8195    0.6780   -2.1395 H   0  0  0  0  0  0  0  0  0  0  0  0
    6.2036    0.9724   -2.1861 H   0  0  0  0  0  0  0  0  0  0  0  0
    7.5647    0.5254   -0.1694 H   0  0  0  0  0  0  0  0  0  0  0  0
    6.4881   -0.2327    1.9291 H   0  0  0  0  0  0  0  0  0  0  0  0
    3.9918   -0.5398    1.9741 H   0  0  0  0  0  0  0  0  0  0  0  0
  1  2  2  0
  2  3  1  0
  3  4  1  0
  4  5  2  0
  3  6  1  0
  6  7  1  0
  7  8  2  0
  8  9  1  0
  9 10  2  0
 10 11  1  0
 11 12  2  0
  6 13  1  0
 13 14  2  0
 14 15  1  0
 15 16  2  0
 16 17  1  0
 17 18  2  0
 16 19  1  0
 19 20  2  0
 20 21  1  0
 21 22  2  0
 22 23  1  0
 23 24  2  0
  5  1  1  0
 12  7  1  0
 18 13  1  0
 24 19  1  0
  1 25  1  0
  2 26  1  0
  4 27  1  0
  6 28  1  0
  8 29  1  0
  9 30  1  0
 10 31  1  0
 11 32  1  0
 12 33  1  0
 14 34  1  0
 15 35  1  0
 17 36  1  0
 18 37  1  0
 20 38  1  0
 21 39  1  0
 22 40  1  0
 23 41  1  0
 24 42  1  0
M  END
$$$$
