
     RDKit          3D

 46 49  0  0  0  0  0  0  0  0999 V2000
   -3.6271   -3.1555   -1.4725 C   0  0  0  0  0  0  0  0  0  0  0  0
   -2.2501   -3.0032   -0.9857 C   0  0  0  0  0  0  0  0  0  0  0  0
   -1.3885   -4.0980   -1.0175 C   0  0  0  0  0  0  0  0  0  0  0  0
   -0.1058   -3.9862   -0.5725 C   0  0  0  0  0  0  0  0  0  0  0  0
    0.9653   -5.3728   -0.6194 Cl  0  0  0  0  0  0  0  0  0  0  0  0
    0.3124   -2.7478   -0.0876 C   0  0  0  0  0  0  0  0  0  0  0  0
   -0.5119   -1.6438   -0.0410 C   0  0  0  0  0  0  0  0  0  0  0  0
   -0.0822   -0.4303    0.4407 C   0  0  0  0  0  0  0  0  0  0  0  0
    1.2563   -0.2246    0.9302 C   0  0  0  0  0  0  0  0  0  0  0  0
    1.5003    0.9720    1.3473 O   0  0  0  0  0  0  0  0  0  0  0  0
    2.2998   -1.0655    1.0285 O   0  0  0  0  0  0  0  0  0  0  0  0
    3.5849   -0.9148    1.4850 C   0  0  0  0  0  0  0  0  0  0  0  0
    4.4422    0.0630    0.8305 C   0  0  0  0  0  0  0  0  0  0  0  0
    5.1950   -0.2344   -0.2851 C   0  0  0  0  0  0  0  0  0  0  0  0
    6.0096    0.7161   -0.8803 C   0  0  0  0  0  0  0  0  0  0  0  0
    6.0757    2.0013   -0.3474 C   0  0  0  0  0  0  0  0  0  0  0  0
    7.0939    3.2301   -1.0721 Cl  0  0  0  0  0  0  0  0  0  0  0  0
    5.3335    2.3085    0.7595 C   0  0  0  0  0  0  0  0  0  0  0  0
    5.3958    3.9308    1.4594 Cl  0  0  0  0  0  0  0  0  0  0  0  0
    4.5300    1.3412    1.3324 C   0  0  0  0  0  0  0  0  0  0  0  0
   -1.0266    0.6108    0.4307 C   0  0  0  0  0  0  0  0  0  0  0  0
   -2.3066    0.4434   -0.0292 C   0  0  0  0  0  0  0  0  0  0  0  0
   -3.2534    1.5591   -0.0188 C   0  0  0  0  0  0  0  0  0  0  0  0
   -4.5535    1.3910   -0.4853 C   0  0  0  0  0  0  0  0  0  0  0  0
   -5.4655    2.4156   -0.4895 C   0  0  0  0  0  0  0  0  0  0  0  0
   -5.1235    3.6676   -0.0252 C   0  0  0  0  0  0  0  0  0  0  0  0
   -6.3899    5.1050   -0.0268 Br  0  0  0  0  0  0  0  0  0  0  0  0
   -3.8566    3.8458    0.4335 C   0  0  0  0  0  0  0  0  0  0  0  0
   -2.9376    2.8143    0.4380 C   0  0  0  0  0  0  0  0  0  0  0  0
   -2.6820   -0.7691   -0.4931 N   0  0  0  0  0  0  0  0  0  0  0  0
   -1.8254   -1.7946   -0.5070 C   0  0  0  0  0  0  0  0  0  0  0  0
   -4.3663   -3.0275   -0.6372 H   0  0  0  0  0  0  0  0  0  0  0  0
   -3.8411   -2.4661   -2.3105 H   0  0  0  0  0  0  0  0  0  0  0  0
   -3.8070   -4.1856   -1.8694 H   0  0  0  0  0  0  0  0  0  0  0  0
   -1.7528   -5.0468   -1.4033 H   0  0  0  0  0  0  0  0  0  0  0  0
    1.3103   -2.6819    0.2527 H   0  0  0  0  0  0  0  0  0  0  0  0
    4.0709   -1.9380    1.4604 H   0  0  0  0  0  0  0  0  0  0  0  0
    3.5273   -0.6981    2.5853 H   0  0  0  0  0  0  0  0  0  0  0  0
    5.1738   -1.2293   -0.7363 H   0  0  0  0  0  0  0  0  0  0  0  0
    6.6087    0.5239   -1.7467 H   0  0  0  0  0  0  0  0  0  0  0  0
    3.9740    1.6704    2.2200 H   0  0  0  0  0  0  0  0  0  0  0  0
   -0.6608    1.5564    0.8160 H   0  0  0  0  0  0  0  0  0  0  0  0
   -4.8127    0.4090   -0.8466 H   0  0  0  0  0  0  0  0  0  0  0  0
   -6.4782    2.2468   -0.8636 H   0  0  0  0  0  0  0  0  0  0  0  0
   -3.5910    4.8405    0.8004 H   0  0  0  0  0  0  0  0  0  0  0  0
   -1.9633    3.0511    0.8190 H   0  0  0  0  0  0  0  0  0  0  0  0
  1  2  1  0
  2  3  2  0
  3  4  1  0
  4  5  1  0
  4  6  2  0
  6  7  1  0
  7  8  2  0
  8  9  1  0
  9 10  2  0
  9 11  1  0
 11 12  1  0
 12 13  1  0
 13 14  2  0
 14 15  1  0
 15 16  2  0
 16 17  1  0
 16 18  1  0
 18 19  1  0
 18 20  2  0
  8 21  1  0
 21 22  2  0
 22 23  1  0
 23 24  2  0
 24 25  1  0
 25 26  2  0
 26 27  1  0
 26 28  1  0
 28 29  2  0
 22 30  1  0
 30 31  2  0
 31  2  1  0
 31  7  1  0
 20 13  1  0
 29 23  1  0
  1 32  1  0
  1 33  1  0
  1 34  1  0
  3 35  1  0
  6 36  1  0
 12 37  1  0
 12 38  1  0
 14 39  1  0
 15 40  1  0
 20 41  1  0
 21 42  1  0
 24 43  1  0
 25 44  1  0
 28 45  1  0
 29 46  1  0
M  END
$$$$
