@<TRIPOS>MOLECULE
*****
 46 49 0 0 0
SMALL
GASTEIGER

@<TRIPOS>ATOM
      1 C          -3.6271   -3.1555   -1.4725 C.3     1  UNL1       -0.0376
      2 C          -2.2501   -3.0032   -0.9857 C.ar    1  UNL1       -0.0231
      3 C          -1.3885   -4.0980   -1.0175 C.ar    1  UNL1       -0.0384
      4 C          -0.1058   -3.9862   -0.5725 C.ar    1  UNL1        0.0419
      5 CL          0.9653   -5.3728   -0.6194 Cl      1  UNL1       -0.0835
      6 C           0.3124   -2.7478   -0.0876 C.ar    1  UNL1       -0.0334
      7 C          -0.5119   -1.6438   -0.0410 C.ar    1  UNL1        0.0160
      8 C          -0.0822   -0.4303    0.4407 C.ar    1  UNL1        0.0702
      9 C           1.2563   -0.2246    0.9302 C.2     1  UNL1        0.3402
     10 O           1.5003    0.9720    1.3473 O.2     1  UNL1       -0.2449
     11 O           2.2998   -1.0655    1.0285 O.3     1  UNL1       -0.4564
     12 C           3.5849   -0.9148    1.4850 C.3     1  UNL1        0.1179
     13 C           4.4422    0.0630    0.8305 C.ar    1  UNL1       -0.0088
     14 C           5.1950   -0.2344   -0.2851 C.ar    1  UNL1       -0.0539
     15 C           6.0096    0.7161   -0.8803 C.ar    1  UNL1       -0.0416
     16 C           6.0757    2.0013   -0.3474 C.ar    1  UNL1        0.0593
     17 CL          7.0939    3.2301   -1.0721 Cl      1  UNL1       -0.0820
     18 C           5.3335    2.3085    0.7595 C.ar    1  UNL1        0.0596
     19 CL          5.3958    3.9308    1.4594 Cl      1  UNL1       -0.0820
     20 C           4.5300    1.3412    1.3324 C.ar    1  UNL1       -0.0356
     21 C          -1.0266    0.6108    0.4307 C.ar    1  UNL1       -0.0211
     22 C          -2.3066    0.4434   -0.0292 C.ar    1  UNL1        0.0725
     23 C          -3.2534    1.5591   -0.0188 C.ar    1  UNL1        0.0004
     24 C          -4.5535    1.3910   -0.4853 C.ar    1  UNL1       -0.0515
     25 C          -5.4655    2.4156   -0.4895 C.ar    1  UNL1       -0.0471
     26 C          -5.1235    3.6676   -0.0252 C.ar    1  UNL1        0.0179
     27 BR         -6.3899    5.1050   -0.0268 Br      1  UNL1       -0.0503
     28 C          -3.8566    3.8458    0.4335 C.ar    1  UNL1       -0.0471
     29 C          -2.9376    2.8143    0.4380 C.ar    1  UNL1       -0.0515
     30 N          -2.6820   -0.7691   -0.4931 N.ar    1  UNL1       -0.2464
     31 C          -1.8254   -1.7946   -0.5070 C.ar    1  UNL1        0.0754
     32 H          -4.3663   -3.0275   -0.6372 H       1  UNL1        0.0278
     33 H          -3.8411   -2.4661   -2.3105 H       1  UNL1        0.0278
     34 H          -3.8070   -4.1856   -1.8694 H       1  UNL1        0.0278
     35 H          -1.7528   -5.0468   -1.4033 H       1  UNL1        0.0635
     36 H           1.3103   -2.6819    0.2527 H       1  UNL1        0.0639
     37 H           4.0709   -1.9380    1.4604 H       1  UNL1        0.0749
     38 H           3.5273   -0.6981    2.5853 H       1  UNL1        0.0749
     39 H           5.1738   -1.2293   -0.7363 H       1  UNL1        0.0622
     40 H           6.6087    0.5239   -1.7467 H       1  UNL1        0.0633
     41 H           3.9740    1.6704    2.2200 H       1  UNL1        0.0636
     42 H          -0.6608    1.5564    0.8160 H       1  UNL1        0.0647
     43 H          -4.8127    0.4090   -0.8466 H       1  UNL1        0.0624
     44 H          -6.4782    2.2468   -0.8636 H       1  UNL1        0.0629
     45 H          -3.5910    4.8405    0.8004 H       1  UNL1        0.0629
     46 H          -1.9633    3.0511    0.8190 H       1  UNL1        0.0624
@<TRIPOS>BOND
     1     1     2    1
     2     2     3   ar
     3     3     4   ar
     4     4     5    1
     5     4     6   ar
     6     6     7   ar
     7     7     8   ar
     8     8     9    1
     9     9    10    2
    10     9    11    1
    11    11    12    1
    12    12    13    1
    13    13    14   ar
    14    14    15   ar
    15    15    16   ar
    16    16    17    1
    17    16    18   ar
    18    18    19    1
    19    18    20   ar
    20     8    21   ar
    21    21    22   ar
    22    22    23    1
    23    23    24   ar
    24    24    25   ar
    25    25    26   ar
    26    26    27    1
    27    26    28   ar
    28    28    29   ar
    29    22    30   ar
    30    30    31   ar
    31    31     2   ar
    32    31     7   ar
    33    20    13   ar
    34    29    23   ar
    35     1    32    1
    36     1    33    1
    37     1    34    1
    38     3    35    1
    39     6    36    1
    40    12    37    1
    41    12    38    1
    42    14    39    1
    43    15    40    1
    44    20    41    1
    45    21    42    1
    46    24    43    1
    47    25    44    1
    48    28    45    1
    49    29    46    1
