@<TRIPOS>MOLECULE
*****
 32 34 0 0 0
SMALL
GASTEIGER

@<TRIPOS>ATOM
      1 C           4.4379    1.2024    1.6468 C.3     1  UNL1       -0.0244
      2 C           3.4328    0.5531    0.7278 C.ar    1  UNL1        0.0135
      3 C           3.6642   -0.4802   -0.1462 C.ar    1  UNL1       -0.0379
      4 C           2.4663   -0.7494   -0.7731 C.ar    1  UNL1       -0.0255
      5 C           2.2481   -1.8019   -1.8063 C.3     1  UNL1       -0.0377
      6 C           1.4830    0.1233   -0.2846 C.ar    1  UNL1        0.0431
      7 C           0.1181    0.1479   -0.7517 C.2     1  UNL1       -0.0254
      8 C          -0.8947    0.0555    0.0684 C.2     1  UNL1        0.0479
      9 C          -0.8484   -0.0866    1.5114 C.2     1  UNL1        0.2490
     10 O           0.1822   -0.1759    2.2338 O.2     1  UNL1       -0.2698
     11 N          -2.2146   -0.1130    1.9931 N.am    1  UNL1       -0.2809
     12 C          -3.0805    0.0099    0.8668 C.ar    1  UNL1        0.0416
     13 C          -4.4579    0.0447    0.7261 C.ar    1  UNL1       -0.0399
     14 C          -5.0617    0.1742   -0.5084 C.ar    1  UNL1       -0.0600
     15 C          -4.2989    0.2731   -1.6387 C.ar    1  UNL1       -0.0611
     16 C          -2.9349    0.2422   -1.5393 C.ar    1  UNL1       -0.0521
     17 C          -2.3334    0.1111   -0.2877 C.ar    1  UNL1        0.0084
     18 N           2.1334    0.8781    0.6129 N.ar    1  UNL1       -0.3584
     19 H           4.2496    0.9245    2.7052 H       1  UNL1        0.0292
     20 H           4.3077    2.2942    1.4964 H       1  UNL1        0.0292
     21 H           5.4515    0.9394    1.3077 H       1  UNL1        0.0292
     22 H           4.6392   -0.9475   -0.2654 H       1  UNL1        0.0638
     23 H           2.9048   -2.6709   -1.5819 H       1  UNL1        0.0278
     24 H           2.4424   -1.3986   -2.8292 H       1  UNL1        0.0278
     25 H           1.1717   -2.1030   -1.7820 H       1  UNL1        0.0278
     26 H          -0.1340    0.2441   -1.8230 H       1  UNL1        0.0646
     27 H          -2.4835   -0.2066    2.9947 H       1  UNL1        0.1552
     28 H          -5.0795   -0.0327    1.5976 H       1  UNL1        0.0636
     29 H          -6.1533    0.1986   -0.5944 H       1  UNL1        0.0618
     30 H          -4.7583    0.3755   -2.6170 H       1  UNL1        0.0618
     31 H          -2.2977    0.3186   -2.4194 H       1  UNL1        0.0624
     32 H           1.6984    1.6558    1.1593 H       1  UNL1        0.1656
@<TRIPOS>BOND
     1     1     2    1
     2     2     3   ar
     3     3     4   ar
     4     4     5    1
     5     4     6   ar
     6     6     7    1
     7     7     8    2
     8     8     9    1
     9     9    10    2
    10     9    11   am
    11    11    12    1
    12    12    13   ar
    13    13    14   ar
    14    14    15   ar
    15    15    16   ar
    16    16    17   ar
    17     6    18   ar
    18    18     2   ar
    19    17     8    1
    20    17    12   ar
    21     1    19    1
    22     1    20    1
    23     1    21    1
    24     3    22    1
    25     5    23    1
    26     5    24    1
    27     5    25    1
    28     7    26    1
    29    11    27    1
    30    13    28    1
    31    14    29    1
    32    15    30    1
    33    16    31    1
    34    18    32    1
