@<TRIPOS>MOLECULE
*****
 57 59 0 0 0
SMALL
GASTEIGER

@<TRIPOS>ATOM
      1 C          11.3852    1.2818   -0.2389 C.3     1  UNL1        0.0789
      2 O          10.3490    1.0494   -1.1722 O.3     1  UNL1       -0.4936
      3 C           9.0581    0.7692   -0.7701 C.ar    1  UNL1        0.1381
      4 C           8.0517    0.5426   -1.6710 C.ar    1  UNL1       -0.0166
      5 C           6.7827    0.2678   -1.1847 C.ar    1  UNL1       -0.0336
      6 C           6.5123    0.2176    0.1670 C.ar    1  UNL1        0.0787
      7 C           5.1485   -0.0794    0.6764 C.3     1  UNL1        0.1314
      8 O           4.2980   -0.2570   -0.4230 O.3     1  UNL1       -0.4841
      9 C           2.9325   -0.5547   -0.2564 C.ar    1  UNL1        0.1459
     10 C           2.3840   -0.6822    1.0015 C.ar    1  UNL1        0.0898
     11 N           1.0636   -0.9701    1.1501 N.ar    1  UNL1       -0.1726
     12 N           0.2700   -1.1355    0.1234 N.ar    1  UNL1       -0.2217
     13 C          -1.1698   -1.4489    0.3401 C.3     1  UNL1        0.1079
     14 C          -1.9324   -0.2101    0.4255 C.2     1  UNL1        0.1847
     15 O          -1.2917    0.9069    0.3939 O.2     1  UNL1       -0.2901
     16 C          -3.3586   -0.0987    0.5459 C.ar    1  UNL1        0.0222
     17 C          -3.8927    1.2082    0.6936 C.ar    1  UNL1       -0.0507
     18 C          -5.2329    1.4523    0.8433 C.ar    1  UNL1       -0.0567
     19 C          -6.1212    0.4081    0.8547 C.ar    1  UNL1       -0.0331
     20 C          -7.5782    0.6850    1.0188 C.3     1  UNL1        0.0235
     21 N          -8.2576    0.8821   -0.2255 N.3     1  UNL1       -0.3042
     22 C          -7.7152    1.9914   -0.9536 C.3     1  UNL1       -0.0127
     23 C          -8.3877   -0.3200   -0.9974 C.3     1  UNL1       -0.0127
     24 C          -5.6199   -0.8510    0.7131 C.ar    1  UNL1       -0.0538
     25 C          -4.2587   -1.1352    0.5581 C.ar    1  UNL1       -0.0396
     26 C          -3.8431   -2.5560    0.3862 C.3     1  UNL1       -0.0390
     27 C           0.7521   -1.0225   -1.1157 C.ar    1  UNL1        0.2711
     28 O           0.0163   -1.1755   -2.1402 O.2     1  UNL1       -0.2661
     29 C           2.1046   -0.7272   -1.3415 C.ar    1  UNL1        0.0476
     30 N           7.5521    0.4511    0.9904 N.ar    1  UNL1       -0.2528
     31 C           8.7928    0.7204    0.5996 C.ar    1  UNL1        0.0696
     32 H          11.0844    2.0778    0.4658 H       1  UNL1        0.0660
     33 H          11.5598    0.3214    0.3057 H       1  UNL1        0.0660
     34 H          12.3311    1.5119   -0.7690 H       1  UNL1        0.0660
     35 H           8.2210    0.5726   -2.7422 H       1  UNL1        0.0655
     36 H           5.9612    0.0828   -1.8939 H       1  UNL1        0.0638
     37 H           4.8114    0.7762    1.2953 H       1  UNL1        0.0763
     38 H           5.1502   -0.9753    1.3448 H       1  UNL1        0.0763
     39 H           3.0216   -0.5495    1.8673 H       1  UNL1        0.0885
     40 H          -1.2001   -1.9245    1.3658 H       1  UNL1        0.0593
     41 H          -1.4725   -2.1938   -0.3922 H       1  UNL1        0.0593
     42 H          -3.2255    2.0533    0.6897 H       1  UNL1        0.0625
     43 H          -5.5996    2.4758    0.9542 H       1  UNL1        0.0621
     44 H          -7.6976    1.5941    1.6337 H       1  UNL1        0.0475
     45 H          -8.0151   -0.1844    1.5560 H       1  UNL1        0.0475
     46 H          -8.4064    2.3240   -1.7744 H       1  UNL1        0.0391
     47 H          -7.6273    2.8469   -0.2728 H       1  UNL1        0.0391
     48 H          -6.6917    1.7893   -1.3504 H       1  UNL1        0.0391
     49 H          -8.9947   -0.0950   -1.8949 H       1  UNL1        0.0391
     50 H          -8.9159   -1.0675   -0.3564 H       1  UNL1        0.0391
     51 H          -7.4012   -0.7341   -1.3160 H       1  UNL1        0.0391
     52 H          -6.3078   -1.7006    0.7180 H       1  UNL1        0.0624
     53 H          -3.1141   -2.9246    1.1070 H       1  UNL1        0.0278
     54 H          -3.6143   -2.7531   -0.6821 H       1  UNL1        0.0278
     55 H          -4.7662   -3.2057    0.6423 H       1  UNL1        0.0278
     56 H           2.4998   -0.6347   -2.3367 H       1  UNL1        0.0710
     57 H           9.6156    0.9064    1.2908 H       1  UNL1        0.0867
@<TRIPOS>BOND
     1     1     2    1
     2     2     3    1
     3     3     4   ar
     4     4     5   ar
     5     5     6   ar
     6     6     7    1
     7     7     8    1
     8     8     9    1
     9     9    10   ar
    10    10    11   ar
    11    11    12   ar
    12    12    13    1
    13    13    14    1
    14    14    15    2
    15    14    16    1
    16    16    17   ar
    17    17    18   ar
    18    18    19   ar
    19    19    20    1
    20    20    21    1
    21    21    22    1
    22    21    23    1
    23    19    24   ar
    24    24    25   ar
    25    25    26    1
    26    12    27   ar
    27    27    28    2
    28    27    29   ar
    29     6    30   ar
    30    30    31   ar
    31    31     3   ar
    32    29     9   ar
    33    25    16   ar
    34     1    32    1
    35     1    33    1
    36     1    34    1
    37     4    35    1
    38     5    36    1
    39     7    37    1
    40     7    38    1
    41    10    39    1
    42    13    40    1
    43    13    41    1
    44    17    42    1
    45    18    43    1
    46    20    44    1
    47    20    45    1
    48    22    46    1
    49    22    47    1
    50    22    48    1
    51    23    49    1
    52    23    50    1
    53    23    51    1
    54    24    52    1
    55    26    53    1
    56    26    54    1
    57    26    55    1
    58    29    56    1
    59    31    57    1
