@<TRIPOS>MOLECULE
*****
 31 34 0 0 0
SMALL
GASTEIGER

@<TRIPOS>ATOM
      1 C           2.4233    0.7037   -0.8929 C.3     1  UNL1        0.1698
      2 C           2.9947   -0.2362   -1.9353 C.3     1  UNL1        0.0031
      3 C           4.2007   -0.7884   -1.1648 C.3     1  UNL1       -0.0321
      4 C           3.9131   -0.4415    0.3036 C.3     1  UNL1        0.0185
      5 N           2.4753   -0.2047    0.2647 N.am    1  UNL1       -0.2620
      6 C           1.3512   -0.6399    1.0315 C.2     1  UNL1        0.2529
      7 O           1.5267   -1.4329    1.9816 O.2     1  UNL1       -0.2698
      8 C           0.0795   -0.0769    0.5877 C.ar    1  UNL1        0.0823
      9 C           0.0150    0.7940   -0.4815 C.ar    1  UNL1        0.1389
     10 O           1.1413    1.1666   -1.1710 O.3     1  UNL1       -0.4699
     11 C          -1.2479    1.2696   -0.8185 C.ar    1  UNL1        0.0263
     12 C          -2.3938    0.8874   -0.1132 C.ar    1  UNL1        0.1656
     13 O          -3.6456    1.3738   -0.4659 O.3     1  UNL1       -0.4848
     14 C          -4.7895    0.5796   -0.2804 C.3     1  UNL1        0.1237
     15 C          -4.6520   -0.4342    0.8037 C.3     1  UNL1        0.1237
     16 O          -3.4873   -0.3066    1.5902 O.3     1  UNL1       -0.4849
     17 C          -2.3054    0.0143    0.9538 C.ar    1  UNL1        0.1630
     18 C          -1.0561   -0.4720    1.3069 C.ar    1  UNL1       -0.0006
     19 H           3.1394    1.5376   -0.7331 H       1  UNL1        0.0952
     20 H           3.2720    0.2616   -2.8672 H       1  UNL1        0.0318
     21 H           2.2484   -1.0574   -2.0848 H       1  UNL1        0.0318
     22 H           4.2083   -1.8872   -1.3114 H       1  UNL1        0.0282
     23 H           5.0933   -0.2696   -1.5479 H       1  UNL1        0.0282
     24 H           4.2111   -1.2406    0.9922 H       1  UNL1        0.0466
     25 H           4.4166    0.5365    0.4768 H       1  UNL1        0.0466
     26 H          -1.3354    1.9586   -1.6570 H       1  UNL1        0.0692
     27 H          -5.0714    0.1296   -1.2729 H       1  UNL1        0.0731
     28 H          -5.6154    1.2695   -0.0117 H       1  UNL1        0.0731
     29 H          -4.5947   -1.4401    0.3013 H       1  UNL1        0.0731
     30 H          -5.5170   -0.3990    1.5089 H       1  UNL1        0.0731
     31 H          -0.9981   -1.1552    2.1442 H       1  UNL1        0.0664
@<TRIPOS>BOND
     1     1     2    1
     2     2     3    1
     3     3     4    1
     4     4     5    1
     5     5     6   am
     6     6     7    2
     7     6     8    1
     8     8     9   ar
     9     9    10    1
    10     9    11   ar
    11    11    12   ar
    12    12    13    1
    13    13    14    1
    14    14    15    1
    15    15    16    1
    16    16    17    1
    17    17    18   ar
    18     5     1    1
    19    18     8   ar
    20    10     1    1
    21    17    12   ar
    22     1    19    1
    23     2    20    1
    24     2    21    1
    25     3    22    1
    26     3    23    1
    27     4    24    1
    28     4    25    1
    29    11    26    1
    30    14    27    1
    31    14    28    1
    32    15    29    1
    33    15    30    1
    34    18    31    1
