@<TRIPOS>MOLECULE
*****
 42 45 0 0 0
SMALL
GASTEIGER

@<TRIPOS>ATOM
      1 N          -2.0983    2.8959    0.1498 N.pl3   1  UNL1       -0.3134
      2 C          -2.4289    1.5269   -0.0383 C.2     1  UNL1        0.2763
      3 N          -2.2779    0.6564    0.8814 N.2     1  UNL1       -0.2225
      4 C          -2.5897   -0.7674    0.7710 C.3     1  UNL1        0.1271
      5 C          -3.0798   -1.1522    2.1533 C.3     1  UNL1        0.1199
      6 F          -4.2024   -0.4103    2.5053 F       1  UNL1       -0.2462
      7 C          -1.3373   -1.4739    0.5129 C.ar    1  UNL1        0.0030
      8 C          -0.1643   -0.6834    0.4016 C.ar    1  UNL1       -0.0335
      9 C           1.0493   -1.2665    0.1477 C.ar    1  UNL1        0.0341
     10 N           2.2278   -0.4269    0.0403 N.am    1  UNL1       -0.2802
     11 C           2.6299    0.1102   -1.1825 C.2     1  UNL1        0.2680
     12 O           1.8575   -0.2023   -2.1699 O.2     1  UNL1       -0.2681
     13 C           3.7763    0.9403   -1.3911 C.ar    1  UNL1        0.1439
     14 N           3.7860    1.6347   -2.5734 N.ar    1  UNL1       -0.2474
     15 C           4.7788    2.4344   -2.9404 C.ar    1  UNL1        0.0468
     16 C           5.8536    2.5917   -2.1217 C.ar    1  UNL1        0.0605
     17 CL          7.1839    3.6467   -2.5832 Cl      1  UNL1       -0.0819
     18 C           5.9200    1.9310   -0.9218 C.ar    1  UNL1       -0.0213
     19 C           4.8438    1.0947   -0.5778 C.ar    1  UNL1        0.0728
     20 CL          4.9376    0.2090    0.9288 Cl      1  UNL1       -0.0811
     21 C           1.1537   -2.6242   -0.0037 C.ar    1  UNL1       -0.0391
     22 C           0.0021   -3.4086    0.1049 C.ar    1  UNL1       -0.0413
     23 C          -1.2428   -2.8267    0.3640 C.ar    1  UNL1        0.0466
     24 CL         -2.6674   -3.8122    0.5128 Cl      1  UNL1       -0.0832
     25 C          -3.7006   -1.0130   -0.1955 C.3     1  UNL1        0.0314
     26 C          -4.8716   -0.0230   -0.0441 C.3     1  UNL1       -0.0065
     27 C          -3.9006    0.0157   -1.2327 C.3     1  UNL1        0.1090
     28 O          -2.9469    1.0273   -1.2478 O.2     1  UNL1       -0.4622
     29 H          -2.7516    3.6588   -0.0922 H       1  UNL1        0.1466
     30 H          -1.1731    3.1372    0.5422 H       1  UNL1        0.1466
     31 H          -3.3717   -2.1991    2.2656 H       1  UNL1        0.0643
     32 H          -2.3209   -0.9352    2.9347 H       1  UNL1        0.0643
     33 H          -0.1848    0.3860    0.5109 H       1  UNL1        0.0640
     34 H           2.7161   -0.2499    0.9243 H       1  UNL1        0.1552
     35 H           4.7401    2.9686   -3.8961 H       1  UNL1        0.0844
     36 H           6.7450    2.0303   -0.2567 H       1  UNL1        0.0648
     37 H           2.0931   -3.1199   -0.2049 H       1  UNL1        0.0636
     38 H           0.0151   -4.4783   -0.0032 H       1  UNL1        0.0633
     39 H          -4.0775   -2.0245   -0.2749 H       1  UNL1        0.0365
     40 H          -4.7660    0.8161    0.6540 H       1  UNL1        0.0306
     41 H          -5.8777   -0.3242   -0.3259 H       1  UNL1        0.0306
     42 H          -4.2777   -0.2903   -2.2265 H       1  UNL1        0.0737
@<TRIPOS>BOND
     1     1     2    1
     2     2     3    2
     3     3     4    1
     4     4     5    1
     5     5     6    1
     6     4     7    1
     7     7     8   ar
     8     8     9   ar
     9     9    10    1
    10    10    11   am
    11    11    12    2
    12    11    13    1
    13    13    14   ar
    14    14    15   ar
    15    15    16   ar
    16    16    17    1
    17    16    18   ar
    18    18    19   ar
    19    19    20    1
    20     9    21   ar
    21    21    22   ar
    22    22    23   ar
    23    23    24    1
    24     4    25    1
    25    25    26    1
    26    26    27    1
    27    27    28    1
    28    28     2    1
    29    23     7   ar
    30    27    25    1
    31    19    13   ar
    32     1    29    1
    33     1    30    1
    34     5    31    1
    35     5    32    1
    36     8    33    1
    37    10    34    1
    38    15    35    1
    39    18    36    1
    40    21    37    1
    41    22    38    1
    42    25    39    1
    43    26    40    1
    44    26    41    1
    45    27    42    1
