
     RDKit          3D

 48 50  0  0  0  0  0  0  0  0999 V2000
   -1.9756   -2.8927   -0.9357 C   0  0  0  0  0  0  0  0  0  0  0  0
   -1.0219   -2.0657   -0.1192 C   0  0  1  0  0  0  0  0  0  0  0  0
    0.0622   -1.4128   -0.8972 C   0  0  1  0  0  0  0  0  0  0  0  0
   -0.3913   -0.4487   -1.9445 C   0  0  0  0  0  0  0  0  0  0  0  0
   -1.4198    0.4867   -1.3937 C   0  0  0  0  0  0  0  0  0  0  0  0
   -1.7426    1.6100   -2.1330 C   0  0  0  0  0  0  0  0  0  0  0  0
   -2.6926    2.4811   -1.6290 C   0  0  0  0  0  0  0  0  0  0  0  0
   -3.3002    2.2293   -0.4166 C   0  0  0  0  0  0  0  0  0  0  0  0
   -4.2321    3.1486    0.0076 O   0  0  0  0  0  0  0  0  0  0  0  0
   -2.9706    1.0937    0.3253 C   0  0  0  0  0  0  0  0  0  0  0  0
   -2.0221    0.2258   -0.1799 C   0  0  0  0  0  0  0  0  0  0  0  0
   -1.7105   -0.9670    0.6552 C   0  0  1  0  0  0  0  0  0  0  0  0
   -2.9869   -1.4351    1.2931 C   0  0  0  0  0  0  0  0  0  0  0  0
   -0.7193   -0.5164    1.6994 C   0  0  0  0  0  0  0  0  0  0  0  0
    0.6417   -0.2517    1.1789 C   0  0  0  0  0  0  0  0  0  0  0  0
    1.0170   -0.8116   -0.0431 N   0  0  0  0  0  0  0  0  0  0  0  0
    2.1077   -0.1623   -0.7242 C   0  0  0  0  0  0  0  0  0  0  0  0
    3.4113   -0.3093   -0.0229 C   0  0  0  0  0  0  0  0  0  0  0  0
    4.1777    0.6950    0.4337 C   0  0  0  0  0  0  0  0  0  0  0  0
    5.4792    0.5208    1.1335 C   0  0  0  0  0  0  0  0  0  0  0  0
    3.6948    2.0894    0.2221 C   0  0  0  0  0  0  0  0  0  0  0  0
   -2.5598   -2.3054   -1.6682 H   0  0  0  0  0  0  0  0  0  0  0  0
   -2.6440   -3.4249   -0.2112 H   0  0  0  0  0  0  0  0  0  0  0  0
   -1.3916   -3.6885   -1.4275 H   0  0  0  0  0  0  0  0  0  0  0  0
   -0.5518   -2.7262    0.6247 H   0  0  0  0  0  0  0  0  0  0  0  0
    0.6006   -2.2373   -1.4538 H   0  0  0  0  0  0  0  0  0  0  0  0
    0.4715    0.1470   -2.2680 H   0  0  0  0  0  0  0  0  0  0  0  0
   -0.8553   -0.9356   -2.8297 H   0  0  0  0  0  0  0  0  0  0  0  0
   -1.2620    1.8168   -3.1019 H   0  0  0  0  0  0  0  0  0  0  0  0
   -2.9079    3.3461   -2.2486 H   0  0  0  0  0  0  0  0  0  0  0  0
   -4.9085    3.5766   -0.5834 H   0  0  0  0  0  0  0  0  0  0  0  0
   -3.5108    1.0083    1.2507 H   0  0  0  0  0  0  0  0  0  0  0  0
   -3.8389   -1.3639    0.5661 H   0  0  0  0  0  0  0  0  0  0  0  0
   -3.2205   -0.7972    2.1882 H   0  0  0  0  0  0  0  0  0  0  0  0
   -2.8892   -2.4716    1.6798 H   0  0  0  0  0  0  0  0  0  0  0  0
   -1.1686    0.3707    2.1953 H   0  0  0  0  0  0  0  0  0  0  0  0
   -0.7162   -1.3071    2.4814 H   0  0  0  0  0  0  0  0  0  0  0  0
    1.3813   -0.6011    1.9518 H   0  0  0  0  0  0  0  0  0  0  0  0
    0.7683    0.8519    1.1397 H   0  0  0  0  0  0  0  0  0  0  0  0
    1.8849    0.8815   -0.9762 H   0  0  0  0  0  0  0  0  0  0  0  0
    2.2350   -0.7126   -1.6985 H   0  0  0  0  0  0  0  0  0  0  0  0
    3.7238   -1.3468    0.1050 H   0  0  0  0  0  0  0  0  0  0  0  0
    6.2680    0.4918    0.3541 H   0  0  0  0  0  0  0  0  0  0  0  0
    5.4827   -0.4531    1.6477 H   0  0  0  0  0  0  0  0  0  0  0  0
    5.5981    1.3524    1.8464 H   0  0  0  0  0  0  0  0  0  0  0  0
    4.3880    2.8376    0.6117 H   0  0  0  0  0  0  0  0  0  0  0  0
    2.7001    2.1925    0.6905 H   0  0  0  0  0  0  0  0  0  0  0  0
    3.5166    2.1913   -0.8713 H   0  0  0  0  0  0  0  0  0  0  0  0
  1  2  1  0
  2  3  1  0
  3  4  1  0
  4  5  1  0
  5  6  2  0
  6  7  1  0
  7  8  2  0
  8  9  1  0
  8 10  1  0
 10 11  2  0
 11 12  1  0
 12 13  1  1
 12 14  1  0
 14 15  1  0
 15 16  1  0
 16 17  1  0
 17 18  1  0
 18 19  2  3
 19 20  1  0
 19 21  1  0
 12  2  1  0
 16  3  1  0
 11  5  1  0
  1 22  1  0
  1 23  1  0
  1 24  1  0
  2 25  1  1
  3 26  1  6
  4 27  1  0
  4 28  1  0
  6 29  1  0
  7 30  1  0
  9 31  1  0
 10 32  1  0
 13 33  1  0
 13 34  1  0
 13 35  1  0
 14 36  1  0
 14 37  1  0
 15 38  1  0
 15 39  1  0
 17 40  1  0
 17 41  1  0
 18 42  1  0
 20 43  1  0
 20 44  1  0
 20 45  1  0
 21 46  1  0
 21 47  1  0
 21 48  1  0
M  END
$$$$
