
     RDKit          3D

 47 50  0  0  0  0  0  0  0  0999 V2000
    1.7730   -0.7541   -4.2867 C   0  0  0  0  0  0  0  0  0  0  0  0
    0.9066   -0.5877   -3.1998 O   0  0  0  0  0  0  0  0  0  0  0  0
    1.2862   -0.4815   -1.8890 C   0  0  0  0  0  0  0  0  0  0  0  0
    0.3946   -0.3180   -0.8483 C   0  0  0  0  0  0  0  0  0  0  0  0
   -0.9684   -0.2590   -1.1630 N   0  0  0  0  0  0  0  0  0  0  0  0
   -2.0439   -0.0981   -0.2702 C   0  0  0  0  0  0  0  0  0  0  0  0
   -2.3976    1.2339   -0.0345 C   0  0  0  0  0  0  0  0  0  0  0  0
   -1.7321    2.3054   -0.6400 C   0  0  0  0  0  0  0  0  0  0  0  0
   -2.1423    3.6035   -0.3554 C   0  0  0  0  0  0  0  0  0  0  0  0
   -3.2039    3.8362    0.5226 C   0  0  0  0  0  0  0  0  0  0  0  0
   -3.8502    2.7759    1.1115 C   0  0  0  0  0  0  0  0  0  0  0  0
   -3.4561    1.4772    0.8404 C   0  0  0  0  0  0  0  0  0  0  0  0
   -4.1473    0.5030    1.4630 N   0  0  0  0  0  0  0  0  0  0  0  0
   -3.8006   -0.7805    1.2309 C   0  0  0  0  0  0  0  0  0  0  0  0
   -4.4999   -1.7893    1.8618 C   0  0  0  0  0  0  0  0  0  0  0  0
   -4.1238   -3.1133    1.6070 C   0  0  0  0  0  0  0  0  0  0  0  0
   -3.0744   -3.3869    0.7411 C   0  0  0  0  0  0  0  0  0  0  0  0
   -2.3728   -2.3752    0.1081 C   0  0  0  0  0  0  0  0  0  0  0  0
   -2.7667   -1.0829    0.3793 C   0  0  0  0  0  0  0  0  0  0  0  0
    0.7856   -0.2117    0.4700 C   0  0  0  0  0  0  0  0  0  0  0  0
    2.1396   -0.2762    0.7238 C   0  0  0  0  0  0  0  0  0  0  0  0
    3.1099   -0.4374   -0.2417 C   0  0  0  0  0  0  0  0  0  0  0  0
    4.4916   -0.5072   -0.0231 N   0  0  0  0  0  0  0  0  0  0  0  0
    5.3934    0.5381    1.0112 S   0  0  0  0  0  0  0  0  0  0  0  0
    4.8723    0.4312    2.7026 C   0  0  0  0  0  0  0  0  0  0  0  0
    5.1924    1.9419    0.4768 O   0  0  0  0  0  0  0  0  0  0  0  0
    6.8472    0.1986    0.8925 O   0  0  0  0  0  0  0  0  0  0  0  0
    2.6299   -0.5366   -1.5489 C   0  0  0  0  0  0  0  0  0  0  0  0
    2.6064   -1.4565   -4.1168 H   0  0  0  0  0  0  0  0  0  0  0  0
    1.1948   -1.1424   -5.1686 H   0  0  0  0  0  0  0  0  0  0  0  0
    2.1160    0.2708   -4.6052 H   0  0  0  0  0  0  0  0  0  0  0  0
   -1.3478   -0.3311   -2.1325 H   0  0  0  0  0  0  0  0  0  0  0  0
   -0.9101    2.0738   -1.3175 H   0  0  0  0  0  0  0  0  0  0  0  0
   -1.5712    4.3635   -0.8678 H   0  0  0  0  0  0  0  0  0  0  0  0
   -3.4661    4.8627    0.6955 H   0  0  0  0  0  0  0  0  0  0  0  0
   -4.6672    3.0419    1.7832 H   0  0  0  0  0  0  0  0  0  0  0  0
   -5.3170   -1.5595    2.5353 H   0  0  0  0  0  0  0  0  0  0  0  0
   -4.7009   -3.8754    2.1245 H   0  0  0  0  0  0  0  0  0  0  0  0
   -2.8247   -4.4375    0.5797 H   0  0  0  0  0  0  0  0  0  0  0  0
   -1.5500   -2.5986   -0.5704 H   0  0  0  0  0  0  0  0  0  0  0  0
    0.0917   -0.0835    1.2901 H   0  0  0  0  0  0  0  0  0  0  0  0
    2.4692   -0.1952    1.7502 H   0  0  0  0  0  0  0  0  0  0  0  0
    4.9725   -1.2831   -0.5612 H   0  0  0  0  0  0  0  0  0  0  0  0
    4.5143   -0.6127    2.9343 H   0  0  0  0  0  0  0  0  0  0  0  0
    5.7372    0.6421    3.3960 H   0  0  0  0  0  0  0  0  0  0  0  0
    4.0582    1.1363    2.9596 H   0  0  0  0  0  0  0  0  0  0  0  0
    3.3527   -0.6649   -2.3503 H   0  0  0  0  0  0  0  0  0  0  0  0
  1  2  1  0
  2  3  1  0
  3  4  2  0
  4  5  1  0
  5  6  1  0
  6  7  1  0
  7  8  2  0
  8  9  1  0
  9 10  2  0
 10 11  1  0
 11 12  2  0
 12 13  1  0
 13 14  2  0
 14 15  1  0
 15 16  2  0
 16 17  1  0
 17 18  2  0
 18 19  1  0
  4 20  1  0
 20 21  2  0
 21 22  1  0
 22 23  1  0
 23 24  1  0
 24 25  1  0
 24 26  2  0
 24 27  2  0
 22 28  2  0
 28  3  1  0
 19  6  2  0
 12  7  1  0
 19 14  1  0
  1 29  1  0
  1 30  1  0
  1 31  1  0
  5 32  1  0
  8 33  1  0
  9 34  1  0
 10 35  1  0
 11 36  1  0
 15 37  1  0
 16 38  1  0
 17 39  1  0
 18 40  1  0
 20 41  1  0
 21 42  1  0
 23 43  1  0
 25 44  1  0
 25 45  1  0
 25 46  1  0
 28 47  1  0
M  END
$$$$
