@<TRIPOS>MOLECULE
*****
 47 50 0 0 0
SMALL
GASTEIGER

@<TRIPOS>ATOM
      1 C           1.7730   -0.7541   -4.2867 C.3     1  UNL1        0.0789
      2 O           0.9066   -0.5877   -3.1998 O.3     1  UNL1       -0.4932
      3 C           1.2862   -0.4815   -1.8890 C.ar    1  UNL1        0.1429
      4 C           0.3946   -0.3180   -0.8483 C.ar    1  UNL1        0.0737
      5 N          -0.9684   -0.2590   -1.1630 N.pl3   1  UNL1       -0.3106
      6 C          -2.0439   -0.0981   -0.2702 C.ar    1  UNL1        0.0500
      7 C          -2.3976    1.2339   -0.0345 C.ar    1  UNL1        0.0221
      8 C          -1.7321    2.3054   -0.6400 C.ar    1  UNL1       -0.0508
      9 C          -2.1423    3.6035   -0.3554 C.ar    1  UNL1       -0.0610
     10 C          -3.2039    3.8362    0.5226 C.ar    1  UNL1       -0.0597
     11 C          -3.8502    2.7759    1.1115 C.ar    1  UNL1       -0.0357
     12 C          -3.4561    1.4772    0.8404 C.ar    1  UNL1        0.0735
     13 N          -4.1473    0.5030    1.4630 N.ar    1  UNL1       -0.2466
     14 C          -3.8006   -0.7805    1.2309 C.ar    1  UNL1        0.0735
     15 C          -4.4999   -1.7893    1.8618 C.ar    1  UNL1       -0.0357
     16 C          -4.1238   -3.1133    1.6070 C.ar    1  UNL1       -0.0597
     17 C          -3.0744   -3.3869    0.7411 C.ar    1  UNL1       -0.0610
     18 C          -2.3728   -2.3752    0.1081 C.ar    1  UNL1       -0.0508
     19 C          -2.7667   -1.0829    0.3793 C.ar    1  UNL1        0.0221
     20 C           0.7856   -0.2117    0.4700 C.ar    1  UNL1       -0.0352
     21 C           2.1396   -0.2762    0.7238 C.ar    1  UNL1       -0.0374
     22 C           3.1099   -0.4374   -0.2417 C.ar    1  UNL1        0.0512
     23 N           4.4916   -0.5072   -0.0231 N.pl3   1  UNL1       -0.2208
     24 S           5.3934    0.5381    1.0112 S.O2    1  UNL1        0.0403
     25 C           4.8723    0.4312    2.7026 C.3     1  UNL1        0.0736
     26 O           5.1924    1.9419    0.4768 O.2     1  UNL1       -0.1555
     27 O           6.8472    0.1986    0.8925 O.2     1  UNL1       -0.1555
     28 C           2.6299   -0.5366   -1.5489 C.ar    1  UNL1        0.0043
     29 H           2.6064   -1.4565   -4.1168 H       1  UNL1        0.0660
     30 H           1.1948   -1.1424   -5.1686 H       1  UNL1        0.0660
     31 H           2.1160    0.2708   -4.6052 H       1  UNL1        0.0660
     32 H          -1.3478   -0.3311   -2.1325 H       1  UNL1        0.1523
     33 H          -0.9101    2.0738   -1.3175 H       1  UNL1        0.0625
     34 H          -1.5712    4.3635   -0.8678 H       1  UNL1        0.0618
     35 H          -3.4661    4.8627    0.6955 H       1  UNL1        0.0618
     36 H          -4.6672    3.0419    1.7832 H       1  UNL1        0.0639
     37 H          -5.3170   -1.5595    2.5353 H       1  UNL1        0.0639
     38 H          -4.7009   -3.8754    2.1245 H       1  UNL1        0.0618
     39 H          -2.8247   -4.4375    0.5797 H       1  UNL1        0.0618
     40 H          -1.5500   -2.5986   -0.5704 H       1  UNL1        0.0625
     41 H           0.0917   -0.0835    1.2901 H       1  UNL1        0.0638
     42 H           2.4692   -0.1952    1.7502 H       1  UNL1        0.0637
     43 H           4.9725   -1.2831   -0.5612 H       1  UNL1        0.1733
     44 H           4.5143   -0.6127    2.9343 H       1  UNL1        0.0482
     45 H           5.7372    0.6421    3.3960 H       1  UNL1        0.0482
     46 H           4.0582    1.1363    2.9596 H       1  UNL1        0.0482
     47 H           3.3527   -0.6649   -2.3503 H       1  UNL1        0.0674
@<TRIPOS>BOND
     1     1     2    1
     2     2     3    1
     3     3     4   ar
     4     4     5    1
     5     5     6    1
     6     6     7   ar
     7     7     8   ar
     8     8     9   ar
     9     9    10   ar
    10    10    11   ar
    11    11    12   ar
    12    12    13   ar
    13    13    14   ar
    14    14    15   ar
    15    15    16   ar
    16    16    17   ar
    17    17    18   ar
    18    18    19   ar
    19     4    20   ar
    20    20    21   ar
    21    21    22   ar
    22    22    23    1
    23    23    24    1
    24    24    25    1
    25    24    26    2
    26    24    27    2
    27    22    28   ar
    28    28     3   ar
    29    19     6   ar
    30    12     7   ar
    31    19    14   ar
    32     1    29    1
    33     1    30    1
    34     1    31    1
    35     5    32    1
    36     8    33    1
    37     9    34    1
    38    10    35    1
    39    11    36    1
    40    15    37    1
    41    16    38    1
    42    17    39    1
    43    18    40    1
    44    20    41    1
    45    21    42    1
    46    23    43    1
    47    25    44    1
    48    25    45    1
    49    25    46    1
    50    28    47    1
