@<TRIPOS>MOLECULE
*****
 63 65 0 0 0
SMALL
GASTEIGER

@<TRIPOS>ATOM
      1 O          -5.2462   -2.4104    0.3184 O.3     1  UNL1       -0.3934
      2 C          -4.5119   -2.0425   -0.8123 C.3     1  UNL1        0.0622
      3 C          -4.6004   -0.5543   -1.0212 C.3     1  UNL1        0.0621
      4 C          -6.0826   -0.2035   -1.1717 C.3     1  UNL1        0.1011
      5 O          -6.8164   -1.3266   -1.5332 O.3     1  UNL1       -0.3875
      6 C          -6.5423    0.3887    0.1438 C.3     1  UNL1        0.1095
      7 O          -7.9022    0.4577    0.2735 O.3     1  UNL1       -0.3866
      8 C          -5.8724    1.7400    0.2913 C.3     1  UNL1        0.0962
      9 O          -6.1632    2.2142    1.5658 O.3     1  UNL1       -0.3879
     10 C          -4.3514    1.5362    0.1046 C.3     1  UNL1        0.0279
     11 N          -4.0925    0.1367    0.1104 N.3     1  UNL1       -0.2923
     12 C          -3.0946   -0.4057    0.8839 C.3     1  UNL1       -0.0006
     13 C          -1.6432   -0.1872    0.5379 C.3     1  UNL1       -0.0401
     14 C          -1.2348    1.2378    0.5267 C.3     1  UNL1       -0.0498
     15 C           0.2031    1.4406    0.1916 C.3     1  UNL1       -0.0294
     16 C           1.1316    0.7942    1.1598 C.3     1  UNL1        0.0481
     17 O           1.0496   -0.5659    1.1558 O.3     1  UNL1       -0.3752
     18 C           1.4679   -1.2043    0.0035 C.3     1  UNL1        0.0727
     19 C           2.9298   -0.8856   -0.1461 C.ar    1  UNL1       -0.0219
     20 C           3.3908    0.1746   -0.8704 C.ar    1  UNL1       -0.0558
     21 C           4.7480    0.3897   -0.9444 C.ar    1  UNL1       -0.0537
     22 C           5.6558   -0.4382   -0.3057 C.ar    1  UNL1       -0.0179
     23 C           7.0864   -0.2018   -0.3921 C.ar    1  UNL1       -0.0179
     24 C           7.9923   -1.2315   -0.3481 C.ar    1  UNL1       -0.0540
     25 C           9.3602   -1.0195   -0.4314 C.ar    1  UNL1       -0.0612
     26 C           9.8029    0.2679   -0.5615 C.ar    1  UNL1       -0.0617
     27 C           8.9347    1.3338   -0.6104 C.ar    1  UNL1       -0.0612
     28 C           7.5718    1.0854   -0.5243 C.ar    1  UNL1       -0.0540
     29 C           5.1731   -1.4995    0.4181 C.ar    1  UNL1       -0.0537
     30 C           3.8062   -1.7419    0.5109 C.ar    1  UNL1       -0.0558
     31 H          -6.0277   -2.9538    0.0366 H       1  UNL1        0.2095
     32 H          -4.8748   -2.6020   -1.7144 H       1  UNL1        0.0573
     33 H          -3.4775   -2.3970   -0.6671 H       1  UNL1        0.0573
     34 H          -4.0852   -0.2614   -1.9735 H       1  UNL1        0.0511
     35 H          -6.2307    0.5792   -1.9508 H       1  UNL1        0.0636
     36 H          -7.7697   -1.1631   -1.3787 H       1  UNL1        0.2100
     37 H          -6.0650   -0.2589    0.9377 H       1  UNL1        0.0646
     38 H          -8.1528    1.4027    0.4888 H       1  UNL1        0.2100
     39 H          -6.2940    2.3949   -0.4854 H       1  UNL1        0.0633
     40 H          -6.9750    2.7823    1.5413 H       1  UNL1        0.2099
     41 H          -3.9013    2.0123    0.9708 H       1  UNL1        0.0453
     42 H          -4.1067    2.0744   -0.8253 H       1  UNL1        0.0453
     43 H          -3.2538   -1.4980    1.0821 H       1  UNL1        0.0427
     44 H          -3.1896    0.0300    1.9428 H       1  UNL1        0.0427
     45 H          -1.0967   -0.6983    1.3899 H       1  UNL1        0.0278
     46 H          -1.3519   -0.7444   -0.3752 H       1  UNL1        0.0278
     47 H          -1.8826    1.8448   -0.1919 H       1  UNL1        0.0266
     48 H          -1.4785    1.7361    1.5162 H       1  UNL1        0.0266
     49 H           0.4446    1.0027   -0.8297 H       1  UNL1        0.0287
     50 H           0.4481    2.5284    0.0433 H       1  UNL1        0.0287
     51 H           2.1851    1.1642    1.0314 H       1  UNL1        0.0560
     52 H           0.8283    1.1782    2.1883 H       1  UNL1        0.0560
     53 H           0.9170   -0.9581   -0.9063 H       1  UNL1        0.0610
     54 H           1.3553   -2.3058    0.2154 H       1  UNL1        0.0610
     55 H           2.7271    0.8375   -1.3815 H       1  UNL1        0.0621
     56 H           5.1756    1.2148   -1.5042 H       1  UNL1        0.0624
     57 H           7.6259   -2.2360   -0.2454 H       1  UNL1        0.0624
     58 H           9.9953   -1.8760   -0.3890 H       1  UNL1        0.0618
     59 H          10.8666    0.4276   -0.6257 H       1  UNL1        0.0618
     60 H           9.3202    2.3331   -0.7140 H       1  UNL1        0.0618
     61 H           6.8588    1.8880   -0.5585 H       1  UNL1        0.0624
     62 H           5.8535   -2.1723    0.9337 H       1  UNL1        0.0624
     63 H           3.4618   -2.5848    1.0878 H       1  UNL1        0.0621
@<TRIPOS>BOND
     1     1     2    1
     2     2     3    1
     3     3     4    1
     4     4     5    1
     5     4     6    1
     6     6     7    1
     7     6     8    1
     8     8     9    1
     9     8    10    1
    10    10    11    1
    11    11    12    1
    12    12    13    1
    13    13    14    1
    14    14    15    1
    15    15    16    1
    16    16    17    1
    17    17    18    1
    18    18    19    1
    19    19    20   ar
    20    20    21   ar
    21    21    22   ar
    22    22    23    1
    23    23    24   ar
    24    24    25   ar
    25    25    26   ar
    26    26    27   ar
    27    27    28   ar
    28    22    29   ar
    29    29    30   ar
    30    11     3    1
    31    30    19   ar
    32    28    23   ar
    33     1    31    1
    34     2    32    1
    35     2    33    1
    36     3    34    1
    37     4    35    1
    38     5    36    1
    39     6    37    1
    40     7    38    1
    41     8    39    1
    42     9    40    1
    43    10    41    1
    44    10    42    1
    45    12    43    1
    46    12    44    1
    47    13    45    1
    48    13    46    1
    49    14    47    1
    50    14    48    1
    51    15    49    1
    52    15    50    1
    53    16    51    1
    54    16    52    1
    55    18    53    1
    56    18    54    1
    57    20    55    1
    58    21    56    1
    59    24    57    1
    60    25    58    1
    61    26    59    1
    62    27    60    1
    63    28    61    1
    64    29    62    1
    65    30    63    1
