@<TRIPOS>MOLECULE
*****
 48 51 0 0 0
SMALL
GASTEIGER

@<TRIPOS>ATOM
      1 C           3.6123    0.9300    1.6286 C.3     1  UNL1       -0.0482
      2 C           3.6250    1.6979    0.3395 C.3     1  UNL1        0.0205
      3 C           2.3844    1.4596   -0.4980 C.3     1  UNL1        0.0274
      4 N           2.2784    0.0925   -0.8839 N.pl3   1  UNL1       -0.3249
      5 C           3.5199   -0.4253   -1.3675 C.3     1  UNL1        0.0249
      6 C           4.6124    0.5693   -1.5418 C.3     1  UNL1        0.0119
      7 N           4.8325    1.4122   -0.3961 N.3     1  UNL1       -0.3105
      8 C           1.1113   -0.7082   -0.8214 C.ar    1  UNL1        0.0675
      9 C           1.0685   -2.0367   -1.1863 C.ar    1  UNL1        0.1451
     10 F           2.1826   -2.6596   -1.6351 F       1  UNL1       -0.2035
     11 C          -0.0629   -2.8216   -1.1299 C.ar    1  UNL1       -0.0118
     12 C          -1.2494   -2.2779   -0.6844 C.ar    1  UNL1        0.0492
     13 C          -2.3731   -3.0733   -0.6327 C.ar    1  UNL1        0.2035
     14 O          -2.3635   -4.2807   -0.9763 O.2     1  UNL1       -0.2863
     15 C          -3.5726   -2.5358   -0.1856 C.ar    1  UNL1        0.1224
     16 C          -3.5276   -1.2103    0.1779 C.ar    1  UNL1        0.0282
     17 N          -2.4331   -0.4449    0.1248 N.ar    1  UNL1       -0.3123
     18 C          -1.2607   -0.9509   -0.3066 C.ar    1  UNL1        0.0594
     19 C          -0.0966   -0.2111   -0.3839 C.ar    1  UNL1       -0.0133
     20 C          -2.4725    0.9221    0.5208 C.ar    1  UNL1        0.0821
     21 C          -2.2386    1.2059    1.8543 C.ar    1  UNL1        0.1498
     22 F          -1.9744    0.2768    2.8123 F       1  UNL1       -0.2032
     23 C          -2.2698    2.5210    2.2703 C.ar    1  UNL1        0.0109
     24 C          -2.5314    3.5185    1.3561 C.ar    1  UNL1        0.1263
     25 F          -2.5544    4.8020    1.8007 F       1  UNL1       -0.2054
     26 C          -2.7718    3.2626    0.0012 C.ar    1  UNL1       -0.0243
     27 C          -2.7329    1.9367   -0.3795 C.ar    1  UNL1       -0.0323
     28 C          -4.8162   -3.3049   -0.0968 C.2     1  UNL1        0.3420
     29 O          -4.7531   -4.6541   -0.4934 O.3     1  UNL1       -0.4770
     30 O          -5.8874   -2.7870    0.3130 O.2     1  UNL1       -0.2449
     31 H           4.4327    0.1708    1.6902 H       1  UNL1        0.0245
     32 H           2.6144    0.4638    1.7546 H       1  UNL1        0.0245
     33 H           3.7945    1.5971    2.5034 H       1  UNL1        0.0245
     34 H           3.6315    2.7795    0.5873 H       1  UNL1        0.0473
     35 H           1.5305    1.7821    0.1207 H       1  UNL1        0.0479
     36 H           2.4490    2.1227   -1.3803 H       1  UNL1        0.0479
     37 H           3.2934   -0.8233   -2.4022 H       1  UNL1        0.0476
     38 H           3.8356   -1.3279   -0.7871 H       1  UNL1        0.0476
     39 H           4.5085    1.1425   -2.4862 H       1  UNL1        0.0439
     40 H           5.5628   -0.0209   -1.6754 H       1  UNL1        0.0439
     41 H           5.3831    2.2683   -0.6182 H       1  UNL1        0.1223
     42 H          -0.0555   -3.8595   -1.4250 H       1  UNL1        0.0654
     43 H          -4.4316   -0.7242    0.5376 H       1  UNL1        0.0822
     44 H          -0.2224    0.7954   -0.0691 H       1  UNL1        0.0658
     45 H          -2.0922    2.7892    3.3061 H       1  UNL1        0.0676
     46 H          -2.9736    4.0729   -0.6862 H       1  UNL1        0.0647
     47 H          -2.9092    1.6615   -1.4111 H       1  UNL1        0.0640
     48 H          -5.6370   -5.1146   -0.6551 H       1  UNL1        0.2954
@<TRIPOS>BOND
     1     1     2    1
     2     2     3    1
     3     3     4    1
     4     4     5    1
     5     5     6    1
     6     6     7    1
     7     4     8    1
     8     8     9   ar
     9     9    10    1
    10     9    11   ar
    11    11    12   ar
    12    12    13   ar
    13    13    14    2
    14    13    15   ar
    15    15    16   ar
    16    16    17   ar
    17    17    18   ar
    18    18    19   ar
    19    17    20    1
    20    20    21   ar
    21    21    22    1
    22    21    23   ar
    23    23    24   ar
    24    24    25    1
    25    24    26   ar
    26    26    27   ar
    27    15    28    1
    28    28    29    1
    29    28    30    2
    30     7     2    1
    31    19     8   ar
    32    27    20   ar
    33    18    12   ar
    34     1    31    1
    35     1    32    1
    36     1    33    1
    37     2    34    1
    38     3    35    1
    39     3    36    1
    40     5    37    1
    41     5    38    1
    42     6    39    1
    43     6    40    1
    44     7    41    1
    45    11    42    1
    46    16    43    1
    47    19    44    1
    48    23    45    1
    49    26    46    1
    50    27    47    1
    51    29    48    1
