
     RDKit          3D

 40 43  0  0  0  0  0  0  0  0999 V2000
    8.1037    1.5956   -0.1885 N   0  0  0  0  0  0  0  0  0  0  0  0
    7.1655    0.5440   -0.3871 C   0  0  0  0  0  0  0  0  0  0  0  0
    7.4586   -0.7167   -0.7948 N   0  0  0  0  0  0  0  0  0  0  0  0
    6.3231   -1.4191   -0.8666 N   0  0  0  0  0  0  0  0  0  0  0  0
    5.2889   -0.6307   -0.5098 C   0  0  0  0  0  0  0  0  0  0  0  0
    3.9660   -0.8197   -0.4074 N   0  0  0  0  0  0  0  0  0  0  0  0
    3.0949    0.1392   -0.0198 C   0  0  0  0  0  0  0  0  0  0  0  0
    1.6943   -0.1912    0.0501 C   0  0  0  0  0  0  0  0  0  0  0  0
    1.2756   -1.4617   -0.2753 C   0  0  0  0  0  0  0  0  0  0  0  0
   -0.0441   -1.8397   -0.2297 C   0  0  0  0  0  0  0  0  0  0  0  0
   -1.0413   -0.9210    0.1604 C   0  0  0  0  0  0  0  0  0  0  0  0
   -2.3741   -1.3700    0.1580 N   0  0  0  0  0  0  0  0  0  0  0  0
   -3.5803   -0.8340    1.2270 S   0  0  0  0  0  6  0  0  0  0  0  0
   -4.0260   -2.0008    2.0791 O   0  0  0  0  0  0  0  0  0  0  0  0
   -2.9914    0.2186    2.1491 O   0  0  0  0  0  0  0  0  0  0  0  0
   -4.9815   -0.1454    0.4709 C   0  0  0  0  0  0  0  0  0  0  0  0
   -6.2235   -0.6829    0.8070 C   0  0  0  0  0  0  0  0  0  0  0  0
   -7.3911   -0.1957    0.2809 C   0  0  0  0  0  0  0  0  0  0  0  0
   -7.3466    0.8448   -0.5976 C   0  0  0  0  0  0  0  0  0  0  0  0
   -6.1385    1.3964   -0.9495 C   0  0  0  0  0  0  0  0  0  0  0  0
   -6.0848    2.7386   -2.0832 Cl  0  0  0  0  0  0  0  0  0  0  0  0
   -4.9572    0.8932   -0.4090 C   0  0  0  0  0  0  0  0  0  0  0  0
   -3.4699    1.6473   -0.9419 Cl  0  0  0  0  0  0  0  0  0  0  0  0
   -0.6257    0.3440    0.4856 C   0  0  0  0  0  0  0  0  0  0  0  0
    0.7331    0.7060    0.4302 C   0  0  0  0  0  0  0  0  0  0  0  0
    3.6102    1.3775    0.2846 C   0  0  0  0  0  0  0  0  0  0  0  0
    4.9367    1.5759    0.1845 N   0  0  0  0  0  0  0  0  0  0  0  0
    5.8003    0.6212   -0.2010 C   0  0  0  0  0  0  0  0  0  0  0  0
    7.8582    2.5466   -0.5272 H   0  0  0  0  0  0  0  0  0  0  0  0
    9.0183    1.4334    0.2828 H   0  0  0  0  0  0  0  0  0  0  0  0
    6.2672   -2.4197   -1.1556 H   0  0  0  0  0  0  0  0  0  0  0  0
    2.0096   -2.1881   -0.5773 H   0  0  0  0  0  0  0  0  0  0  0  0
   -0.3771   -2.8313   -0.4829 H   0  0  0  0  0  0  0  0  0  0  0  0
   -2.6502   -2.0947   -0.5615 H   0  0  0  0  0  0  0  0  0  0  0  0
   -6.3002   -1.5271    1.5161 H   0  0  0  0  0  0  0  0  0  0  0  0
   -8.3650   -0.6132    0.5412 H   0  0  0  0  0  0  0  0  0  0  0  0
   -8.2422    1.2854   -1.0576 H   0  0  0  0  0  0  0  0  0  0  0  0
   -1.3213    1.0966    0.8150 H   0  0  0  0  0  0  0  0  0  0  0  0
    0.9906    1.7118    0.6966 H   0  0  0  0  0  0  0  0  0  0  0  0
    2.9374    2.1867    0.6042 H   0  0  0  0  0  0  0  0  0  0  0  0
  1  2  1  0
  2  3  2  0
  3  4  1  0
  4  5  1  0
  5  6  2  0
  6  7  1  0
  7  8  1  0
  8  9  2  0
  9 10  1  0
 10 11  2  0
 11 12  1  0
 12 13  1  0
 13 14  2  0
 13 15  2  0
 13 16  1  0
 16 17  2  0
 17 18  1  0
 18 19  2  0
 19 20  1  0
 20 21  1  0
 20 22  2  0
 22 23  1  0
 11 24  1  0
 24 25  2  0
  7 26  2  0
 26 27  1  0
 27 28  2  0
 28  2  1  0
 28  5  1  0
 25  8  1  0
 22 16  1  0
  1 29  1  0
  1 30  1  0
  4 31  1  0
  9 32  1  0
 10 33  1  0
 12 34  1  0
 17 35  1  0
 18 36  1  0
 19 37  1  0
 24 38  1  0
 25 39  1  0
 26 40  1  0
M  END
$$$$
