@<TRIPOS>MOLECULE
*****
 40 43 0 0 0
SMALL
GASTEIGER

@<TRIPOS>ATOM
      1 N           8.1037    1.5956   -0.1885 N.pl3   1  UNL1       -0.3400
      2 C           7.1655    0.5440   -0.3871 C.ar    1  UNL1        0.1657
      3 N           7.4586   -0.7167   -0.7948 N.ar    1  UNL1       -0.1551
      4 N           6.3231   -1.4191   -0.8666 N.ar    1  UNL1       -0.2571
      5 C           5.2889   -0.6307   -0.5098 C.ar    1  UNL1        0.1769
      6 N           3.9660   -0.8197   -0.4074 N.ar    1  UNL1       -0.2248
      7 C           3.0949    0.1392   -0.0198 C.ar    1  UNL1        0.0914
      8 C           1.6943   -0.1912    0.0501 C.ar    1  UNL1        0.0020
      9 C           1.2756   -1.4617   -0.2753 C.ar    1  UNL1       -0.0507
     10 C          -0.0441   -1.8397   -0.2297 C.ar    1  UNL1       -0.0387
     11 C          -1.0413   -0.9210    0.1604 C.ar    1  UNL1        0.0481
     12 N          -2.3741   -1.3700    0.1580 N.pl3   1  UNL1       -0.2162
     13 S          -3.5803   -0.8340    1.2270 S.O2    1  UNL1        0.0738
     14 O          -4.0260   -2.0008    2.0791 O.2     1  UNL1       -0.1499
     15 O          -2.9914    0.2186    2.1491 O.2     1  UNL1       -0.1499
     16 C          -4.9815   -0.1454    0.4709 C.ar    1  UNL1        0.1281
     17 C          -6.2235   -0.6829    0.8070 C.ar    1  UNL1       -0.0335
     18 C          -7.3911   -0.1957    0.2809 C.ar    1  UNL1       -0.0584
     19 C          -7.3466    0.8448   -0.5976 C.ar    1  UNL1       -0.0419
     20 C          -6.1385    1.3964   -0.9495 C.ar    1  UNL1        0.0612
     21 CL         -6.0848    2.7386   -2.0832 Cl      1  UNL1       -0.0820
     22 C          -4.9572    0.8932   -0.4090 C.ar    1  UNL1        0.0858
     23 CL         -3.4699    1.6473   -0.9419 Cl      1  UNL1       -0.0800
     24 C          -0.6257    0.3440    0.4856 C.ar    1  UNL1       -0.0387
     25 C           0.7331    0.7060    0.4302 C.ar    1  UNL1       -0.0507
     26 C           3.6102    1.3775    0.2846 C.ar    1  UNL1        0.0545
     27 N           4.9367    1.5759    0.1845 N.ar    1  UNL1       -0.2462
     28 C           5.8003    0.6212   -0.2010 C.ar    1  UNL1        0.1484
     29 H           7.8582    2.5466   -0.5272 H       1  UNL1        0.1438
     30 H           9.0183    1.4334    0.2828 H       1  UNL1        0.1438
     31 H           6.2672   -2.4197   -1.1556 H       1  UNL1        0.1906
     32 H           2.0096   -2.1881   -0.5773 H       1  UNL1        0.0625
     33 H          -0.3771   -2.8313   -0.4829 H       1  UNL1        0.0637
     34 H          -2.6502   -2.0947   -0.5615 H       1  UNL1        0.1737
     35 H          -6.3002   -1.5271    1.5161 H       1  UNL1        0.0638
     36 H          -8.3650   -0.6132    0.5412 H       1  UNL1        0.0619
     37 H          -8.2422    1.2854   -1.0576 H       1  UNL1        0.0633
     38 H          -1.3213    1.0966    0.8150 H       1  UNL1        0.0637
     39 H           0.9906    1.7118    0.6966 H       1  UNL1        0.0625
     40 H           2.9374    2.1867    0.6042 H       1  UNL1        0.0852
@<TRIPOS>BOND
     1     1     2    1
     2     2     3   ar
     3     3     4   ar
     4     4     5   ar
     5     5     6   ar
     6     6     7   ar
     7     7     8    1
     8     8     9   ar
     9     9    10   ar
    10    10    11   ar
    11    11    12    1
    12    12    13    1
    13    13    14    2
    14    13    15    2
    15    13    16    1
    16    16    17   ar
    17    17    18   ar
    18    18    19   ar
    19    19    20   ar
    20    20    21    1
    21    20    22   ar
    22    22    23    1
    23    11    24   ar
    24    24    25   ar
    25     7    26   ar
    26    26    27   ar
    27    27    28   ar
    28    28     2   ar
    29    28     5   ar
    30    25     8   ar
    31    22    16   ar
    32     1    29    1
    33     1    30    1
    34     4    31    1
    35     9    32    1
    36    10    33    1
    37    12    34    1
    38    17    35    1
    39    18    36    1
    40    19    37    1
    41    24    38    1
    42    25    39    1
    43    26    40    1
