
     RDKit          3D

 49 51  0  0  0  0  0  0  0  0999 V2000
    3.8013    2.1513    0.7962 N   0  0  0  0  0  0  0  0  0  0  0  0
    4.8138    2.5241    0.0699 C   0  0  0  0  0  0  0  0  0  0  0  0
    5.4324    3.7886    0.2505 N   0  0  0  0  0  0  0  0  0  0  0  0
    5.2660    1.6132   -0.9026 N   0  0  0  0  0  0  0  0  0  0  0  0
    5.3764    0.2017   -0.7282 C   0  0  0  0  0  0  0  0  0  0  0  0
    4.0559   -0.3681   -0.3962 C   0  0  0  0  0  0  0  0  0  0  0  0
    3.1921   -0.6854   -1.4297 C   0  0  0  0  0  0  0  0  0  0  0  0
    1.9505   -1.2383   -1.1956 C   0  0  0  0  0  0  0  0  0  0  0  0
    1.5264   -1.4948    0.0869 C   0  0  0  0  0  0  0  0  0  0  0  0
    0.2329   -2.0744    0.3985 C   0  0  0  0  0  0  0  0  0  0  0  0
   -0.0565   -2.2672    1.6049 O   0  0  0  0  0  0  0  0  0  0  0  0
   -0.7384   -2.4435   -0.5572 N   0  0  0  0  0  0  0  0  0  0  0  0
   -1.9958   -3.0083   -0.2302 C   0  0  0  0  0  0  0  0  0  0  0  0
   -2.1596   -4.3957   -0.1130 C   0  0  0  0  0  0  0  0  0  0  0  0
   -3.3994   -4.8998    0.2067 C   0  0  0  0  0  0  0  0  0  0  0  0
   -4.4685   -4.0579    0.4100 C   0  0  0  0  0  0  0  0  0  0  0  0
   -6.0398   -4.7180    0.8165 Cl  0  0  0  0  0  0  0  0  0  0  0  0
   -4.2874   -2.6711    0.2887 C   0  0  0  0  0  0  0  0  0  0  0  0
   -3.0594   -2.1541   -0.0290 C   0  0  0  0  0  0  0  0  0  0  0  0
   -2.8448   -0.7260   -0.1644 C   0  0  0  0  0  0  0  0  0  0  0  0
   -1.6859   -0.3048   -0.4701 O   0  0  0  0  0  0  0  0  0  0  0  0
   -3.8423    0.2592    0.0202 N   0  0  0  0  0  0  0  0  0  0  0  0
   -3.7121    1.6522   -0.0927 C   0  0  0  0  0  0  0  0  0  0  0  0
   -2.6063    2.3814   -0.4042 C   0  0  0  0  0  0  0  0  0  0  0  0
   -2.5803    3.7577   -0.4906 C   0  0  0  0  0  0  0  0  0  0  0  0
   -3.7418    4.4435   -0.2479 C   0  0  0  0  0  0  0  0  0  0  0  0
   -3.8141    6.1922   -0.3321 Cl  0  0  0  0  0  0  0  0  0  0  0  0
   -4.8734    3.7238    0.0693 C   0  0  0  0  0  0  0  0  0  0  0  0
   -4.8449    2.3850    0.1403 N   0  0  0  0  0  0  0  0  0  0  0  0
    2.3953   -1.1746    1.1049 C   0  0  0  0  0  0  0  0  0  0  0  0
    3.6479   -0.6177    0.8804 C   0  0  0  0  0  0  0  0  0  0  0  0
    3.4359    2.7865    1.5220 H   0  0  0  0  0  0  0  0  0  0  0  0
    6.3668    3.8476    0.7013 H   0  0  0  0  0  0  0  0  0  0  0  0
    4.9756    4.6598   -0.0563 H   0  0  0  0  0  0  0  0  0  0  0  0
    5.5481    2.0193   -1.8361 H   0  0  0  0  0  0  0  0  0  0  0  0
    5.6980   -0.2792   -1.6892 H   0  0  0  0  0  0  0  0  0  0  0  0
    6.1237   -0.0549    0.0622 H   0  0  0  0  0  0  0  0  0  0  0  0
    3.5108   -0.4892   -2.4545 H   0  0  0  0  0  0  0  0  0  0  0  0
    1.3201   -1.4647   -2.0416 H   0  0  0  0  0  0  0  0  0  0  0  0
   -0.4834   -2.2763   -1.5733 H   0  0  0  0  0  0  0  0  0  0  0  0
   -1.2889   -5.0286   -0.2815 H   0  0  0  0  0  0  0  0  0  0  0  0
   -3.5050   -5.9701    0.2922 H   0  0  0  0  0  0  0  0  0  0  0  0
   -5.1507   -2.0552    0.4564 H   0  0  0  0  0  0  0  0  0  0  0  0
   -4.7946   -0.1649    0.2763 H   0  0  0  0  0  0  0  0  0  0  0  0
   -1.6807    1.8807   -0.6003 H   0  0  0  0  0  0  0  0  0  0  0  0
   -1.6671    4.2697   -0.7426 H   0  0  0  0  0  0  0  0  0  0  0  0
   -5.7776    4.2851    0.2567 H   0  0  0  0  0  0  0  0  0  0  0  0
    2.1328   -1.3470    2.1395 H   0  0  0  0  0  0  0  0  0  0  0  0
    4.2962   -0.3929    1.7421 H   0  0  0  0  0  0  0  0  0  0  0  0
  1  2  2  3
  2  3  1  0
  2  4  1  0
  4  5  1  0
  5  6  1  0
  6  7  2  0
  7  8  1  0
  8  9  2  0
  9 10  1  0
 10 11  2  0
 10 12  1  0
 12 13  1  0
 13 14  2  0
 14 15  1  0
 15 16  2  0
 16 17  1  0
 16 18  1  0
 18 19  2  0
 19 20  1  0
 20 21  2  0
 20 22  1  0
 22 23  1  0
 23 24  2  0
 24 25  1  0
 25 26  2  0
 26 27  1  0
 26 28  1  0
 28 29  2  0
  9 30  1  0
 30 31  2  0
 31  6  1  0
 19 13  1  0
 29 23  1  0
  1 32  1  0
  3 33  1  0
  3 34  1  0
  4 35  1  0
  5 36  1  0
  5 37  1  0
  7 38  1  0
  8 39  1  0
 12 40  1  0
 14 41  1  0
 15 42  1  0
 18 43  1  0
 22 44  1  0
 24 45  1  0
 25 46  1  0
 28 47  1  0
 30 48  1  0
 31 49  1  0
M  END
$$$$
