@<TRIPOS>MOLECULE
*****
 49 51 0 0 0
SMALL
GASTEIGER

@<TRIPOS>ATOM
      1 N           3.8013    2.1513    0.7962 N.pl3   1  UNL1       -0.1298
      2 C           4.8138    2.5241    0.0699 C.cat   1  UNL1        0.3765
      3 N           5.4324    3.7886    0.2505 N.pl3   1  UNL1       -0.2893
      4 N           5.2660    1.6132   -0.9026 N.pl3   1  UNL1       -0.2721
      5 C           5.3764    0.2017   -0.7282 C.3     1  UNL1        0.0899
      6 C           4.0559   -0.3681   -0.3962 C.ar    1  UNL1       -0.0140
      7 C           3.1921   -0.6854   -1.4297 C.ar    1  UNL1       -0.0549
      8 C           1.9505   -1.2383   -1.1956 C.ar    1  UNL1       -0.0493
      9 C           1.5264   -1.4948    0.0869 C.ar    1  UNL1        0.0370
     10 C           0.2329   -2.0744    0.3985 C.2     1  UNL1        0.2483
     11 O          -0.0565   -2.2672    1.6049 O.2     1  UNL1       -0.2699
     12 N          -0.7384   -2.4435   -0.5572 N.am    1  UNL1       -0.2808
     13 C          -1.9958   -3.0083   -0.2302 C.ar    1  UNL1        0.0459
     14 C          -2.1596   -4.3957   -0.1130 C.ar    1  UNL1       -0.0384
     15 C          -3.3994   -4.8998    0.2067 C.ar    1  UNL1       -0.0416
     16 C          -4.4685   -4.0579    0.4100 C.ar    1  UNL1        0.0418
     17 CL         -6.0398   -4.7180    0.8165 Cl      1  UNL1       -0.0835
     18 C          -4.2874   -2.6711    0.2887 C.ar    1  UNL1       -0.0295
     19 C          -3.0594   -2.1541   -0.0290 C.ar    1  UNL1        0.0596
     20 C          -2.8448   -0.7260   -0.1644 C.2     1  UNL1        0.2511
     21 O          -1.6859   -0.3048   -0.4701 O.2     1  UNL1       -0.2697
     22 N          -3.8423    0.2592    0.0202 N.am    1  UNL1       -0.2663
     23 C          -3.7121    1.6522   -0.0927 C.ar    1  UNL1        0.1252
     24 C          -2.6063    2.3814   -0.4042 C.ar    1  UNL1       -0.0201
     25 C          -2.5803    3.7577   -0.4906 C.ar    1  UNL1       -0.0387
     26 C          -3.7418    4.4435   -0.2479 C.ar    1  UNL1        0.0592
     27 CL         -3.8141    6.1922   -0.3321 Cl      1  UNL1       -0.0820
     28 C          -4.8734    3.7238    0.0693 C.ar    1  UNL1        0.0480
     29 N          -4.8449    2.3850    0.1403 N.ar    1  UNL1       -0.2387
     30 C           2.3953   -1.1746    1.1049 C.ar    1  UNL1       -0.0493
     31 C           3.6479   -0.6177    0.8804 C.ar    1  UNL1       -0.0549
     32 H           3.4359    2.7865    1.5220 H       1  UNL1        0.3062
     33 H           6.3668    3.8476    0.7013 H       1  UNL1        0.2546
     34 H           4.9756    4.6598   -0.0563 H       1  UNL1        0.2546
     35 H           5.5481    2.0193   -1.8361 H       1  UNL1        0.2582
     36 H           5.6980   -0.2792   -1.6892 H       1  UNL1        0.0706
     37 H           6.1237   -0.0549    0.0622 H       1  UNL1        0.0706
     38 H           3.5108   -0.4892   -2.4545 H       1  UNL1        0.0621
     39 H           1.3201   -1.4647   -2.0416 H       1  UNL1        0.0625
     40 H          -0.4834   -2.2763   -1.5733 H       1  UNL1        0.1552
     41 H          -1.2889   -5.0286   -0.2815 H       1  UNL1        0.0637
     42 H          -3.5050   -5.9701    0.2922 H       1  UNL1        0.0633
     43 H          -5.1507   -2.0552    0.4564 H       1  UNL1        0.0640
     44 H          -4.7946   -0.1649    0.2763 H       1  UNL1        0.1566
     45 H          -1.6807    1.8807   -0.6003 H       1  UNL1        0.0652
     46 H          -1.6671    4.2697   -0.7426 H       1  UNL1        0.0634
     47 H          -5.7776    4.2851    0.2567 H       1  UNL1        0.0845
     48 H           2.1328   -1.3470    2.1395 H       1  UNL1        0.0625
     49 H           4.2962   -0.3929    1.7421 H       1  UNL1        0.0621
@<TRIPOS>BOND
     1     1     2    2
     2     2     3    1
     3     2     4    1
     4     4     5    1
     5     5     6    1
     6     6     7   ar
     7     7     8   ar
     8     8     9   ar
     9     9    10    1
    10    10    11    2
    11    10    12   am
    12    12    13    1
    13    13    14   ar
    14    14    15   ar
    15    15    16   ar
    16    16    17    1
    17    16    18   ar
    18    18    19   ar
    19    19    20    1
    20    20    21    2
    21    20    22   am
    22    22    23    1
    23    23    24   ar
    24    24    25   ar
    25    25    26   ar
    26    26    27    1
    27    26    28   ar
    28    28    29   ar
    29     9    30   ar
    30    30    31   ar
    31    31     6   ar
    32    19    13   ar
    33    29    23   ar
    34     1    32    1
    35     3    33    1
    36     3    34    1
    37     4    35    1
    38     5    36    1
    39     5    37    1
    40     7    38    1
    41     8    39    1
    42    12    40    1
    43    14    41    1
    44    15    42    1
    45    18    43    1
    46    22    44    1
    47    24    45    1
    48    25    46    1
    49    28    47    1
    50    30    48    1
    51    31    49    1
