
     RDKit          3D

 39 40  0  0  0  0  0  0  0  0999 V2000
   -1.7095    3.5961    0.6096 C   0  0  0  0  0  0  0  0  0  0  0  0
   -2.3403    2.5293   -0.0728 O   0  0  0  0  0  0  0  0  0  0  0  0
   -1.8239    1.2609    0.0459 C   0  0  0  0  0  0  0  0  0  0  0  0
   -0.7141    1.0120    0.8105 C   0  0  0  0  0  0  0  0  0  0  0  0
   -0.1629   -0.2398    0.9585 C   0  0  0  0  0  0  0  0  0  0  0  0
    1.0126   -0.4262    1.7963 C   0  0  0  0  0  0  0  0  0  0  0  0
    2.3015   -0.0959    1.2035 C   0  0  0  0  0  0  0  0  0  0  0  0
    2.8894    1.1203    1.5595 C   0  0  0  0  0  0  0  0  0  0  0  0
    4.0727    1.4367    1.0089 N   0  0  0  0  0  0  0  0  0  0  0  0
    4.7143    0.6299    0.1289 C   0  0  0  0  0  0  0  0  0  0  0  0
    5.9690    1.0358   -0.4147 N   0  0  0  0  0  0  0  0  0  0  0  0
    4.1240   -0.5303   -0.1918 N   0  0  0  0  0  0  0  0  0  0  0  0
    2.9325   -0.9239    0.3182 C   0  0  0  0  0  0  0  0  0  0  0  0
    2.3161   -2.1491   -0.0163 N   0  0  0  0  0  0  0  0  0  0  0  0
   -0.7705   -1.2783    0.2986 C   0  0  0  0  0  0  0  0  0  0  0  0
   -1.9104   -1.0596   -0.4946 C   0  0  0  0  0  0  0  0  0  0  0  0
   -2.5417   -2.0911   -1.1710 O   0  0  0  0  0  0  0  0  0  0  0  0
   -2.1322   -3.4255   -1.1442 C   0  0  0  0  0  0  0  0  0  0  0  0
   -2.4254    0.2135   -0.6118 C   0  0  0  0  0  0  0  0  0  0  0  0
   -3.5578    0.4331   -1.3996 O   0  0  0  0  0  0  0  0  0  0  0  0
   -4.8747    0.3686   -0.9116 C   0  0  0  0  0  0  0  0  0  0  0  0
   -2.1186    4.5796    0.3305 H   0  0  0  0  0  0  0  0  0  0  0  0
   -1.7410    3.4173    1.7113 H   0  0  0  0  0  0  0  0  0  0  0  0
   -0.6132    3.6021    0.3493 H   0  0  0  0  0  0  0  0  0  0  0  0
   -0.2482    1.8337    1.3220 H   0  0  0  0  0  0  0  0  0  0  0  0
    1.1122   -1.5008    2.1569 H   0  0  0  0  0  0  0  0  0  0  0  0
    0.9343    0.1376    2.7764 H   0  0  0  0  0  0  0  0  0  0  0  0
    2.4280    1.8057    2.2547 H   0  0  0  0  0  0  0  0  0  0  0  0
    6.7131    0.3567   -0.6831 H   0  0  0  0  0  0  0  0  0  0  0  0
    6.2080    2.0465   -0.5730 H   0  0  0  0  0  0  0  0  0  0  0  0
    2.4648   -2.9563    0.6247 H   0  0  0  0  0  0  0  0  0  0  0  0
    1.7219   -2.3133   -0.8554 H   0  0  0  0  0  0  0  0  0  0  0  0
   -0.4047   -2.2877    0.3689 H   0  0  0  0  0  0  0  0  0  0  0  0
   -2.8959   -4.0197   -1.7051 H   0  0  0  0  0  0  0  0  0  0  0  0
   -1.1506   -3.4987   -1.6545 H   0  0  0  0  0  0  0  0  0  0  0  0
   -2.0760   -3.7592   -0.0841 H   0  0  0  0  0  0  0  0  0  0  0  0
   -5.3978    1.2798   -1.2973 H   0  0  0  0  0  0  0  0  0  0  0  0
   -5.4318   -0.5139   -1.2650 H   0  0  0  0  0  0  0  0  0  0  0  0
   -4.8731    0.3740    0.2115 H   0  0  0  0  0  0  0  0  0  0  0  0
  1  2  1  0
  2  3  1  0
  3  4  2  0
  4  5  1  0
  5  6  1  0
  6  7  1  0
  7  8  2  0
  8  9  1  0
  9 10  2  0
 10 11  1  0
 10 12  1  0
 12 13  2  0
 13 14  1  0
  5 15  2  0
 15 16  1  0
 16 17  1  0
 17 18  1  0
 16 19  2  0
 19 20  1  0
 20 21  1  0
 19  3  1  0
 13  7  1  0
  1 22  1  0
  1 23  1  0
  1 24  1  0
  4 25  1  0
  6 26  1  0
  6 27  1  0
  8 28  1  0
 11 29  1  0
 11 30  1  0
 14 31  1  0
 14 32  1  0
 15 33  1  0
 18 34  1  0
 18 35  1  0
 18 36  1  0
 21 37  1  0
 21 38  1  0
 21 39  1  0
M  END
$$$$
