@<TRIPOS>MOLECULE
*****
 39 40 0 0 0
SMALL
GASTEIGER

@<TRIPOS>ATOM
      1 C          -1.7095    3.5961    0.6096 C.3     1  UNL1        0.0790
      2 O          -2.3403    2.5293   -0.0728 O.3     1  UNL1       -0.4913
      3 C          -1.8239    1.2609    0.0459 C.ar    1  UNL1        0.1654
      4 C          -0.7141    1.0120    0.8105 C.ar    1  UNL1       -0.0126
      5 C          -0.1629   -0.2398    0.9585 C.ar    1  UNL1       -0.0358
      6 C           1.0126   -0.4262    1.7963 C.3     1  UNL1        0.0025
      7 C           2.3015   -0.0959    1.2035 C.ar    1  UNL1        0.0146
      8 C           2.8894    1.1203    1.5595 C.ar    1  UNL1        0.0379
      9 N           4.0727    1.4367    1.0089 N.ar    1  UNL1       -0.2227
     10 C           4.7143    0.6299    0.1289 C.ar    1  UNL1        0.2142
     11 N           5.9690    1.0358   -0.4147 N.pl3   1  UNL1       -0.3274
     12 N           4.1240   -0.5303   -0.1918 N.ar    1  UNL1       -0.1999
     13 C           2.9325   -0.9239    0.3182 C.ar    1  UNL1        0.1247
     14 N           2.3161   -2.1491   -0.0163 N.pl3   1  UNL1       -0.3428
     15 C          -0.7705   -1.2783    0.2986 C.ar    1  UNL1       -0.0126
     16 C          -1.9104   -1.0596   -0.4946 C.ar    1  UNL1        0.1654
     17 O          -2.5417   -2.0911   -1.1710 O.3     1  UNL1       -0.4913
     18 C          -2.1322   -3.4255   -1.1442 C.3     1  UNL1        0.0790
     19 C          -2.4254    0.2135   -0.6118 C.ar    1  UNL1        0.2035
     20 O          -3.5578    0.4331   -1.3996 O.3     1  UNL1       -0.4885
     21 C          -4.8747    0.3686   -0.9116 C.3     1  UNL1        0.0791
     22 H          -2.1186    4.5796    0.3305 H       1  UNL1        0.0660
     23 H          -1.7410    3.4173    1.7113 H       1  UNL1        0.0660
     24 H          -0.6132    3.6021    0.3493 H       1  UNL1        0.0660
     25 H          -0.2482    1.8337    1.3220 H       1  UNL1        0.0658
     26 H           1.1122   -1.5008    2.1569 H       1  UNL1        0.0363
     27 H           0.9343    0.1376    2.7764 H       1  UNL1        0.0363
     28 H           2.4280    1.8057    2.2547 H       1  UNL1        0.0834
     29 H           6.7131    0.3567   -0.6831 H       1  UNL1        0.1452
     30 H           6.2080    2.0465   -0.5730 H       1  UNL1        0.1452
     31 H           2.4648   -2.9563    0.6247 H       1  UNL1        0.1437
     32 H           1.7219   -2.3133   -0.8554 H       1  UNL1        0.1437
     33 H          -0.4047   -2.2877    0.3689 H       1  UNL1        0.0658
     34 H          -2.8959   -4.0197   -1.7051 H       1  UNL1        0.0660
     35 H          -1.1506   -3.4987   -1.6545 H       1  UNL1        0.0660
     36 H          -2.0760   -3.7592   -0.0841 H       1  UNL1        0.0660
     37 H          -5.3978    1.2798   -1.2973 H       1  UNL1        0.0660
     38 H          -5.4318   -0.5139   -1.2650 H       1  UNL1        0.0660
     39 H          -4.8731    0.3740    0.2115 H       1  UNL1        0.0660
@<TRIPOS>BOND
     1     1     2    1
     2     2     3    1
     3     3     4   ar
     4     4     5   ar
     5     5     6    1
     6     6     7    1
     7     7     8   ar
     8     8     9   ar
     9     9    10   ar
    10    10    11    1
    11    10    12   ar
    12    12    13   ar
    13    13    14    1
    14     5    15   ar
    15    15    16   ar
    16    16    17    1
    17    17    18    1
    18    16    19   ar
    19    19    20    1
    20    20    21    1
    21    19     3   ar
    22    13     7   ar
    23     1    22    1
    24     1    23    1
    25     1    24    1
    26     4    25    1
    27     6    26    1
    28     6    27    1
    29     8    28    1
    30    11    29    1
    31    11    30    1
    32    14    31    1
    33    14    32    1
    34    15    33    1
    35    18    34    1
    36    18    35    1
    37    18    36    1
    38    21    37    1
    39    21    38    1
    40    21    39    1
