@<TRIPOS>MOLECULE
*****
 78 81 0 0 0
SMALL
GASTEIGER

@<TRIPOS>ATOM
      1 C           9.3695    3.2044   -2.8867 C.3     1  UNL1       -0.0397
      2 C           8.6595    2.1483   -2.1095 C.ar    1  UNL1       -0.0503
      3 C           7.5533    1.5165   -2.6360 C.ar    1  UNL1       -0.0570
      4 C           6.8940    0.5377   -1.9184 C.ar    1  UNL1       -0.0351
      5 C           7.3095    0.1561   -0.6609 C.ar    1  UNL1        0.1055
      6 S           6.4688   -1.0976    0.2625 S.O2    1  UNL1        0.0616
      7 O           7.5033   -1.7478    1.1375 O.2     1  UNL1       -0.1528
      8 O           5.9725   -2.0947   -0.7107 O.2     1  UNL1       -0.1528
      9 N           5.2613   -0.4163    1.2001 N.3     1  UNL1       -0.1628
     10 C           5.6240    0.5126    2.1786 C.3     1  UNL1        0.0369
     11 C           4.4573    1.4959    2.3698 C.3     1  UNL1        0.0261
     12 N           3.3785    0.6733    2.8980 N.am    1  UNL1       -0.3127
     13 C           3.4576   -0.7401    2.6552 C.2     1  UNL1        0.2324
     14 O           3.0549   -1.5470    3.5160 O.2     1  UNL1       -0.2740
     15 C           4.0430   -1.1350    1.3322 C.3     1  UNL1        0.1160
     16 C           3.0142   -0.7637    0.2881 C.3     1  UNL1        0.0496
     17 C           1.7993   -1.5688    0.5045 C.2     1  UNL1        0.2155
     18 O           1.7977   -2.4280    1.4235 O.2     1  UNL1       -0.2757
     19 N           0.6219   -1.3864   -0.3156 N.am    1  UNL1       -0.3084
     20 C          -0.5013   -2.2090   -0.0320 C.3     1  UNL1        0.0486
     21 C          -0.9047   -3.0699   -1.2340 C.3     1  UNL1       -0.0300
     22 C          -1.8632   -4.1035   -0.7480 C.3     1  UNL1       -0.0471
     23 C          -2.7663   -3.6823    0.3597 C.3     1  UNL1       -0.0273
     24 C          -2.8636   -2.2098    0.5421 C.ar    1  UNL1       -0.0421
     25 C          -4.0639   -1.6655    0.8933 C.ar    1  UNL1       -0.0538
     26 C          -4.1588   -0.2949    1.0636 C.ar    1  UNL1       -0.0333
     27 C          -5.4598    0.3190    1.4486 C.3     1  UNL1        0.0213
     28 N          -6.2476    0.6744    0.2968 N.3     1  UNL1       -0.3115
     29 C          -7.4846    1.2666    0.7185 C.3     1  UNL1        0.0011
     30 C          -8.3570    1.6570   -0.4578 C.3     1  UNL1       -0.0252
     31 C          -7.6041    2.6663   -1.3173 C.3     1  UNL1       -0.0589
     32 C          -9.6247    2.3051    0.0622 C.3     1  UNL1       -0.0589
     33 C          -8.7083    0.4699   -1.2998 C.3     1  UNL1       -0.0589
     34 C          -3.0218    0.4855    0.8704 C.ar    1  UNL1       -0.0570
     35 C          -1.8081   -0.1060    0.5110 C.ar    1  UNL1       -0.0562
     36 C          -1.7177   -1.4676    0.3427 C.ar    1  UNL1       -0.0240
     37 C           8.4141    0.7864   -0.1342 C.ar    1  UNL1       -0.0351
     38 C           9.0709    1.7628   -0.8512 C.ar    1  UNL1       -0.0570
     39 H           8.6777    4.0561   -3.0446 H       1  UNL1        0.0278
     40 H           9.7535    2.8487   -3.8487 H       1  UNL1        0.0278
     41 H          10.1839    3.6137   -2.2204 H       1  UNL1        0.0278
     42 H           7.2205    1.8200   -3.6398 H       1  UNL1        0.0621
     43 H           6.0201    0.0527   -2.3592 H       1  UNL1        0.0637
     44 H           5.7353   -0.0133    3.1661 H       1  UNL1        0.0459
     45 H           6.5438    1.0221    1.8986 H       1  UNL1        0.0459
     46 H           4.7398    2.3179    3.0457 H       1  UNL1        0.0475
     47 H           4.2407    1.8990    1.3602 H       1  UNL1        0.0475
     48 H           2.6017    1.0991    3.4226 H       1  UNL1        0.1488
     49 H           4.1394   -2.2327    1.3245 H       1  UNL1        0.0580
     50 H           2.8067    0.3265    0.2631 H       1  UNL1        0.0379
     51 H           3.4441   -1.1115   -0.6938 H       1  UNL1        0.0379
     52 H           0.6863   -0.6621   -1.0557 H       1  UNL1        0.1493
     53 H          -0.2803   -2.9082    0.7981 H       1  UNL1        0.0548
     54 H          -1.3336   -2.3699   -1.9766 H       1  UNL1        0.0286
     55 H          -0.0245   -3.5614   -1.6892 H       1  UNL1        0.0286
     56 H          -1.2497   -4.9674   -0.3630 H       1  UNL1        0.0269
     57 H          -2.4183   -4.4906   -1.6358 H       1  UNL1        0.0269
     58 H          -3.7828   -4.1033    0.1590 H       1  UNL1        0.0313
     59 H          -2.4589   -4.1201    1.3542 H       1  UNL1        0.0313
     60 H          -4.9245   -2.3067    1.0341 H       1  UNL1        0.0623
     61 H          -5.2402    1.2636    2.0037 H       1  UNL1        0.0473
     62 H          -6.0063   -0.3442    2.1286 H       1  UNL1        0.0473
     63 H          -6.3699   -0.1373   -0.3384 H       1  UNL1        0.1223
     64 H          -8.0929    0.5707    1.3495 H       1  UNL1        0.0429
     65 H          -7.2568    2.1661    1.3196 H       1  UNL1        0.0429
     66 H          -6.5369    2.4154   -1.3659 H       1  UNL1        0.0235
     67 H          -8.0234    2.5563   -2.3427 H       1  UNL1        0.0235
     68 H          -7.7318    3.6934   -0.9319 H       1  UNL1        0.0235
     69 H          -9.7105    2.1024    1.1483 H       1  UNL1        0.0235
     70 H          -9.5620    3.4187   -0.1100 H       1  UNL1        0.0235
     71 H         -10.5284    1.8785   -0.4462 H       1  UNL1        0.0235
     72 H          -9.7892    0.5035   -1.5422 H       1  UNL1        0.0235
     73 H          -8.5470   -0.4972   -0.7499 H       1  UNL1        0.0235
     74 H          -8.1712    0.4860   -2.2730 H       1  UNL1        0.0235
     75 H          -3.1118    1.5547    1.0072 H       1  UNL1        0.0621
     76 H          -0.9329    0.4854    0.3615 H       1  UNL1        0.0621
     77 H           8.7742    0.5095    0.8637 H       1  UNL1        0.0637
     78 H           9.9465    2.2617   -0.4335 H       1  UNL1        0.0621
@<TRIPOS>BOND
     1     1     2    1
     2     2     3   ar
     3     3     4   ar
     4     4     5   ar
     5     5     6    1
     6     6     7    2
     7     6     8    2
     8     6     9    1
     9     9    10    1
    10    10    11    1
    11    11    12    1
    12    12    13   am
    13    13    14    2
    14    13    15    1
    15    15    16    1
    16    16    17    1
    17    17    18    2
    18    17    19   am
    19    19    20    1
    20    20    21    1
    21    21    22    1
    22    22    23    1
    23    23    24    1
    24    24    25   ar
    25    25    26   ar
    26    26    27    1
    27    27    28    1
    28    28    29    1
    29    29    30    1
    30    30    31    1
    31    30    32    1
    32    30    33    1
    33    26    34   ar
    34    34    35   ar
    35    35    36   ar
    36     5    37   ar
    37    37    38   ar
    38    38     2   ar
    39    15     9    1
    40    36    20    1
    41    36    24   ar
    42     1    39    1
    43     1    40    1
    44     1    41    1
    45     3    42    1
    46     4    43    1
    47    10    44    1
    48    10    45    1
    49    11    46    1
    50    11    47    1
    51    12    48    1
    52    15    49    1
    53    16    50    1
    54    16    51    1
    55    19    52    1
    56    20    53    1
    57    21    54    1
    58    21    55    1
    59    22    56    1
    60    22    57    1
    61    23    58    1
    62    23    59    1
    63    25    60    1
    64    27    61    1
    65    27    62    1
    66    28    63    1
    67    29    64    1
    68    29    65    1
    69    31    66    1
    70    31    67    1
    71    31    68    1
    72    32    69    1
    73    32    70    1
    74    32    71    1
    75    33    72    1
    76    33    73    1
    77    33    74    1
    78    34    75    1
    79    35    76    1
    80    37    77    1
    81    38    78    1
