
     RDKit          3D

 78 81  0  0  0  0  0  0  0  0999 V2000
    9.3695    3.2044   -2.8867 C   0  0  0  0  0  0  0  0  0  0  0  0
    8.6595    2.1483   -2.1095 C   0  0  0  0  0  0  0  0  0  0  0  0
    7.5533    1.5165   -2.6360 C   0  0  0  0  0  0  0  0  0  0  0  0
    6.8940    0.5377   -1.9184 C   0  0  0  0  0  0  0  0  0  0  0  0
    7.3095    0.1561   -0.6609 C   0  0  0  0  0  0  0  0  0  0  0  0
    6.4688   -1.0976    0.2625 S   0  0  0  0  0  6  0  0  0  0  0  0
    7.5033   -1.7478    1.1375 O   0  0  0  0  0  0  0  0  0  0  0  0
    5.9725   -2.0947   -0.7107 O   0  0  0  0  0  0  0  0  0  0  0  0
    5.2613   -0.4163    1.2001 N   0  0  0  0  0  0  0  0  0  0  0  0
    5.6240    0.5126    2.1786 C   0  0  0  0  0  0  0  0  0  0  0  0
    4.4573    1.4959    2.3698 C   0  0  0  0  0  0  0  0  0  0  0  0
    3.3785    0.6733    2.8980 N   0  0  0  0  0  0  0  0  0  0  0  0
    3.4576   -0.7401    2.6552 C   0  0  0  0  0  0  0  0  0  0  0  0
    3.0549   -1.5470    3.5160 O   0  0  0  0  0  0  0  0  0  0  0  0
    4.0430   -1.1350    1.3322 C   0  0  1  0  0  0  0  0  0  0  0  0
    3.0142   -0.7637    0.2881 C   0  0  0  0  0  0  0  0  0  0  0  0
    1.7993   -1.5688    0.5045 C   0  0  0  0  0  0  0  0  0  0  0  0
    1.7977   -2.4280    1.4235 O   0  0  0  0  0  0  0  0  0  0  0  0
    0.6219   -1.3864   -0.3156 N   0  0  0  0  0  0  0  0  0  0  0  0
   -0.5013   -2.2090   -0.0320 C   0  0  2  0  0  0  0  0  0  0  0  0
   -0.9047   -3.0699   -1.2340 C   0  0  0  0  0  0  0  0  0  0  0  0
   -1.8632   -4.1035   -0.7480 C   0  0  0  0  0  0  0  0  0  0  0  0
   -2.7663   -3.6823    0.3597 C   0  0  0  0  0  0  0  0  0  0  0  0
   -2.8636   -2.2098    0.5421 C   0  0  0  0  0  0  0  0  0  0  0  0
   -4.0639   -1.6655    0.8933 C   0  0  0  0  0  0  0  0  0  0  0  0
   -4.1588   -0.2949    1.0636 C   0  0  0  0  0  0  0  0  0  0  0  0
   -5.4598    0.3190    1.4486 C   0  0  0  0  0  0  0  0  0  0  0  0
   -6.2476    0.6744    0.2968 N   0  0  0  0  0  0  0  0  0  0  0  0
   -7.4846    1.2666    0.7185 C   0  0  0  0  0  0  0  0  0  0  0  0
   -8.3570    1.6570   -0.4578 C   0  0  0  0  0  0  0  0  0  0  0  0
   -7.6041    2.6663   -1.3173 C   0  0  0  0  0  0  0  0  0  0  0  0
   -9.6247    2.3051    0.0622 C   0  0  0  0  0  0  0  0  0  0  0  0
   -8.7083    0.4699   -1.2998 C   0  0  0  0  0  0  0  0  0  0  0  0
   -3.0218    0.4855    0.8704 C   0  0  0  0  0  0  0  0  0  0  0  0
   -1.8081   -0.1060    0.5110 C   0  0  0  0  0  0  0  0  0  0  0  0
   -1.7177   -1.4676    0.3427 C   0  0  0  0  0  0  0  0  0  0  0  0
    8.4141    0.7864   -0.1342 C   0  0  0  0  0  0  0  0  0  0  0  0
    9.0709    1.7628   -0.8512 C   0  0  0  0  0  0  0  0  0  0  0  0
    8.6777    4.0561   -3.0446 H   0  0  0  0  0  0  0  0  0  0  0  0
    9.7535    2.8487   -3.8487 H   0  0  0  0  0  0  0  0  0  0  0  0
   10.1839    3.6137   -2.2204 H   0  0  0  0  0  0  0  0  0  0  0  0
    7.2205    1.8200   -3.6398 H   0  0  0  0  0  0  0  0  0  0  0  0
    6.0201    0.0527   -2.3592 H   0  0  0  0  0  0  0  0  0  0  0  0
    5.7353   -0.0133    3.1661 H   0  0  0  0  0  0  0  0  0  0  0  0
    6.5438    1.0221    1.8986 H   0  0  0  0  0  0  0  0  0  0  0  0
    4.7398    2.3179    3.0457 H   0  0  0  0  0  0  0  0  0  0  0  0
    4.2407    1.8990    1.3602 H   0  0  0  0  0  0  0  0  0  0  0  0
    2.6017    1.0991    3.4226 H   0  0  0  0  0  0  0  0  0  0  0  0
    4.1394   -2.2327    1.3245 H   0  0  0  0  0  0  0  0  0  0  0  0
    2.8067    0.3265    0.2631 H   0  0  0  0  0  0  0  0  0  0  0  0
    3.4441   -1.1115   -0.6938 H   0  0  0  0  0  0  0  0  0  0  0  0
    0.6863   -0.6621   -1.0557 H   0  0  0  0  0  0  0  0  0  0  0  0
   -0.2803   -2.9082    0.7981 H   0  0  0  0  0  0  0  0  0  0  0  0
   -1.3336   -2.3699   -1.9766 H   0  0  0  0  0  0  0  0  0  0  0  0
   -0.0245   -3.5614   -1.6892 H   0  0  0  0  0  0  0  0  0  0  0  0
   -1.2497   -4.9674   -0.3630 H   0  0  0  0  0  0  0  0  0  0  0  0
   -2.4183   -4.4906   -1.6358 H   0  0  0  0  0  0  0  0  0  0  0  0
   -3.7828   -4.1033    0.1590 H   0  0  0  0  0  0  0  0  0  0  0  0
   -2.4589   -4.1201    1.3542 H   0  0  0  0  0  0  0  0  0  0  0  0
   -4.9245   -2.3067    1.0341 H   0  0  0  0  0  0  0  0  0  0  0  0
   -5.2402    1.2636    2.0037 H   0  0  0  0  0  0  0  0  0  0  0  0
   -6.0063   -0.3442    2.1286 H   0  0  0  0  0  0  0  0  0  0  0  0
   -6.3699   -0.1373   -0.3384 H   0  0  0  0  0  0  0  0  0  0  0  0
   -8.0929    0.5707    1.3495 H   0  0  0  0  0  0  0  0  0  0  0  0
   -7.2568    2.1661    1.3196 H   0  0  0  0  0  0  0  0  0  0  0  0
   -6.5369    2.4154   -1.3659 H   0  0  0  0  0  0  0  0  0  0  0  0
   -8.0234    2.5563   -2.3427 H   0  0  0  0  0  0  0  0  0  0  0  0
   -7.7318    3.6934   -0.9319 H   0  0  0  0  0  0  0  0  0  0  0  0
   -9.7105    2.1024    1.1483 H   0  0  0  0  0  0  0  0  0  0  0  0
   -9.5620    3.4187   -0.1100 H   0  0  0  0  0  0  0  0  0  0  0  0
  -10.5284    1.8785   -0.4462 H   0  0  0  0  0  0  0  0  0  0  0  0
   -9.7892    0.5035   -1.5422 H   0  0  0  0  0  0  0  0  0  0  0  0
   -8.5470   -0.4972   -0.7499 H   0  0  0  0  0  0  0  0  0  0  0  0
   -8.1712    0.4860   -2.2730 H   0  0  0  0  0  0  0  0  0  0  0  0
   -3.1118    1.5547    1.0072 H   0  0  0  0  0  0  0  0  0  0  0  0
   -0.9329    0.4854    0.3615 H   0  0  0  0  0  0  0  0  0  0  0  0
    8.7742    0.5095    0.8637 H   0  0  0  0  0  0  0  0  0  0  0  0
    9.9465    2.2617   -0.4335 H   0  0  0  0  0  0  0  0  0  0  0  0
  1  2  1  0
  2  3  2  0
  3  4  1  0
  4  5  2  0
  5  6  1  0
  6  7  2  0
  6  8  2  0
  6  9  1  0
  9 10  1  0
 10 11  1  0
 11 12  1  0
 12 13  1  0
 13 14  2  0
 13 15  1  0
 15 16  1  0
 16 17  1  0
 17 18  2  0
 17 19  1  0
 19 20  1  0
 20 21  1  0
 21 22  1  0
 22 23  1  0
 23 24  1  0
 24 25  2  0
 25 26  1  0
 26 27  1  0
 27 28  1  0
 28 29  1  0
 29 30  1  0
 30 31  1  0
 30 32  1  0
 30 33  1  0
 26 34  2  0
 34 35  1  0
 35 36  2  0
  5 37  1  0
 37 38  2  0
 38  2  1  0
 15  9  1  0
 36 20  1  0
 36 24  1  0
  1 39  1  0
  1 40  1  0
  1 41  1  0
  3 42  1  0
  4 43  1  0
 10 44  1  0
 10 45  1  0
 11 46  1  0
 11 47  1  0
 12 48  1  0
 15 49  1  1
 16 50  1  0
 16 51  1  0
 19 52  1  0
 20 53  1  1
 21 54  1  0
 21 55  1  0
 22 56  1  0
 22 57  1  0
 23 58  1  0
 23 59  1  0
 25 60  1  0
 27 61  1  0
 27 62  1  0
 28 63  1  0
 29 64  1  0
 29 65  1  0
 31 66  1  0
 31 67  1  0
 31 68  1  0
 32 69  1  0
 32 70  1  0
 32 71  1  0
 33 72  1  0
 33 73  1  0
 33 74  1  0
 34 75  1  0
 35 76  1  0
 37 77  1  0
 38 78  1  0
M  END
$$$$
