@<TRIPOS>MOLECULE
*****
 64 66 0 0 0
SMALL
GASTEIGER

@<TRIPOS>ATOM
      1 C           8.8347   -0.2431    1.1779 C.2     1  UNL1       -0.0938
      2 C           7.6331   -0.6962    1.4828 C.2     1  UNL1       -0.0066
      3 C           6.6743   -1.0454    0.4281 C.2     1  UNL1        0.2406
      4 O           7.0351   -0.8932   -0.7612 O.2     1  UNL1       -0.2705
      5 N           5.3687   -1.5433    0.6643 N.am    1  UNL1       -0.2804
      6 C           4.4887   -1.8632   -0.4368 C.ar    1  UNL1        0.0550
      7 C           4.4879   -3.1294   -1.0054 C.ar    1  UNL1       -0.0387
      8 C           3.6255   -3.3965   -2.0644 C.ar    1  UNL1       -0.0599
      9 C           2.7753   -2.4211   -2.5540 C.ar    1  UNL1       -0.0599
     10 C           2.7658   -1.1612   -1.9999 C.ar    1  UNL1       -0.0387
     11 C           3.6270   -0.9243   -0.9548 C.ar    1  UNL1        0.0539
     12 N           3.6140    0.3517   -0.3576 N.pl3   1  UNL1       -0.2979
     13 C           2.7272    1.4059   -0.7978 C.ar    1  UNL1        0.1279
     14 C           1.3660    1.2832   -0.6097 C.ar    1  UNL1        0.0189
     15 C           0.5141    2.2817   -0.9963 C.ar    1  UNL1        0.1338
     16 N          -0.8853    2.2162   -0.8640 N.am    1  UNL1       -0.2374
     17 C          -1.6302    3.4722   -1.0863 C.3     1  UNL1        0.0460
     18 C          -1.7135    4.1466    0.2731 C.3     1  UNL1        0.0635
     19 O          -0.4277    4.4048    0.7593 O.3     1  UNL1       -0.3814
     20 C          -0.5008    5.0351    2.0178 C.3     1  UNL1        0.0365
     21 C          -1.6574    1.0895   -0.5383 C.2     1  UNL1        0.3119
     22 O          -1.1113   -0.0447   -0.4528 O.2     1  UNL1       -0.2519
     23 N          -3.0417    1.1384   -0.2887 N.am    1  UNL1       -0.2663
     24 C          -3.7948   -0.0503    0.0347 C.ar    1  UNL1        0.0788
     25 C          -3.8506   -0.5172    1.3309 C.ar    1  UNL1        0.1053
     26 CL         -2.9542    0.3542    2.5786 Cl      1  UNL1       -0.0778
     27 C          -4.5857   -1.6507    1.6748 C.ar    1  UNL1        0.1437
     28 O          -4.5682   -2.0283    3.0055 O.3     1  UNL1       -0.4935
     29 C          -5.2979   -3.1700    3.3920 C.3     1  UNL1        0.0789
     30 C          -5.2618   -2.2971    0.6735 C.ar    1  UNL1        0.0248
     31 C          -5.2485   -1.8821   -0.6460 C.ar    1  UNL1        0.1437
     32 O          -5.9328   -2.5342   -1.6621 O.3     1  UNL1       -0.4935
     33 C          -6.6812   -3.6813   -1.3129 C.3     1  UNL1        0.0789
     34 C          -4.4986   -0.7447   -0.9375 C.ar    1  UNL1        0.1053
     35 CL         -4.4737   -0.2136   -2.6039 Cl      1  UNL1       -0.0778
     36 N           1.0929    3.3779   -1.5665 N.ar    1  UNL1       -0.2202
     37 C           2.3962    3.5242   -1.7607 C.ar    1  UNL1        0.1201
     38 N           3.2019    2.5161   -1.3650 N.ar    1  UNL1       -0.2205
     39 H           9.1624   -0.1089    0.1679 H       1  UNL1        0.0536
     40 H           9.5152    0.0028    1.9798 H       1  UNL1        0.0536
     41 H           7.3171   -0.8218    2.4997 H       1  UNL1        0.0663
     42 H           5.0671   -1.6686    1.6529 H       1  UNL1        0.1552
     43 H           5.1714   -3.8614   -0.5894 H       1  UNL1        0.0637
     44 H           3.6788   -4.3993   -2.4563 H       1  UNL1        0.0618
     45 H           2.1325   -2.6853   -3.3731 H       1  UNL1        0.0618
     46 H           2.0950   -0.4054   -2.3911 H       1  UNL1        0.0637
     47 H           4.2418    0.6266    0.4423 H       1  UNL1        0.1536
     48 H           1.0299    0.3797   -0.1460 H       1  UNL1        0.0687
     49 H          -1.0423    4.1054   -1.7820 H       1  UNL1        0.0492
     50 H          -2.6026    3.3123   -1.5396 H       1  UNL1        0.0492
     51 H          -2.3278    5.0539    0.2733 H       1  UNL1        0.0575
     52 H          -2.1760    3.4579    1.0231 H       1  UNL1        0.0575
     53 H          -1.0301    4.3997    2.7580 H       1  UNL1        0.0523
     54 H           0.5392    5.1546    2.3611 H       1  UNL1        0.0523
     55 H          -1.0006    6.0318    1.9325 H       1  UNL1        0.0523
     56 H          -3.5565    2.0375   -0.3295 H       1  UNL1        0.1565
     57 H          -6.3759   -2.8742    3.3802 H       1  UNL1        0.0660
     58 H          -5.1769   -4.0075    2.6830 H       1  UNL1        0.0660
     59 H          -5.0574   -3.4772    4.4371 H       1  UNL1        0.0660
     60 H          -5.8250   -3.1680    0.9487 H       1  UNL1        0.0692
     61 H          -7.3385   -4.0108   -2.1558 H       1  UNL1        0.0660
     62 H          -7.3104   -3.4320   -0.4092 H       1  UNL1        0.0660
     63 H          -6.0326   -4.5301   -1.0207 H       1  UNL1        0.0660
     64 H           2.7900    4.4214   -2.2178 H       1  UNL1        0.1048
@<TRIPOS>BOND
     1     1     2    2
     2     2     3    1
     3     3     4    2
     4     3     5   am
     5     5     6    1
     6     6     7   ar
     7     7     8   ar
     8     8     9   ar
     9     9    10   ar
    10    10    11   ar
    11    11    12    1
    12    12    13    1
    13    13    14   ar
    14    14    15   ar
    15    15    16    1
    16    16    17    1
    17    17    18    1
    18    18    19    1
    19    19    20    1
    20    16    21   am
    21    21    22    2
    22    21    23   am
    23    23    24    1
    24    24    25   ar
    25    25    26    1
    26    25    27   ar
    27    27    28    1
    28    28    29    1
    29    27    30   ar
    30    30    31   ar
    31    31    32    1
    32    32    33    1
    33    31    34   ar
    34    34    35    1
    35    15    36   ar
    36    36    37   ar
    37    37    38   ar
    38    11     6   ar
    39    38    13   ar
    40    34    24   ar
    41     1    39    1
    42     1    40    1
    43     2    41    1
    44     5    42    1
    45     7    43    1
    46     8    44    1
    47     9    45    1
    48    10    46    1
    49    12    47    1
    50    14    48    1
    51    17    49    1
    52    17    50    1
    53    18    51    1
    54    18    52    1
    55    20    53    1
    56    20    54    1
    57    20    55    1
    58    23    56    1
    59    29    57    1
    60    29    58    1
    61    29    59    1
    62    30    60    1
    63    33    61    1
    64    33    62    1
    65    33    63    1
    66    37    64    1
