
     RDKit          3D

 45 47  0  0  0  0  0  0  0  0999 V2000
   -2.6262   -5.2392   -0.3834 C   0  0  0  0  0  0  0  0  0  0  0  0
   -3.6562   -4.2602   -0.4367 O   0  0  0  0  0  0  0  0  0  0  0  0
   -3.3304   -2.9330   -0.3752 C   0  0  0  0  0  0  0  0  0  0  0  0
   -4.3467   -2.0061   -0.4288 C   0  0  0  0  0  0  0  0  0  0  0  0
   -4.0826   -0.6542   -0.3722 C   0  0  0  0  0  0  0  0  0  0  0  0
   -2.7717   -0.1731   -0.2581 C   0  0  0  0  0  0  0  0  0  0  0  0
   -2.4812    1.2461   -0.2192 C   0  0  0  0  0  0  0  0  0  0  0  0
   -3.3696    2.2199   -0.2411 C   0  0  0  0  0  0  0  0  0  0  0  0
   -3.0367    3.6365   -0.2006 C   0  0  0  0  0  0  0  0  0  0  0  0
   -3.9876    4.4919   -0.2278 O   0  0  0  0  0  0  0  0  0  0  0  0
   -1.7225    4.1550   -0.1322 N   0  0  0  0  0  0  0  0  0  0  0  0
   -1.4869    5.5054   -0.0972 O   0  0  0  0  0  0  0  0  0  0  0  0
   -1.7541   -1.0872   -0.2025 C   0  0  0  0  0  0  0  0  0  0  0  0
   -0.3752   -0.6570   -0.0397 C   0  0  0  0  0  0  0  0  0  0  0  0
    0.0898    0.1407    0.9752 C   0  0  0  0  0  0  0  0  0  0  0  0
    1.4199    0.5123    1.0486 C   0  0  0  0  0  0  0  0  0  0  0  0
    2.3276    0.0909    0.0997 C   0  0  0  0  0  0  0  0  0  0  0  0
    3.7421    0.4449    0.1163 C   0  0  0  0  0  0  0  0  0  0  0  0
    4.1713    1.6728    0.6276 C   0  0  0  0  0  0  0  0  0  0  0  0
    5.5046    2.0264    0.6515 C   0  0  0  0  0  0  0  0  0  0  0  0
    6.4352    1.1391    0.1553 C   0  0  0  0  0  0  0  0  0  0  0  0
    6.0613   -0.0936   -0.3638 C   0  0  0  0  0  0  0  0  0  0  0  0
    4.7225   -0.3953   -0.3637 C   0  0  0  0  0  0  0  0  0  0  0  0
    1.8322   -0.7073   -0.9043 C   0  0  0  0  0  0  0  0  0  0  0  0
    0.5143   -1.0831   -0.9888 C   0  0  0  0  0  0  0  0  0  0  0  0
   -2.0476   -2.4609   -0.2627 C   0  0  0  0  0  0  0  0  0  0  0  0
   -1.8497   -5.0861   -1.1422 H   0  0  0  0  0  0  0  0  0  0  0  0
   -2.1614   -5.1271    0.6381 H   0  0  0  0  0  0  0  0  0  0  0  0
   -3.0429   -6.2672   -0.5037 H   0  0  0  0  0  0  0  0  0  0  0  0
   -5.3916   -2.3262   -0.5182 H   0  0  0  0  0  0  0  0  0  0  0  0
   -4.8929    0.0546   -0.4158 H   0  0  0  0  0  0  0  0  0  0  0  0
   -1.4441    1.5554   -0.1833 H   0  0  0  0  0  0  0  0  0  0  0  0
   -4.4115    1.9523   -0.2921 H   0  0  0  0  0  0  0  0  0  0  0  0
   -0.9278    3.4853   -0.1087 H   0  0  0  0  0  0  0  0  0  0  0  0
   -2.3059    5.9736    0.1612 H   0  0  0  0  0  0  0  0  0  0  0  0
   -0.6148    0.4800    1.7444 H   0  0  0  0  0  0  0  0  0  0  0  0
    1.7860    1.1487    1.8587 H   0  0  0  0  0  0  0  0  0  0  0  0
    3.4149    2.3345    1.0041 H   0  0  0  0  0  0  0  0  0  0  0  0
    5.8533    2.9738    1.0442 H   0  0  0  0  0  0  0  0  0  0  0  0
    7.4913    1.3651    0.1498 H   0  0  0  0  0  0  0  0  0  0  0  0
    6.7894   -0.7980   -0.7561 H   0  0  0  0  0  0  0  0  0  0  0  0
    4.4094   -1.3501   -0.7640 H   0  0  0  0  0  0  0  0  0  0  0  0
    2.5564   -1.0450   -1.6634 H   0  0  0  0  0  0  0  0  0  0  0  0
    0.2145   -1.7098   -1.8086 H   0  0  0  0  0  0  0  0  0  0  0  0
   -1.2182   -3.1455   -0.2167 H   0  0  0  0  0  0  0  0  0  0  0  0
  1  2  1  0
  2  3  1  0
  3  4  2  0
  4  5  1  0
  5  6  2  0
  6  7  1  0
  7  8  2  0
  8  9  1  0
  9 10  2  0
  9 11  1  0
 11 12  1  0
  6 13  1  0
 13 14  1  0
 14 15  2  0
 15 16  1  0
 16 17  2  0
 17 18  1  0
 18 19  2  0
 19 20  1  0
 20 21  2  0
 21 22  1  0
 22 23  2  0
 17 24  1  0
 24 25  2  0
 13 26  2  0
 26  3  1  0
 25 14  1  0
 23 18  1  0
  1 27  1  0
  1 28  1  0
  1 29  1  0
  4 30  1  0
  5 31  1  0
  7 32  1  0
  8 33  1  0
 11 34  1  0
 12 35  1  0
 15 36  1  0
 16 37  1  0
 19 38  1  0
 20 39  1  0
 21 40  1  0
 22 41  1  0
 23 42  1  0
 24 43  1  0
 25 44  1  0
 26 45  1  0
M  END
$$$$
