@<TRIPOS>MOLECULE
*****
 45 47 0 0 0
SMALL
GASTEIGER

@<TRIPOS>ATOM
      1 C          -2.6262   -5.2392   -0.3834 C.3     1  UNL1        0.0788
      2 O          -3.6562   -4.2602   -0.4367 O.3     1  UNL1       -0.4951
      3 C          -3.3304   -2.9330   -0.3752 C.ar    1  UNL1        0.1207
      4 C          -4.3467   -2.0061   -0.4288 C.ar    1  UNL1       -0.0194
      5 C          -4.0826   -0.6542   -0.3722 C.ar    1  UNL1       -0.0506
      6 C          -2.7717   -0.1731   -0.2581 C.ar    1  UNL1       -0.0169
      7 C          -2.4812    1.2461   -0.2192 C.2     1  UNL1       -0.0490
      8 C          -3.3696    2.2199   -0.2411 C.2     1  UNL1        0.0027
      9 C          -3.0367    3.6365   -0.2006 C.2     1  UNL1        0.2593
     10 O          -3.9876    4.4919   -0.2278 O.2     1  UNL1       -0.2687
     11 N          -1.7225    4.1550   -0.1322 N.am    1  UNL1       -0.1940
     12 O          -1.4869    5.5054   -0.0972 O.3     1  UNL1       -0.2949
     13 C          -1.7541   -1.0872   -0.2025 C.ar    1  UNL1       -0.0073
     14 C          -0.3752   -0.6570   -0.0397 C.ar    1  UNL1       -0.0172
     15 C           0.0898    0.1407    0.9752 C.ar    1  UNL1       -0.0534
     16 C           1.4199    0.5123    1.0486 C.ar    1  UNL1       -0.0535
     17 C           2.3276    0.0909    0.0997 C.ar    1  UNL1       -0.0178
     18 C           3.7421    0.4449    0.1163 C.ar    1  UNL1       -0.0179
     19 C           4.1713    1.6728    0.6276 C.ar    1  UNL1       -0.0540
     20 C           5.5046    2.0264    0.6515 C.ar    1  UNL1       -0.0612
     21 C           6.4352    1.1391    0.1553 C.ar    1  UNL1       -0.0617
     22 C           6.0613   -0.0936   -0.3638 C.ar    1  UNL1       -0.0612
     23 C           4.7225   -0.3953   -0.3637 C.ar    1  UNL1       -0.0540
     24 C           1.8322   -0.7073   -0.9043 C.ar    1  UNL1       -0.0535
     25 C           0.5143   -1.0831   -0.9888 C.ar    1  UNL1       -0.0534
     26 C          -2.0476   -2.4609   -0.2627 C.ar    1  UNL1       -0.0117
     27 H          -1.8497   -5.0861   -1.1422 H       1  UNL1        0.0660
     28 H          -2.1614   -5.1271    0.6381 H       1  UNL1        0.0660
     29 H          -3.0429   -6.2672   -0.5037 H       1  UNL1        0.0660
     30 H          -5.3916   -2.3262   -0.5182 H       1  UNL1        0.0654
     31 H          -4.8929    0.0546   -0.4158 H       1  UNL1        0.0625
     32 H          -1.4441    1.5554   -0.1833 H       1  UNL1        0.0625
     33 H          -4.4115    1.9523   -0.2921 H       1  UNL1        0.0670
     34 H          -0.9278    3.4853   -0.1087 H       1  UNL1        0.1825
     35 H          -2.3059    5.9736    0.1612 H       1  UNL1        0.2414
     36 H          -0.6148    0.4800    1.7444 H       1  UNL1        0.0624
     37 H           1.7860    1.1487    1.8587 H       1  UNL1        0.0624
     38 H           3.4149    2.3345    1.0041 H       1  UNL1        0.0624
     39 H           5.8533    2.9738    1.0442 H       1  UNL1        0.0618
     40 H           7.4913    1.3651    0.1498 H       1  UNL1        0.0618
     41 H           6.7894   -0.7980   -0.7561 H       1  UNL1        0.0618
     42 H           4.4094   -1.3501   -0.7640 H       1  UNL1        0.0624
     43 H           2.5564   -1.0450   -1.6634 H       1  UNL1        0.0624
     44 H           0.2145   -1.7098   -1.8086 H       1  UNL1        0.0624
     45 H          -1.2182   -3.1455   -0.2167 H       1  UNL1        0.0660
@<TRIPOS>BOND
     1     1     2    1
     2     2     3    1
     3     3     4   ar
     4     4     5   ar
     5     5     6   ar
     6     6     7    1
     7     7     8    2
     8     8     9    1
     9     9    10    2
    10     9    11   am
    11    11    12    1
    12     6    13   ar
    13    13    14    1
    14    14    15   ar
    15    15    16   ar
    16    16    17   ar
    17    17    18    1
    18    18    19   ar
    19    19    20   ar
    20    20    21   ar
    21    21    22   ar
    22    22    23   ar
    23    17    24   ar
    24    24    25   ar
    25    13    26   ar
    26    26     3   ar
    27    25    14   ar
    28    23    18   ar
    29     1    27    1
    30     1    28    1
    31     1    29    1
    32     4    30    1
    33     5    31    1
    34     7    32    1
    35     8    33    1
    36    11    34    1
    37    12    35    1
    38    15    36    1
    39    16    37    1
    40    19    38    1
    41    20    39    1
    42    21    40    1
    43    22    41    1
    44    23    42    1
    45    24    43    1
    46    25    44    1
    47    26    45    1
