
     RDKit          3D

 52 53  0  0  0  0  0  0  0  0999 V2000
    5.8007    2.7576    0.3153 C   0  0  0  0  0  0  0  0  0  0  0  0
    4.8329    1.7769   -0.2568 C   0  0  0  0  0  0  0  0  0  0  0  0
    4.3089    0.8764    0.7448 N   0  0  0  0  0  0  0  0  0  0  0  0
    5.3642   -0.0091    1.2184 C   0  0  0  0  0  0  0  0  0  0  0  0
    4.9549   -1.4175    0.8450 C   0  0  0  0  0  0  0  0  0  0  0  0
    3.4317   -1.2752    0.9067 C   0  0  0  0  0  0  0  0  0  0  0  0
    3.2777    0.0548    0.1966 C   0  0  0  0  0  0  0  0  0  0  0  0
    1.8900    0.5677    0.4719 C   0  0  0  0  0  0  0  0  0  0  0  0
    0.8897   -0.3177   -0.1160 N   0  0  0  0  0  0  0  0  0  0  0  0
   -0.4178    0.1112    0.1088 C   0  0  0  0  0  0  0  0  0  0  0  0
   -0.4069    1.1848    0.7817 O   0  0  0  0  0  0  0  0  0  0  0  0
   -1.6796   -0.4718   -0.2990 C   0  0  0  0  0  0  0  0  0  0  0  0
   -2.8375    0.1849    0.0729 C   0  0  0  0  0  0  0  0  0  0  0  0
   -4.0881   -0.2748   -0.2581 C   0  0  0  0  0  0  0  0  0  0  0  0
   -4.2543   -1.4252   -0.9846 C   0  0  0  0  0  0  0  0  0  0  0  0
   -5.5253   -1.9452   -1.3539 N   0  0  0  0  0  0  0  0  0  0  0  0
   -3.1245   -2.1146   -1.3780 C   0  0  0  0  0  0  0  0  0  0  0  0
   -1.8904   -1.6153   -1.0228 C   0  0  0  0  0  0  0  0  0  0  0  0
   -0.7727   -2.3223   -1.4277 O   0  0  0  0  0  0  0  0  0  0  0  0
   -0.8625   -3.5108   -2.1752 C   0  0  0  0  0  0  0  0  0  0  0  0
   -5.5564    0.5280    0.1981 S   0  0  0  0  0  0  0  0  0  0  0  0
   -6.4358   -0.3955    1.0034 O   0  0  0  0  0  0  0  0  0  0  0  0
   -6.3153    0.8596   -1.0510 O   0  0  0  0  0  0  0  0  0  0  0  0
   -5.2824    2.0069    1.1147 C   0  0  0  0  0  0  0  0  0  0  0  0
   -4.4821    3.0019    0.3103 C   0  0  0  0  0  0  0  0  0  0  0  0
    5.6834    3.7509   -0.2086 H   0  0  0  0  0  0  0  0  0  0  0  0
    6.8615    2.4942    0.1518 H   0  0  0  0  0  0  0  0  0  0  0  0
    5.6279    2.9534    1.3813 H   0  0  0  0  0  0  0  0  0  0  0  0
    3.9828    2.3289   -0.6994 H   0  0  0  0  0  0  0  0  0  0  0  0
    5.3275    1.2543   -1.0914 H   0  0  0  0  0  0  0  0  0  0  0  0
    6.3319    0.1747    0.7227 H   0  0  0  0  0  0  0  0  0  0  0  0
    5.4081    0.1263    2.3108 H   0  0  0  0  0  0  0  0  0  0  0  0
    5.3333   -2.1839    1.5241 H   0  0  0  0  0  0  0  0  0  0  0  0
    5.2103   -1.5491   -0.2235 H   0  0  0  0  0  0  0  0  0  0  0  0
    3.0838   -1.1741    1.9483 H   0  0  0  0  0  0  0  0  0  0  0  0
    2.9313   -2.1039    0.3996 H   0  0  0  0  0  0  0  0  0  0  0  0
    3.4377   -0.1003   -0.9115 H   0  0  0  0  0  0  0  0  0  0  0  0
    1.7956    0.6603    1.5602 H   0  0  0  0  0  0  0  0  0  0  0  0
    1.7671    1.5496   -0.0574 H   0  0  0  0  0  0  0  0  0  0  0  0
    1.0141   -1.1952   -0.6612 H   0  0  0  0  0  0  0  0  0  0  0  0
   -2.7816    1.0912    0.6451 H   0  0  0  0  0  0  0  0  0  0  0  0
   -5.8716   -1.8585   -2.3370 H   0  0  0  0  0  0  0  0  0  0  0  0
   -6.1958   -2.4331   -0.7245 H   0  0  0  0  0  0  0  0  0  0  0  0
   -3.2020   -3.0273   -1.9526 H   0  0  0  0  0  0  0  0  0  0  0  0
   -1.5725   -4.2281   -1.7102 H   0  0  0  0  0  0  0  0  0  0  0  0
    0.1270   -4.0094   -2.1194 H   0  0  0  0  0  0  0  0  0  0  0  0
   -1.2021   -3.3544   -3.2164 H   0  0  0  0  0  0  0  0  0  0  0  0
   -4.7826    1.7975    2.0960 H   0  0  0  0  0  0  0  0  0  0  0  0
   -6.2769    2.4578    1.3182 H   0  0  0  0  0  0  0  0  0  0  0  0
   -5.0968    3.9110    0.1219 H   0  0  0  0  0  0  0  0  0  0  0  0
   -3.5649    3.3427    0.8618 H   0  0  0  0  0  0  0  0  0  0  0  0
   -4.1954    2.5088   -0.6601 H   0  0  0  0  0  0  0  0  0  0  0  0
  1  2  1  0
  2  3  1  0
  3  4  1  0
  4  5  1  0
  5  6  1  0
  6  7  1  0
  7  8  1  0
  8  9  1  0
  9 10  1  0
 10 11  2  0
 10 12  1  0
 12 13  2  0
 13 14  1  0
 14 15  2  0
 15 16  1  0
 15 17  1  0
 17 18  2  0
 18 19  1  0
 19 20  1  0
 14 21  1  0
 21 22  2  0
 21 23  2  0
 21 24  1  0
 24 25  1  0
  7  3  1  0
 18 12  1  0
  1 26  1  0
  1 27  1  0
  1 28  1  0
  2 29  1  0
  2 30  1  0
  4 31  1  0
  4 32  1  0
  5 33  1  0
  5 34  1  0
  6 35  1  0
  6 36  1  0
  7 37  1  0
  8 38  1  0
  8 39  1  0
  9 40  1  0
 13 41  1  0
 16 42  1  0
 16 43  1  0
 17 44  1  0
 20 45  1  0
 20 46  1  0
 20 47  1  0
 24 48  1  0
 24 49  1  0
 25 50  1  0
 25 51  1  0
 25 52  1  0
M  END
$$$$
