@<TRIPOS>MOLECULE
*****
 52 53 0 0 0
SMALL
GASTEIGER

@<TRIPOS>ATOM
      1 C           5.8007    2.7576    0.3153 C.3     1  UNL1       -0.0523
      2 C           4.8329    1.7769   -0.2568 C.3     1  UNL1       -0.0036
      3 N           4.3089    0.8764    0.7448 N.3     1  UNL1       -0.2982
      4 C           5.3642   -0.0091    1.2184 C.3     1  UNL1       -0.0007
      5 C           4.9549   -1.4175    0.8450 C.3     1  UNL1       -0.0387
      6 C           3.4317   -1.2752    0.9067 C.3     1  UNL1       -0.0347
      7 C           3.2777    0.0548    0.1966 C.3     1  UNL1        0.0260
      8 C           1.8900    0.5677    0.4719 C.3     1  UNL1        0.0275
      9 N           0.8897   -0.3177   -0.1160 N.am    1  UNL1       -0.3098
     10 C          -0.4178    0.1112    0.1088 C.2     1  UNL1        0.2477
     11 O          -0.4069    1.1848    0.7817 O.2     1  UNL1       -0.2701
     12 C          -1.6796   -0.4718   -0.2990 C.ar    1  UNL1        0.0801
     13 C          -2.8375    0.1849    0.0729 C.ar    1  UNL1       -0.0194
     14 C          -4.0881   -0.2748   -0.2581 C.ar    1  UNL1        0.1096
     15 C          -4.2543   -1.4252   -0.9846 C.ar    1  UNL1        0.0532
     16 N          -5.5253   -1.9452   -1.3539 N.pl3   1  UNL1       -0.3564
     17 C          -3.1245   -2.1146   -1.3780 C.ar    1  UNL1        0.0033
     18 C          -1.8904   -1.6153   -1.0228 C.ar    1  UNL1        0.1340
     19 O          -0.7727   -2.3223   -1.4277 O.3     1  UNL1       -0.4943
     20 C          -0.8625   -3.5108   -2.1752 C.3     1  UNL1        0.0788
     21 S          -5.5564    0.5280    0.1981 S.O2    1  UNL1       -0.0016
     22 O          -6.4358   -0.3955    1.0034 O.2     1  UNL1       -0.1693
     23 O          -6.3153    0.8596   -1.0510 O.2     1  UNL1       -0.1693
     24 C          -5.2824    2.0069    1.1147 C.3     1  UNL1        0.0681
     25 C          -4.4821    3.0019    0.3103 C.3     1  UNL1       -0.0453
     26 H           5.6834    3.7509   -0.2086 H       1  UNL1        0.0242
     27 H           6.8615    2.4942    0.1518 H       1  UNL1        0.0242
     28 H           5.6279    2.9534    1.3813 H       1  UNL1        0.0242
     29 H           3.9828    2.3289   -0.6994 H       1  UNL1        0.0424
     30 H           5.3275    1.2543   -1.0914 H       1  UNL1        0.0424
     31 H           6.3319    0.1747    0.7227 H       1  UNL1        0.0427
     32 H           5.4081    0.1263    2.3108 H       1  UNL1        0.0427
     33 H           5.3333   -2.1839    1.5241 H       1  UNL1        0.0278
     34 H           5.2103   -1.5491   -0.2235 H       1  UNL1        0.0278
     35 H           3.0838   -1.1741    1.9483 H       1  UNL1        0.0281
     36 H           2.9313   -2.1039    0.3996 H       1  UNL1        0.0281
     37 H           3.4377   -0.1003   -0.9115 H       1  UNL1        0.0478
     38 H           1.7956    0.6603    1.5602 H       1  UNL1        0.0477
     39 H           1.7671    1.5496   -0.0574 H       1  UNL1        0.0477
     40 H           1.0141   -1.1952   -0.6612 H       1  UNL1        0.1491
     41 H          -2.7816    1.0912    0.6451 H       1  UNL1        0.0646
     42 H          -5.8716   -1.8585   -2.3370 H       1  UNL1        0.1424
     43 H          -6.1958   -2.4331   -0.7245 H       1  UNL1        0.1424
     44 H          -3.2020   -3.0273   -1.9526 H       1  UNL1        0.0673
     45 H          -1.5725   -4.2281   -1.7102 H       1  UNL1        0.0660
     46 H           0.1270   -4.0094   -2.1194 H       1  UNL1        0.0660
     47 H          -1.2021   -3.3544   -3.2164 H       1  UNL1        0.0660
     48 H          -4.7826    1.7975    2.0960 H       1  UNL1        0.0501
     49 H          -6.2769    2.4578    1.3182 H       1  UNL1        0.0501
     50 H          -5.0968    3.9110    0.1219 H       1  UNL1        0.0245
     51 H          -3.5649    3.3427    0.8618 H       1  UNL1        0.0245
     52 H          -4.1954    2.5088   -0.6601 H       1  UNL1        0.0245
@<TRIPOS>BOND
     1     1     2    1
     2     2     3    1
     3     3     4    1
     4     4     5    1
     5     5     6    1
     6     6     7    1
     7     7     8    1
     8     8     9    1
     9     9    10   am
    10    10    11    2
    11    10    12    1
    12    12    13   ar
    13    13    14   ar
    14    14    15   ar
    15    15    16    1
    16    15    17   ar
    17    17    18   ar
    18    18    19    1
    19    19    20    1
    20    14    21    1
    21    21    22    2
    22    21    23    2
    23    21    24    1
    24    24    25    1
    25     7     3    1
    26    18    12   ar
    27     1    26    1
    28     1    27    1
    29     1    28    1
    30     2    29    1
    31     2    30    1
    32     4    31    1
    33     4    32    1
    34     5    33    1
    35     5    34    1
    36     6    35    1
    37     6    36    1
    38     7    37    1
    39     8    38    1
    40     8    39    1
    41     9    40    1
    42    13    41    1
    43    16    42    1
    44    16    43    1
    45    17    44    1
    46    20    45    1
    47    20    46    1
    48    20    47    1
    49    24    48    1
    50    24    49    1
    51    25    50    1
    52    25    51    1
    53    25    52    1
