@<TRIPOS>MOLECULE
*****
 27 29 0 0 0
SMALL
GASTEIGER

@<TRIPOS>ATOM
      1 BR          1.2402    2.6062   -1.7840 Br      1  UNL1       -0.0446
      2 C           1.3413    1.0583   -0.6583 C.ar    1  UNL1        0.0815
      3 C           0.1470    0.4351   -0.2698 C.ar    1  UNL1        0.1078
      4 N          -1.0978    0.9205   -0.6893 N.pl3   1  UNL1       -0.2052
      5 C          -2.3306    0.3572   -0.3304 C.cat   1  UNL1        0.3694
      6 N          -2.5658   -0.1248    0.8553 N.2     1  UNL1       -0.1140
      7 C          -3.9256   -0.6338    0.9163 C.3     1  UNL1        0.1328
      8 C          -4.3726   -0.7399   -0.5252 C.3     1  UNL1        0.0920
      9 N          -3.4881    0.2215   -1.1629 N.pl3   1  UNL1       -0.2350
     10 C           0.3523   -0.6495    0.5259 C.ar    1  UNL1       -0.0220
     11 C           1.5873   -1.1249    0.9347 C.ar    1  UNL1       -0.0311
     12 C           2.7204   -0.4674    0.5182 C.ar    1  UNL1        0.0905
     13 N           3.9297   -0.9046    0.8980 N.ar    1  UNL1       -0.2519
     14 C           5.0274   -0.2392    0.4739 C.ar    1  UNL1        0.0464
     15 C           4.9253    0.8727   -0.3362 C.ar    1  UNL1        0.0464
     16 N           3.6953    1.2968   -0.7076 N.ar    1  UNL1       -0.2507
     17 C           2.5995    0.6398   -0.2895 C.ar    1  UNL1        0.1062
     18 H          -1.1023    1.7742   -1.3247 H       1  UNL1        0.2512
     19 H          -3.9585   -1.6469    1.3788 H       1  UNL1        0.0723
     20 H          -4.5606    0.0924    1.4406 H       1  UNL1        0.0723
     21 H          -4.1931   -1.7716   -0.8684 H       1  UNL1        0.0665
     22 H          -5.4114   -0.3812   -0.6555 H       1  UNL1        0.0665
     23 H          -3.6369    0.7466   -2.0751 H       1  UNL1        0.2445
     24 H          -0.4771   -1.2128    0.8881 H       1  UNL1        0.0651
     25 H           1.7251   -1.9895    1.5677 H       1  UNL1        0.0640
     26 H           6.0375   -0.5548    0.7553 H       1  UNL1        0.0845
     27 H           5.7922    1.4197   -0.6866 H       1  UNL1        0.0845
@<TRIPOS>BOND
     1     1     2    1
     2     2     3   ar
     3     3     4    1
     4     4     5    1
     5     5     6    2
     6     6     7    1
     7     7     8    1
     8     8     9    1
     9     3    10   ar
    10    10    11   ar
    11    11    12   ar
    12    12    13   ar
    13    13    14   ar
    14    14    15   ar
    15    15    16   ar
    16    16    17   ar
    17    17     2   ar
    18     9     5    1
    19    17    12   ar
    20     4    18    1
    21     7    19    1
    22     7    20    1
    23     8    21    1
    24     8    22    1
    25     9    23    1
    26    10    24    1
    27    11    25    1
    28    14    26    1
    29    15    27    1
