
     RDKit          3D

 48 51  0  0  0  0  0  0  0  0999 V2000
   -2.3596   -1.8008   -1.5586 C   0  0  0  0  0  0  0  0  0  0  0  0
   -1.8094   -0.6582   -0.7080 C   0  0  1  0  0  0  0  0  0  0  0  0
   -0.7084   -0.0258   -1.4624 C   0  0  0  0  0  0  0  0  0  0  0  0
    0.5698   -0.0284   -0.8826 C   0  0  0  0  0  0  0  0  0  0  0  0
    1.6499    0.5244   -1.4935 C   0  0  0  0  0  0  0  0  0  0  0  0
    2.9577    0.5601   -0.9763 N   0  0  0  0  0  0  0  0  0  0  0  0
    3.4223    0.0491    0.2466 C   0  0  0  0  0  0  0  0  0  0  0  0
    2.6285   -0.5178    1.0146 O   0  0  0  0  0  0  0  0  0  0  0  0
    4.8219    0.1539    0.6681 C   0  0  0  0  0  0  0  0  0  0  0  0
    5.2550   -0.3541    1.8708 C   0  0  0  0  0  0  0  0  0  0  0  0
    6.5843   -0.2516    2.2650 C   0  0  0  0  0  0  0  0  0  0  0  0
    7.4492    0.3806    1.3994 C   0  0  0  0  0  0  0  0  0  0  0  0
    9.1372    0.5461    1.8299 Cl  0  0  0  0  0  0  0  0  0  0  0  0
    7.0054    0.8934    0.1823 C   0  0  0  0  0  0  0  0  0  0  0  0
    5.6864    0.7651   -0.1563 N   0  0  0  0  0  0  0  0  0  0  0  0
    1.4168    1.1048   -2.7496 C   0  0  0  0  0  0  0  0  0  0  0  0
    0.1742    1.1207   -3.3398 C   0  0  0  0  0  0  0  0  0  0  0  0
   -0.8965    0.5561   -2.7012 C   0  0  0  0  0  0  0  0  0  0  0  0
   -2.1172    0.5748   -3.2829 F   0  0  0  0  0  0  0  0  0  0  0  0
   -2.9318    0.3204   -0.4301 C   0  0  0  0  0  0  0  0  0  0  0  0
   -3.8364   -0.1056    0.6733 C   0  0  0  0  0  0  0  0  0  0  0  0
   -4.3459    1.0945    1.4843 C   0  0  0  0  0  0  0  0  0  0  0  0
   -5.3606    1.2816    0.3715 C   0  0  0  0  0  0  0  0  0  0  0  0
   -5.2819   -0.2396    0.1758 C   0  0  0  0  0  0  0  0  0  0  0  0
   -3.3870   -1.1719    1.4402 O   0  0  0  0  0  0  0  0  0  0  0  0
   -2.0474   -1.4137    1.5710 C   0  0  0  0  0  0  0  0  0  0  0  0
   -1.4439   -1.9212    2.7789 N   0  0  0  0  0  0  0  0  0  0  0  0
   -1.2933   -1.1671    0.5410 N   0  0  0  0  0  0  0  0  0  0  0  0
   -3.4600   -1.8628   -1.4340 H   0  0  0  0  0  0  0  0  0  0  0  0
   -2.0740   -1.6099   -2.6092 H   0  0  0  0  0  0  0  0  0  0  0  0
   -1.8802   -2.7620   -1.2584 H   0  0  0  0  0  0  0  0  0  0  0  0
    0.6849   -0.4918    0.0885 H   0  0  0  0  0  0  0  0  0  0  0  0
    3.7197    1.0293   -1.5647 H   0  0  0  0  0  0  0  0  0  0  0  0
    4.5471   -0.8451    2.5267 H   0  0  0  0  0  0  0  0  0  0  0  0
    6.9544   -0.6342    3.1905 H   0  0  0  0  0  0  0  0  0  0  0  0
    7.7082    1.3847   -0.4766 H   0  0  0  0  0  0  0  0  0  0  0  0
    2.2622    1.5533   -3.2593 H   0  0  0  0  0  0  0  0  0  0  0  0
    0.0214    1.5766   -4.3131 H   0  0  0  0  0  0  0  0  0  0  0  0
   -3.4964    0.4704   -1.3895 H   0  0  0  0  0  0  0  0  0  0  0  0
   -2.4636    1.3025   -0.1994 H   0  0  0  0  0  0  0  0  0  0  0  0
   -4.8309    0.7797    2.4260 H   0  0  0  0  0  0  0  0  0  0  0  0
   -3.5926    1.8988    1.5724 H   0  0  0  0  0  0  0  0  0  0  0  0
   -6.3453    1.6458    0.6818 H   0  0  0  0  0  0  0  0  0  0  0  0
   -4.8909    1.7638   -0.4885 H   0  0  0  0  0  0  0  0  0  0  0  0
   -5.9582   -0.7140    0.9063 H   0  0  0  0  0  0  0  0  0  0  0  0
   -5.3802   -0.5373   -0.8725 H   0  0  0  0  0  0  0  0  0  0  0  0
   -0.6401   -1.4287    3.2139 H   0  0  0  0  0  0  0  0  0  0  0  0
   -1.8246   -2.7889    3.2103 H   0  0  0  0  0  0  0  0  0  0  0  0
  2  1  1  6
  2  3  1  0
  3  4  2  0
  4  5  1  0
  5  6  1  0
  6  7  1  0
  7  8  2  0
  7  9  1  0
  9 10  2  0
 10 11  1  0
 11 12  2  0
 12 13  1  0
 12 14  1  0
 14 15  2  0
  5 16  2  0
 16 17  1  0
 17 18  2  0
 18 19  1  0
  2 20  1  0
 20 21  1  0
 21 22  1  0
 22 23  1  0
 23 24  1  0
 21 25  1  0
 25 26  1  0
 26 27  1  0
 26 28  2  0
 28  2  1  0
 18  3  1  0
 24 21  1  0
 15  9  1  0
  1 29  1  0
  1 30  1  0
  1 31  1  0
  4 32  1  0
  6 33  1  0
 10 34  1  0
 11 35  1  0
 14 36  1  0
 16 37  1  0
 17 38  1  0
 20 39  1  0
 20 40  1  0
 22 41  1  0
 22 42  1  0
 23 43  1  0
 23 44  1  0
 24 45  1  0
 24 46  1  0
 27 47  1  0
 27 48  1  0
M  END
$$$$
