@<TRIPOS>MOLECULE
*****
 48 51 0 0 0
SMALL
GASTEIGER

@<TRIPOS>ATOM
      1 C          -2.3596   -1.8008   -1.5586 C.3     1  UNL1       -0.0352
      2 C          -1.8094   -0.6582   -0.7080 C.3     1  UNL1        0.0950
      3 C          -0.7084   -0.0258   -1.4624 C.ar    1  UNL1        0.0168
      4 C           0.5698   -0.0284   -0.8826 C.ar    1  UNL1       -0.0323
      5 C           1.6499    0.5244   -1.4935 C.ar    1  UNL1        0.0342
      6 N           2.9577    0.5601   -0.9763 N.am    1  UNL1       -0.2802
      7 C           3.4223    0.0491    0.2466 C.2     1  UNL1        0.2666
      8 O           2.6285   -0.5178    1.0146 O.2     1  UNL1       -0.2682
      9 C           4.8219    0.1539    0.6681 C.ar    1  UNL1        0.1257
     10 C           5.2550   -0.3541    1.8708 C.ar    1  UNL1       -0.0298
     11 C           6.5843   -0.2516    2.2650 C.ar    1  UNL1       -0.0397
     12 C           7.4492    0.3806    1.3994 C.ar    1  UNL1        0.0591
     13 CL          9.1372    0.5461    1.8299 Cl      1  UNL1       -0.0820
     14 C           7.0054    0.8934    0.1823 C.ar    1  UNL1        0.0467
     15 N           5.6864    0.7651   -0.1563 N.ar    1  UNL1       -0.2489
     16 C           1.4168    1.1048   -2.7496 C.ar    1  UNL1       -0.0377
     17 C           0.1742    1.1207   -3.3398 C.ar    1  UNL1       -0.0243
     18 C          -0.8965    0.5561   -2.7012 C.ar    1  UNL1        0.1290
     19 F          -2.1172    0.5748   -3.2829 F       1  UNL1       -0.2051
     20 C          -2.9318    0.3204   -0.4301 C.3     1  UNL1        0.0166
     21 C          -3.8364   -0.1056    0.6733 C.3     1  UNL1        0.1160
     22 C          -4.3459    1.0945    1.4843 C.3     1  UNL1       -0.0126
     23 C          -5.3606    1.2816    0.3715 C.3     1  UNL1       -0.0458
     24 C          -5.2819   -0.2396    0.1758 C.3     1  UNL1       -0.0126
     25 O          -3.3870   -1.1719    1.4402 O.2     1  UNL1       -0.4592
     26 C          -2.0474   -1.4137    1.5710 C.2     1  UNL1        0.2765
     27 N          -1.4439   -1.9212    2.7789 N.pl3   1  UNL1       -0.3133
     28 N          -1.2933   -1.1671    0.5410 N.2     1  UNL1       -0.2257
     29 H          -3.4600   -1.8628   -1.4340 H       1  UNL1        0.0256
     30 H          -2.0740   -1.6099   -2.6092 H       1  UNL1        0.0256
     31 H          -1.8802   -2.7620   -1.2584 H       1  UNL1        0.0256
     32 H           0.6849   -0.4918    0.0885 H       1  UNL1        0.0640
     33 H           3.7197    1.0293   -1.5647 H       1  UNL1        0.1552
     34 H           4.5471   -0.8451    2.5267 H       1  UNL1        0.0641
     35 H           6.9544   -0.6342    3.1905 H       1  UNL1        0.0633
     36 H           7.7082    1.3847   -0.4766 H       1  UNL1        0.0844
     37 H           2.2622    1.5533   -3.2593 H       1  UNL1        0.0637
     38 H           0.0214    1.5766   -4.3131 H       1  UNL1        0.0647
     39 H          -3.4964    0.4704   -1.3895 H       1  UNL1        0.0330
     40 H          -2.4636    1.3025   -0.1994 H       1  UNL1        0.0330
     41 H          -4.8309    0.7797    2.4260 H       1  UNL1        0.0304
     42 H          -3.5926    1.8988    1.5724 H       1  UNL1        0.0304
     43 H          -6.3453    1.6458    0.6818 H       1  UNL1        0.0268
     44 H          -4.8909    1.7638   -0.4885 H       1  UNL1        0.0268
     45 H          -5.9582   -0.7140    0.9063 H       1  UNL1        0.0304
     46 H          -5.3802   -0.5373   -0.8725 H       1  UNL1        0.0304
     47 H          -0.6401   -1.4287    3.2139 H       1  UNL1        0.1466
     48 H          -1.8246   -2.7889    3.2103 H       1  UNL1        0.1466
@<TRIPOS>BOND
     1     2     1    1
     2     2     3    1
     3     3     4   ar
     4     4     5   ar
     5     5     6    1
     6     6     7   am
     7     7     8    2
     8     7     9    1
     9     9    10   ar
    10    10    11   ar
    11    11    12   ar
    12    12    13    1
    13    12    14   ar
    14    14    15   ar
    15     5    16   ar
    16    16    17   ar
    17    17    18   ar
    18    18    19    1
    19     2    20    1
    20    20    21    1
    21    21    22    1
    22    22    23    1
    23    23    24    1
    24    21    25    1
    25    25    26    1
    26    26    27    1
    27    26    28    2
    28    28     2    1
    29    18     3   ar
    30    24    21    1
    31    15     9   ar
    32     1    29    1
    33     1    30    1
    34     1    31    1
    35     4    32    1
    36     6    33    1
    37    10    34    1
    38    11    35    1
    39    14    36    1
    40    16    37    1
    41    17    38    1
    42    20    39    1
    43    20    40    1
    44    22    41    1
    45    22    42    1
    46    23    43    1
    47    23    44    1
    48    24    45    1
    49    24    46    1
    50    27    47    1
    51    27    48    1
