@<TRIPOS>MOLECULE
*****
 144 145 0 0 0
SMALL
GASTEIGER

@<TRIPOS>ATOM
      1 GD         -1.6911   -2.0670    3.6410 Gd      1  UNL1        0.0000
      2 C           0.0355    1.6622   -0.3711 C.3     2  UNL2        0.0000
      3 C           0.0994    0.8941   -1.6423 C.2     2  UNL2        0.0000
      4 O           1.2442    0.1668   -1.8813 O.co2   2  UNL2       -0.5000
      5 O          -0.8722    0.9364   -2.4338 O.co2   2  UNL2       -0.5000
      6 C          -1.4233   -0.5312   -0.7475 C.3     3  UNL3        0.0000
      7 C          -0.3924    0.0009    0.1742 C.2     3  UNL3        0.0000
      8 O          -0.6084   -0.2227    1.5253 O.co2   3  UNL3       -0.5000
      9 O           0.6071    0.6163   -0.3026 O.co2   3  UNL3       -0.5000
     10 C           7.2280   -4.7212   -0.0388 C.3     4  UNL4        0.0000
     11 C           5.8361   -4.8729    0.5940 C.3     4  UNL4        0.0000
     12 C           4.8529   -4.2050   -0.2911 C.ar    4  UNL4        0.0000
     13 C           4.3441   -4.6468   -1.4901 C.ar    4  UNL4        0.0000
     14 C           4.6613   -5.9196   -2.1940 C.3     4  UNL4        0.0000
     15 C           3.9261   -7.0287   -1.4656 C.3     4  UNL4        0.0000
     16 C           3.4815   -3.6505   -1.8869 C.ar    4  UNL4        0.0000
     17 C           2.6780   -3.4704   -2.9684 C.2     4  UNL4        0.0000
     18 C           1.7286   -2.4621   -3.0449 C.2     4  UNL4        0.0000
     19 N           1.9832   -1.4010   -2.2283 N.2     4  UNL4        0.0000
     20 C           0.9867   -0.5224   -2.4286 C.2     4  UNL4        0.0000
     21 C           0.7674    0.7088   -1.8462 C.2     4  UNL4        0.0000
     22 N           0.3544    1.0624   -0.5822 N.2     4  UNL4        0.0000
     23 C          -0.9701    1.2253   -0.3540 C.ar    4  UNL4        0.0000
     24 C          -1.5766    2.4112   -0.6971 C.ar    4  UNL4        0.0000
     25 C          -2.9131    2.7247   -0.5490 C.ar    4  UNL4        0.0000
     26 O          -3.6271    3.8159   -0.8148 O.3     4  UNL4        0.0000
     27 C          -3.2476    5.0570   -1.2533 C.3     4  UNL4        0.0000
     28 C          -2.4242    5.8716   -0.2443 C.3     4  UNL4        0.0000
     29 O          -1.2721    5.2766    0.1148 O.3     4  UNL4        0.0000
     30 C          -0.5079    5.8945    1.0748 C.3     4  UNL4        0.0000
     31 C          -1.1901    6.0148    2.4040 C.3     4  UNL4        0.0000
     32 O          -0.4054    6.6343    3.3939 O.3     4  UNL4        0.0000
     33 C          -1.1661    6.6343    4.5676 C.3     4  UNL4        0.0000
     34 C          -0.3988    7.2307    5.7188 C.3     4  UNL4        0.0000
     35 O          -0.0618    8.5363    5.4178 O.3     4  UNL4        0.0000
     36 C           0.6395    9.0230    6.5432 C.3     4  UNL4        0.0000
     37 C          -3.7223    1.6998    0.0136 C.ar    4  UNL4        0.0000
     38 O          -4.9901    1.9164    0.1827 O.3     4  UNL4        0.0000
     39 C          -6.1763    1.4648    0.6254 C.3     4  UNL4        0.0000
     40 C          -6.7822    0.2461    0.0002 C.3     4  UNL4        0.0000
     41 O          -6.0602   -0.9017    0.0698 O.3     4  UNL4        0.0000
     42 C          -6.7459   -1.9595   -0.5027 C.3     4  UNL4        0.0000
     43 C          -5.8493   -3.2042   -0.4049 C.3     4  UNL4        0.0000
     44 O          -5.5914   -3.4273    0.9221 O.3     4  UNL4        0.0000
     45 C          -4.7669   -4.5271    1.1648 C.3     4  UNL4        0.0000
     46 C          -4.5406   -4.5935    2.6673 C.3     4  UNL4        0.0000
     47 O          -3.7243   -5.6674    2.9955 O.3     4  UNL4        0.0000
     48 C          -3.5345   -5.6654    4.3728 C.3     4  UNL4        0.0000
     49 C          -3.1171    0.4905    0.3673 C.ar    4  UNL4        0.0000
     50 C          -1.7761    0.2429    0.1951 C.ar    4  UNL4        0.0000
     51 N          -1.1228   -0.8897    0.5148 N.2     4  UNL4        0.0000
     52 C          -0.2077   -0.9268    1.5047 C.2     4  UNL4        0.0000
     53 C           1.1673   -0.8973    1.5771 C.2     4  UNL4        0.0000
     54 N           2.0489   -1.7738    1.0861 N.2     4  UNL4        0.0000
     55 C           3.2798   -1.3025    1.4154 C.2     4  UNL4        0.0000
     56 C           4.3794   -2.0330    1.0272 C.2     4  UNL4        0.0000
     57 C           4.3091   -2.9739    0.0261 C.ar    4  UNL4        0.0000
     58 N           3.4704   -2.6621   -0.9754 N.ar    4  UNL4       -1.0000
     59 C           3.1992   -0.0645    2.1525 C.2     4  UNL4        0.0000
     60 C           4.3190    0.7228    2.6663 C.3     4  UNL4        0.0000
     61 C           5.2194    1.1848    1.5314 C.3     4  UNL4        0.0000
     62 C           4.4582    2.0378    0.5505 C.3     4  UNL4        0.0000
     63 O           3.9414    3.1647    1.1837 O.3     4  UNL4        0.0000
     64 C           1.8912    0.1830    2.2508 C.2     4  UNL4        0.0000
     65 C           1.3505    1.3816    2.9503 C.3     4  UNL4        0.0000
     66 C           0.0677   -1.0973   -3.4389 C.2     4  UNL4        0.0000
     67 C          -1.1780   -0.4829   -3.9844 C.3     4  UNL4        0.0000
     68 C           0.5139   -2.2922   -3.8245 C.2     4  UNL4        0.0000
     69 C          -0.0153   -3.2787   -4.7982 C.3     4  UNL4        0.0000
     70 C          -0.3139   -4.5676   -4.0522 C.3     4  UNL4        0.0000
     71 C          -0.8601   -5.6506   -4.9619 C.3     4  UNL4        0.0000
     72 O          -1.1313   -6.8440   -4.2639 O.3     4  UNL4        0.0000
     73 H           1.0465    2.1191   -0.2434 H       2  UNL2        0.0000
     74 H          -0.1544    0.9446    0.4328 H       2  UNL2        0.0000
     75 H          -0.7440    2.4507   -0.4533 H       2  UNL2        0.0000
     76 H          -1.9925   -1.3686   -0.3325 H       3  UNL3        0.0000
     77 H          -0.8971   -0.9210   -1.6423 H       3  UNL3        0.0000
     78 H          -2.0811    0.3279   -1.0610 H       3  UNL3        0.0000
     79 H           7.7661   -5.6735   -0.0224 H       4  UNL4        0.0000
     80 H           7.0995   -4.4453   -1.1221 H       4  UNL4        0.0000
     81 H           7.7769   -3.8725    0.4093 H       4  UNL4        0.0000
     82 H           5.9012   -4.3958    1.5827 H       4  UNL4        0.0000
     83 H           5.5965   -5.9417    0.6534 H       4  UNL4        0.0000
     84 H           4.2255   -5.8655   -3.2097 H       4  UNL4        0.0000
     85 H           5.7546   -6.1027   -2.2224 H       4  UNL4        0.0000
     86 H           3.1536   -6.5788   -0.8105 H       4  UNL4        0.0000
     87 H           3.4710   -7.7514   -2.1743 H       4  UNL4        0.0000
     88 H           4.6044   -7.6007   -0.7792 H       4  UNL4        0.0000
     89 H           2.8123   -4.1591   -3.7914 H       4  UNL4        0.0000
     90 H           0.9724    1.4697   -2.6001 H       4  UNL4        0.0000
     91 H          -0.9406    3.1281   -1.1422 H       4  UNL4        0.0000
     92 H          -4.1057    5.7129   -1.5590 H       4  UNL4        0.0000
     93 H          -2.5712    4.9888   -2.1577 H       4  UNL4        0.0000
     94 H          -3.0879    6.2017    0.5891 H       4  UNL4        0.0000
     95 H          -2.1604    6.8258   -0.7773 H       4  UNL4        0.0000
     96 H           0.4157    5.2675    1.2394 H       4  UNL4        0.0000
     97 H          -0.2005    6.9225    0.7772 H       4  UNL4        0.0000
     98 H          -2.1943    6.4714    2.3545 H       4  UNL4        0.0000
     99 H          -1.3702    4.9669    2.7903 H       4  UNL4        0.0000
    100 H          -1.4481    5.5910    4.8531 H       4  UNL4        0.0000
    101 H          -2.1198    7.1813    4.4130 H       4  UNL4        0.0000
    102 H          -1.0207    7.2213    6.6530 H       4  UNL4        0.0000
    103 H           0.5244    6.6245    5.9263 H       4  UNL4        0.0000
    104 H           1.5249    8.3694    6.6715 H       4  UNL4        0.0000
    105 H           0.9197   10.0767    6.4085 H       4  UNL4        0.0000
    106 H          -0.0303    8.9764    7.4452 H       4  UNL4        0.0000
    107 H          -6.9898    2.2633    0.5410 H       4  UNL4        0.0000
    108 H          -6.1890    1.2574    1.7383 H       4  UNL4        0.0000
    109 H          -7.7394    0.0609    0.5773 H       4  UNL4        0.0000
    110 H          -7.1074    0.4144   -1.0473 H       4  UNL4        0.0000
    111 H          -7.6888   -2.1204    0.0537 H       4  UNL4        0.0000
    112 H          -6.9838   -1.8360   -1.5732 H       4  UNL4        0.0000
    113 H          -4.9560   -3.1146   -1.0274 H       4  UNL4        0.0000
    114 H          -6.4264   -4.0811   -0.7992 H       4  UNL4        0.0000
    115 H          -3.8451   -4.5133    0.5815 H       4  UNL4        0.0000
    116 H          -5.3543   -5.4416    0.9060 H       4  UNL4        0.0000
    117 H          -4.0619   -3.6579    3.0216 H       4  UNL4        0.0000
    118 H          -5.5437   -4.7666    3.1185 H       4  UNL4        0.0000
    119 H          -2.8868   -6.5097    4.7143 H       4  UNL4        0.0000
    120 H          -4.4803   -5.7088    4.9395 H       4  UNL4        0.0000
    121 H          -3.0130   -4.7429    4.7004 H       4  UNL4        0.0000
    122 H          -3.5846   -0.3595    0.8038 H       4  UNL4        0.0000
    123 H          -0.6918   -0.9933    2.4918 H       4  UNL4        0.0000
    124 H           5.3739   -1.9605    1.4385 H       4  UNL4        0.0000
    125 H           4.9518    0.0004    3.2646 H       4  UNL4        0.0000
    126 H           4.0222    1.5587    3.2916 H       4  UNL4        0.0000
    127 H           5.6894    0.3676    0.9876 H       4  UNL4        0.0000
    128 H           6.0483    1.8301    1.9318 H       4  UNL4        0.0000
    129 H           5.2119    2.3631   -0.2224 H       4  UNL4        0.0000
    130 H           3.6947    1.4690    0.0086 H       4  UNL4        0.0000
    131 H           3.8648    3.8711    0.4953 H       4  UNL4        0.0000
    132 H           2.0505    1.7587    3.7187 H       4  UNL4        0.0000
    133 H           0.4448    1.0423    3.5191 H       4  UNL4        0.0000
    134 H           1.0167    2.1676    2.2591 H       4  UNL4        0.0000
    135 H          -1.3213    0.5463   -3.6194 H       4  UNL4        0.0000
    136 H          -1.1702   -0.4229   -5.0856 H       4  UNL4        0.0000
    137 H          -2.0372   -1.0712   -3.5761 H       4  UNL4        0.0000
    138 H          -0.9799   -2.9269   -5.2279 H       4  UNL4        0.0000
    139 H           0.7039   -3.4831   -5.6103 H       4  UNL4        0.0000
    140 H           0.5905   -4.9797   -3.5616 H       4  UNL4        0.0000
    141 H          -1.1425   -4.3715   -3.3146 H       4  UNL4        0.0000
    142 H          -0.0990   -5.9401   -5.7482 H       4  UNL4        0.0000
    143 H          -1.7493   -5.3283   -5.5125 H       4  UNL4        0.0000
    144 H          -2.0788   -6.8408   -3.9328 H       4  UNL4        0.0000
@<TRIPOS>UNITY_ATOM_ATTR
1 1
charge 3
4 1
charge -1
8 1
charge -1
58 1
charge -1
@<TRIPOS>BOND
     1     2     3    1
     2     3     4   ar
     3     3     5   ar
     4     6     7    1
     5     7     8   ar
     6     7     9   ar
     7    10    11    1
     8    11    12    1
     9    12    13   ar
    10    13    14    1
    11    14    15    1
    12    13    16   ar
    13    16    17    2
    14    17    18    1
    15    18    19    2
    16    19    20    1
    17    20    21    2
    18    21    22    1
    19    22    23    2
    20    23    24   ar
    21    24    25   ar
    22    25    26    1
    23    26    27    1
    24    27    28    1
    25    28    29    1
    26    29    30    1
    27    30    31    1
    28    31    32    1
    29    32    33    1
    30    33    34    1
    31    34    35    1
    32    35    36    1
    33    25    37   ar
    34    37    38    1
    35    38    39    1
    36    39    40    1
    37    40    41    1
    38    41    42    1
    39    42    43    1
    40    43    44    1
    41    44    45    1
    42    45    46    1
    43    46    47    1
    44    47    48    1
    45    37    49   ar
    46    49    50   ar
    47    50    51    2
    48    51    52    1
    49    52    53    2
    50    53    54    1
    51    54    55    2
    52    55    56    1
    53    56    57    2
    54    57    58   ar
    55    55    59    1
    56    59    60    1
    57    60    61    1
    58    61    62    1
    59    62    63    1
    60    59    64    2
    61    64    65    1
    62    20    66    1
    63    66    67    1
    64    66    68    2
    65    68    69    1
    66    69    70    1
    67    70    71    1
    68    71    72    1
    69    57    12   ar
    70    58    16   ar
    71    68    18    1
    72    50    23   ar
    73    64    53    1
    74     2    73    1
    75     2    74    1
    76     2    75    1
    77     6    76    1
    78     6    77    1
    79     6    78    1
    80    10    79    1
    81    10    80    1
    82    10    81    1
    83    11    82    1
    84    11    83    1
    85    14    84    1
    86    14    85    1
    87    15    86    1
    88    15    87    1
    89    15    88    1
    90    17    89    1
    91    21    90    1
    92    24    91    1
    93    27    92    1
    94    27    93    1
    95    28    94    1
    96    28    95    1
    97    30    96    1
    98    30    97    1
    99    31    98    1
   100    31    99    1
   101    33   100    1
   102    33   101    1
   103    34   102    1
   104    34   103    1
   105    36   104    1
   106    36   105    1
   107    36   106    1
   108    39   107    1
   109    39   108    1
   110    40   109    1
   111    40   110    1
   112    42   111    1
   113    42   112    1
   114    43   113    1
   115    43   114    1
   116    45   115    1
   117    45   116    1
   118    46   117    1
   119    46   118    1
   120    48   119    1
   121    48   120    1
   122    48   121    1
   123    49   122    1
   124    52   123    1
   125    56   124    1
   126    60   125    1
   127    60   126    1
   128    61   127    1
   129    61   128    1
   130    62   129    1
   131    62   130    1
   132    63   131    1
   133    65   132    1
   134    65   133    1
   135    65   134    1
   136    67   135    1
   137    67   136    1
   138    67   137    1
   139    69   138    1
   140    69   139    1
   141    70   140    1
   142    70   141    1
   143    71   142    1
   144    71   143    1
   145    72   144    1
