
     RDKit          3D

144145  0  0  0  0  0  0  0  0999 V2000
   -1.6911   -2.0670    3.6410 Gd  0  0  0  0  0 15  0  0  0  0  0  0
    0.0355    1.6622   -0.3711 C   0  0  0  0  0  0  0  0  0  0  0  0
    0.0994    0.8941   -1.6423 C   0  0  0  0  0  0  0  0  0  0  0  0
    1.2442    0.1668   -1.8813 O   0  0  0  0  0  1  0  0  0  0  0  0
   -0.8722    0.9364   -2.4338 O   0  0  0  0  0  0  0  0  0  0  0  0
   -1.4233   -0.5312   -0.7475 C   0  0  0  0  0  0  0  0  0  0  0  0
   -0.3924    0.0009    0.1742 C   0  0  0  0  0  0  0  0  0  0  0  0
   -0.6084   -0.2227    1.5253 O   0  0  0  0  0  1  0  0  0  0  0  0
    0.6071    0.6163   -0.3026 O   0  0  0  0  0  0  0  0  0  0  0  0
    7.2280   -4.7212   -0.0388 C   0  0  0  0  0  0  0  0  0  0  0  0
    5.8361   -4.8729    0.5940 C   0  0  0  0  0  0  0  0  0  0  0  0
    4.8529   -4.2050   -0.2911 C   0  0  0  0  0  0  0  0  0  0  0  0
    4.3441   -4.6468   -1.4901 C   0  0  0  0  0  0  0  0  0  0  0  0
    4.6613   -5.9196   -2.1940 C   0  0  0  0  0  0  0  0  0  0  0  0
    3.9261   -7.0287   -1.4656 C   0  0  0  0  0  0  0  0  0  0  0  0
    3.4815   -3.6505   -1.8869 C   0  0  0  0  0  0  0  0  0  0  0  0
    2.6780   -3.4704   -2.9684 C   0  0  0  0  0  0  0  0  0  0  0  0
    1.7286   -2.4621   -3.0449 C   0  0  0  0  0  0  0  0  0  0  0  0
    1.9832   -1.4010   -2.2283 N   0  0  0  0  0  0  0  0  0  0  0  0
    0.9867   -0.5224   -2.4286 C   0  0  0  0  0  0  0  0  0  0  0  0
    0.7674    0.7088   -1.8462 C   0  0  0  0  0  0  0  0  0  0  0  0
    0.3544    1.0624   -0.5822 N   0  0  0  0  0  0  0  0  0  0  0  0
   -0.9701    1.2253   -0.3540 C   0  0  0  0  0  0  0  0  0  0  0  0
   -1.5766    2.4112   -0.6971 C   0  0  0  0  0  0  0  0  0  0  0  0
   -2.9131    2.7247   -0.5490 C   0  0  0  0  0  0  0  0  0  0  0  0
   -3.6271    3.8159   -0.8148 O   0  0  0  0  0  0  0  0  0  0  0  0
   -3.2476    5.0570   -1.2533 C   0  0  0  0  0  0  0  0  0  0  0  0
   -2.4242    5.8716   -0.2443 C   0  0  0  0  0  0  0  0  0  0  0  0
   -1.2721    5.2766    0.1148 O   0  0  0  0  0  0  0  0  0  0  0  0
   -0.5079    5.8945    1.0748 C   0  0  0  0  0  0  0  0  0  0  0  0
   -1.1901    6.0148    2.4040 C   0  0  0  0  0  0  0  0  0  0  0  0
   -0.4054    6.6343    3.3939 O   0  0  0  0  0  0  0  0  0  0  0  0
   -1.1661    6.6343    4.5676 C   0  0  0  0  0  0  0  0  0  0  0  0
   -0.3988    7.2307    5.7188 C   0  0  0  0  0  0  0  0  0  0  0  0
   -0.0618    8.5363    5.4178 O   0  0  0  0  0  0  0  0  0  0  0  0
    0.6395    9.0230    6.5432 C   0  0  0  0  0  0  0  0  0  0  0  0
   -3.7223    1.6998    0.0136 C   0  0  0  0  0  0  0  0  0  0  0  0
   -4.9901    1.9164    0.1827 O   0  0  0  0  0  0  0  0  0  0  0  0
   -6.1763    1.4648    0.6254 C   0  0  0  0  0  0  0  0  0  0  0  0
   -6.7822    0.2461    0.0002 C   0  0  0  0  0  0  0  0  0  0  0  0
   -6.0602   -0.9017    0.0698 O   0  0  0  0  0  0  0  0  0  0  0  0
   -6.7459   -1.9595   -0.5027 C   0  0  0  0  0  0  0  0  0  0  0  0
   -5.8493   -3.2042   -0.4049 C   0  0  0  0  0  0  0  0  0  0  0  0
   -5.5914   -3.4273    0.9221 O   0  0  0  0  0  0  0  0  0  0  0  0
   -4.7669   -4.5271    1.1648 C   0  0  0  0  0  0  0  0  0  0  0  0
   -4.5406   -4.5935    2.6673 C   0  0  0  0  0  0  0  0  0  0  0  0
   -3.7243   -5.6674    2.9955 O   0  0  0  0  0  0  0  0  0  0  0  0
   -3.5345   -5.6654    4.3728 C   0  0  0  0  0  0  0  0  0  0  0  0
   -3.1171    0.4905    0.3673 C   0  0  0  0  0  0  0  0  0  0  0  0
   -1.7761    0.2429    0.1951 C   0  0  0  0  0  0  0  0  0  0  0  0
   -1.1228   -0.8897    0.5148 N   0  0  0  0  0  0  0  0  0  0  0  0
   -0.2077   -0.9268    1.5047 C   0  0  0  0  0  0  0  0  0  0  0  0
    1.1673   -0.8973    1.5771 C   0  0  0  0  0  0  0  0  0  0  0  0
    2.0489   -1.7738    1.0861 N   0  0  0  0  0  0  0  0  0  0  0  0
    3.2798   -1.3025    1.4154 C   0  0  0  0  0  0  0  0  0  0  0  0
    4.3794   -2.0330    1.0272 C   0  0  0  0  0  0  0  0  0  0  0  0
    4.3091   -2.9739    0.0261 C   0  0  0  0  0  0  0  0  0  0  0  0
    3.4704   -2.6621   -0.9754 N   0  0  0  0  0  2  0  0  0  0  0  0
    3.1992   -0.0645    2.1525 C   0  0  0  0  0  0  0  0  0  0  0  0
    4.3190    0.7228    2.6663 C   0  0  0  0  0  0  0  0  0  0  0  0
    5.2194    1.1848    1.5314 C   0  0  0  0  0  0  0  0  0  0  0  0
    4.4582    2.0378    0.5505 C   0  0  0  0  0  0  0  0  0  0  0  0
    3.9414    3.1647    1.1837 O   0  0  0  0  0  0  0  0  0  0  0  0
    1.8912    0.1830    2.2508 C   0  0  0  0  0  0  0  0  0  0  0  0
    1.3505    1.3816    2.9503 C   0  0  0  0  0  0  0  0  0  0  0  0
    0.0677   -1.0973   -3.4389 C   0  0  0  0  0  0  0  0  0  0  0  0
   -1.1780   -0.4829   -3.9844 C   0  0  0  0  0  0  0  0  0  0  0  0
    0.5139   -2.2922   -3.8245 C   0  0  0  0  0  0  0  0  0  0  0  0
   -0.0153   -3.2787   -4.7982 C   0  0  0  0  0  0  0  0  0  0  0  0
   -0.3139   -4.5676   -4.0522 C   0  0  0  0  0  0  0  0  0  0  0  0
   -0.8601   -5.6506   -4.9619 C   0  0  0  0  0  0  0  0  0  0  0  0
   -1.1313   -6.8440   -4.2639 O   0  0  0  0  0  0  0  0  0  0  0  0
    1.0465    2.1191   -0.2434 H   0  0  0  0  0  0  0  0  0  0  0  0
   -0.1544    0.9446    0.4328 H   0  0  0  0  0  0  0  0  0  0  0  0
   -0.7440    2.4507   -0.4533 H   0  0  0  0  0  0  0  0  0  0  0  0
   -1.9925   -1.3686   -0.3325 H   0  0  0  0  0  0  0  0  0  0  0  0
   -0.8971   -0.9210   -1.6423 H   0  0  0  0  0  0  0  0  0  0  0  0
   -2.0811    0.3279   -1.0610 H   0  0  0  0  0  0  0  0  0  0  0  0
    7.7661   -5.6735   -0.0224 H   0  0  0  0  0  0  0  0  0  0  0  0
    7.0995   -4.4453   -1.1221 H   0  0  0  0  0  0  0  0  0  0  0  0
    7.7769   -3.8725    0.4093 H   0  0  0  0  0  0  0  0  0  0  0  0
    5.9012   -4.3958    1.5827 H   0  0  0  0  0  0  0  0  0  0  0  0
    5.5965   -5.9417    0.6534 H   0  0  0  0  0  0  0  0  0  0  0  0
    4.2255   -5.8655   -3.2097 H   0  0  0  0  0  0  0  0  0  0  0  0
    5.7546   -6.1027   -2.2224 H   0  0  0  0  0  0  0  0  0  0  0  0
    3.1536   -6.5788   -0.8105 H   0  0  0  0  0  0  0  0  0  0  0  0
    3.4710   -7.7514   -2.1743 H   0  0  0  0  0  0  0  0  0  0  0  0
    4.6044   -7.6007   -0.7792 H   0  0  0  0  0  0  0  0  0  0  0  0
    2.8123   -4.1591   -3.7914 H   0  0  0  0  0  0  0  0  0  0  0  0
    0.9724    1.4697   -2.6001 H   0  0  0  0  0  0  0  0  0  0  0  0
   -0.9406    3.1281   -1.1422 H   0  0  0  0  0  0  0  0  0  0  0  0
   -4.1057    5.7129   -1.5590 H   0  0  0  0  0  0  0  0  0  0  0  0
   -2.5712    4.9888   -2.1577 H   0  0  0  0  0  0  0  0  0  0  0  0
   -3.0879    6.2017    0.5891 H   0  0  0  0  0  0  0  0  0  0  0  0
   -2.1604    6.8258   -0.7773 H   0  0  0  0  0  0  0  0  0  0  0  0
    0.4157    5.2675    1.2394 H   0  0  0  0  0  0  0  0  0  0  0  0
   -0.2005    6.9225    0.7772 H   0  0  0  0  0  0  0  0  0  0  0  0
   -2.1943    6.4714    2.3545 H   0  0  0  0  0  0  0  0  0  0  0  0
   -1.3702    4.9669    2.7903 H   0  0  0  0  0  0  0  0  0  0  0  0
   -1.4481    5.5910    4.8531 H   0  0  0  0  0  0  0  0  0  0  0  0
   -2.1198    7.1813    4.4130 H   0  0  0  0  0  0  0  0  0  0  0  0
   -1.0207    7.2213    6.6530 H   0  0  0  0  0  0  0  0  0  0  0  0
    0.5244    6.6245    5.9263 H   0  0  0  0  0  0  0  0  0  0  0  0
    1.5249    8.3694    6.6715 H   0  0  0  0  0  0  0  0  0  0  0  0
    0.9197   10.0767    6.4085 H   0  0  0  0  0  0  0  0  0  0  0  0
   -0.0303    8.9764    7.4452 H   0  0  0  0  0  0  0  0  0  0  0  0
   -6.9898    2.2633    0.5410 H   0  0  0  0  0  0  0  0  0  0  0  0
   -6.1890    1.2574    1.7383 H   0  0  0  0  0  0  0  0  0  0  0  0
   -7.7394    0.0609    0.5773 H   0  0  0  0  0  0  0  0  0  0  0  0
   -7.1074    0.4144   -1.0473 H   0  0  0  0  0  0  0  0  0  0  0  0
   -7.6888   -2.1204    0.0537 H   0  0  0  0  0  0  0  0  0  0  0  0
   -6.9838   -1.8360   -1.5732 H   0  0  0  0  0  0  0  0  0  0  0  0
   -4.9560   -3.1146   -1.0274 H   0  0  0  0  0  0  0  0  0  0  0  0
   -6.4264   -4.0811   -0.7992 H   0  0  0  0  0  0  0  0  0  0  0  0
   -3.8451   -4.5133    0.5815 H   0  0  0  0  0  0  0  0  0  0  0  0
   -5.3543   -5.4416    0.9060 H   0  0  0  0  0  0  0  0  0  0  0  0
   -4.0619   -3.6579    3.0216 H   0  0  0  0  0  0  0  0  0  0  0  0
   -5.5437   -4.7666    3.1185 H   0  0  0  0  0  0  0  0  0  0  0  0
   -2.8868   -6.5097    4.7143 H   0  0  0  0  0  0  0  0  0  0  0  0
   -4.4803   -5.7088    4.9395 H   0  0  0  0  0  0  0  0  0  0  0  0
   -3.0130   -4.7429    4.7004 H   0  0  0  0  0  0  0  0  0  0  0  0
   -3.5846   -0.3595    0.8038 H   0  0  0  0  0  0  0  0  0  0  0  0
   -0.6918   -0.9933    2.4918 H   0  0  0  0  0  0  0  0  0  0  0  0
    5.3739   -1.9605    1.4385 H   0  0  0  0  0  0  0  0  0  0  0  0
    4.9518    0.0004    3.2646 H   0  0  0  0  0  0  0  0  0  0  0  0
    4.0222    1.5587    3.2916 H   0  0  0  0  0  0  0  0  0  0  0  0
    5.6894    0.3676    0.9876 H   0  0  0  0  0  0  0  0  0  0  0  0
    6.0483    1.8301    1.9318 H   0  0  0  0  0  0  0  0  0  0  0  0
    5.2119    2.3631   -0.2224 H   0  0  0  0  0  0  0  0  0  0  0  0
    3.6947    1.4690    0.0086 H   0  0  0  0  0  0  0  0  0  0  0  0
    3.8648    3.8711    0.4953 H   0  0  0  0  0  0  0  0  0  0  0  0
    2.0505    1.7587    3.7187 H   0  0  0  0  0  0  0  0  0  0  0  0
    0.4448    1.0423    3.5191 H   0  0  0  0  0  0  0  0  0  0  0  0
    1.0167    2.1676    2.2591 H   0  0  0  0  0  0  0  0  0  0  0  0
   -1.3213    0.5463   -3.6194 H   0  0  0  0  0  0  0  0  0  0  0  0
   -1.1702   -0.4229   -5.0856 H   0  0  0  0  0  0  0  0  0  0  0  0
   -2.0372   -1.0712   -3.5761 H   0  0  0  0  0  0  0  0  0  0  0  0
   -0.9799   -2.9269   -5.2279 H   0  0  0  0  0  0  0  0  0  0  0  0
    0.7039   -3.4831   -5.6103 H   0  0  0  0  0  0  0  0  0  0  0  0
    0.5905   -4.9797   -3.5616 H   0  0  0  0  0  0  0  0  0  0  0  0
   -1.1425   -4.3715   -3.3146 H   0  0  0  0  0  0  0  0  0  0  0  0
   -0.0990   -5.9401   -5.7482 H   0  0  0  0  0  0  0  0  0  0  0  0
   -1.7493   -5.3283   -5.5125 H   0  0  0  0  0  0  0  0  0  0  0  0
   -2.0788   -6.8408   -3.9328 H   0  0  0  0  0  0  0  0  0  0  0  0
  2  3  1  0
  3  4  1  0
  3  5  2  0
  6  7  1  0
  7  8  1  0
  7  9  2  0
 10 11  1  0
 11 12  1  0
 12 13  2  0
 13 14  1  0
 14 15  1  0
 13 16  1  0
 16 17  2  0
 17 18  1  0
 18 19  2  0
 19 20  1  0
 20 21  2  0
 21 22  1  0
 22 23  2  0
 23 24  1  0
 24 25  2  0
 25 26  1  0
 26 27  1  0
 27 28  1  0
 28 29  1  0
 29 30  1  0
 30 31  1  0
 31 32  1  0
 32 33  1  0
 33 34  1  0
 34 35  1  0
 35 36  1  0
 25 37  1  0
 37 38  1  0
 38 39  1  0
 39 40  1  0
 40 41  1  0
 41 42  1  0
 42 43  1  0
 43 44  1  0
 44 45  1  0
 45 46  1  0
 46 47  1  0
 47 48  1  0
 37 49  2  0
 49 50  1  0
 50 51  2  0
 51 52  1  0
 52 53  2  0
 53 54  1  0
 54 55  2  0
 55 56  1  0
 56 57  2  0
 57 58  1  0
 55 59  1  0
 59 60  1  0
 60 61  1  0
 61 62  1  0
 62 63  1  0
 59 64  2  0
 64 65  1  0
 20 66  1  0
 66 67  1  0
 66 68  2  0
 68 69  1  0
 69 70  1  0
 70 71  1  0
 71 72  1  0
 57 12  1  0
 58 16  1  0
 68 18  1  0
 50 23  1  0
 64 53  1  0
  2 73  1  0
  2 74  1  0
  2 75  1  0
  6 76  1  0
  6 77  1  0
  6 78  1  0
 10 79  1  0
 10 80  1  0
 10 81  1  0
 11 82  1  0
 11 83  1  0
 14 84  1  0
 14 85  1  0
 15 86  1  0
 15 87  1  0
 15 88  1  0
 17 89  1  0
 21 90  1  0
 24 91  1  0
 27 92  1  0
 27 93  1  0
 28 94  1  0
 28 95  1  0
 30 96  1  0
 30 97  1  0
 31 98  1  0
 31 99  1  0
 33100  1  0
 33101  1  0
 34102  1  0
 34103  1  0
 36104  1  0
 36105  1  0
 36106  1  0
 39107  1  0
 39108  1  0
 40109  1  0
 40110  1  0
 42111  1  0
 42112  1  0
 43113  1  0
 43114  1  0
 45115  1  0
 45116  1  0
 46117  1  0
 46118  1  0
 48119  1  0
 48120  1  0
 48121  1  0
 49122  1  0
 52123  1  0
 56124  1  0
 60125  1  0
 60126  1  0
 61127  1  0
 61128  1  0
 62129  1  0
 62130  1  0
 63131  1  0
 65132  1  0
 65133  1  0
 65134  1  0
 67135  1  0
 67136  1  0
 67137  1  0
 69138  1  0
 69139  1  0
 70140  1  0
 70141  1  0
 71142  1  0
 71143  1  0
 72144  1  0
M  CHG  4   1   3   4  -1   8  -1  58  -1
M  END
$$$$
