@<TRIPOS>MOLECULE
*****
 58 60 0 0 0
SMALL
GASTEIGER

@<TRIPOS>ATOM
      1 C           4.5006    1.3114    0.5481 C.3     1  UNL1       -0.0121
      2 N           4.5365    0.6284   -0.6993 N.3     1  UNL1       -0.2970
      3 C           5.7681    0.6637   -1.4108 C.3     1  UNL1        0.0241
      4 C           6.9212    0.0904   -0.7338 C.ar    1  UNL1       -0.0334
      5 C           7.2229   -1.2377   -0.8876 C.ar    1  UNL1       -0.0573
      6 C           8.2925   -1.8183   -0.2749 C.ar    1  UNL1       -0.0615
      7 C           9.1038   -1.0508    0.5287 C.ar    1  UNL1       -0.0617
      8 C           8.8229    0.2867    0.7003 C.ar    1  UNL1       -0.0615
      9 C           7.7247    0.8602    0.0648 C.ar    1  UNL1       -0.0573
     10 C           3.7919   -0.5858   -0.7802 C.3     1  UNL1        0.0241
     11 C           2.3599   -0.2822   -0.5234 C.ar    1  UNL1       -0.0333
     12 C           1.7719   -0.2979    0.7168 C.ar    1  UNL1       -0.0570
     13 C           0.4124    0.0027    0.8629 C.ar    1  UNL1       -0.0551
     14 C          -0.3815    0.3220   -0.2144 C.ar    1  UNL1       -0.0104
     15 C          -1.8287    0.6393   -0.0351 C.3     1  UNL1        0.1146
     16 O          -2.6043   -0.5371   -0.1332 O.3     1  UNL1       -0.4873
     17 C          -3.9869   -0.4107    0.0105 C.ar    1  UNL1        0.1245
     18 C          -4.8181   -1.5131   -0.0714 C.ar    1  UNL1       -0.0191
     19 C          -6.1867   -1.4212    0.0659 C.ar    1  UNL1       -0.0473
     20 C          -6.7953   -0.1966    0.2957 C.ar    1  UNL1        0.0232
     21 C          -8.1560   -0.0953    0.4333 C.ar    1  UNL1       -0.0048
     22 C          -9.0482   -1.2789    0.3453 C.3     1  UNL1        0.0701
     23 O          -8.9560   -2.0125    1.5351 O.3     1  UNL1       -0.3904
     24 C          -8.7091    1.1468    0.6605 C.ar    1  UNL1        0.0289
     25 C          -7.8204    2.2167    0.7326 C.ar    1  UNL1        0.3376
     26 O          -8.2962    3.3750    0.9409 O.2     1  UNL1       -0.2452
     27 O          -6.5355    2.0652    0.5947 O.2     1  UNL1       -0.4220
     28 C          -5.9539    0.9017    0.3761 C.ar    1  UNL1        0.1429
     29 C          -4.5856    0.8109    0.2391 C.ar    1  UNL1        0.0231
     30 C           0.2070    0.3385   -1.4628 C.ar    1  UNL1       -0.0551
     31 C           1.5451    0.0426   -1.6060 C.ar    1  UNL1       -0.0570
     32 CL          0.6862    0.0000    0.0000 Cl      2  UNL2       -0.1454
     33 H           4.9709    2.3094    0.4017 H       1  UNL1        0.0391
     34 H           4.9454    0.7562    1.3977 H       1  UNL1        0.0391
     35 H           3.4429    1.5080    0.8180 H       1  UNL1        0.0391
     36 H           5.5801    0.2119   -2.4196 H       1  UNL1        0.0476
     37 H           5.9938    1.7402   -1.6305 H       1  UNL1        0.0476
     38 H           6.5975   -1.8552   -1.5139 H       1  UNL1        0.0621
     39 H           8.5361   -2.8670   -0.3924 H       1  UNL1        0.0618
     40 H           9.9546   -1.5187    1.0140 H       1  UNL1        0.0618
     41 H           9.4735    0.8808    1.3384 H       1  UNL1        0.0618
     42 H           7.5475    1.9291    0.2362 H       1  UNL1        0.0621
     43 H           3.8777   -0.9591   -1.8315 H       1  UNL1        0.0476
     44 H           4.1765   -1.3792   -0.0986 H       1  UNL1        0.0476
     45 H           2.3899   -0.5475    1.5631 H       1  UNL1        0.0621
     46 H          -0.0344   -0.0128    1.8353 H       1  UNL1        0.0621
     47 H          -2.0929    1.3345   -0.8650 H       1  UNL1        0.0748
     48 H          -2.0146    1.1400    0.9449 H       1  UNL1        0.0748
     49 H          -4.3982   -2.5080   -0.2514 H       1  UNL1        0.0654
     50 H          -6.8388   -2.2912    0.0013 H       1  UNL1        0.0626
     51 H          -8.7889   -1.9610   -0.4813 H       1  UNL1        0.0607
     52 H         -10.1087   -0.9768    0.2525 H       1  UNL1        0.0607
     53 H          -9.3932   -1.5026    2.2808 H       1  UNL1        0.2098
     54 H          -9.7693    1.2826    0.7756 H       1  UNL1        0.0693
     55 H          -3.9381    1.6703    0.3030 H       1  UNL1        0.0691
     56 H          -0.4237    0.5915   -2.3106 H       1  UNL1        0.0621
     57 H           1.9957    0.0607   -2.6069 H       1  UNL1        0.0621
     58 H          -0.6862    0.0000    0.0000 H       1  UNL1        0.1454
@<TRIPOS>BOND
     1     1     2    1
     2     2     3    1
     3     3     4    1
     4     4     5   ar
     5     5     6   ar
     6     6     7   ar
     7     7     8   ar
     8     8     9   ar
     9     2    10    1
    10    10    11    1
    11    11    12   ar
    12    12    13   ar
    13    13    14   ar
    14    14    15    1
    15    15    16    1
    16    16    17    1
    17    17    18   ar
    18    18    19   ar
    19    19    20   ar
    20    20    21   ar
    21    21    22    1
    22    22    23    1
    23    21    24   ar
    24    24    25   ar
    25    25    26    2
    26    25    27   ar
    27    27    28   ar
    28    28    29   ar
    29    14    30   ar
    30    30    31   ar
    31     9     4   ar
    32    31    11   ar
    33    29    17   ar
    34    28    20   ar
    35     1    33    1
    36     1    34    1
    37     1    35    1
    38     3    36    1
    39     3    37    1
    40     5    38    1
    41     6    39    1
    42     7    40    1
    43     8    41    1
    44     9    42    1
    45    10    43    1
    46    10    44    1
    47    12    45    1
    48    13    46    1
    49    15    47    1
    50    15    48    1
    51    18    49    1
    52    19    50    1
    53    22    51    1
    54    22    52    1
    55    23    53    1
    56    24    54    1
    57    29    55    1
    58    30    56    1
    59    31    57    1
    60    32    58    1
