
     RDKit          3D

 61 63  0  0  0  0  0  0  0  0999 V2000
   -5.7501    4.8908   -0.1495 C   0  0  0  0  0  0  0  0  0  0  0  0
   -5.3171    3.5874    0.1174 O   0  0  0  0  0  0  0  0  0  0  0  0
   -5.6581    2.5949   -0.8644 C   0  0  0  0  0  0  0  0  0  0  0  0
   -5.0437    1.7565   -0.0964 C   0  0  0  0  0  0  0  0  0  0  0  0
   -5.2936    0.5599   -0.9910 C   0  0  0  0  0  0  0  0  0  0  0  0
   -5.9824    0.4509   -2.2500 C   0  0  0  0  0  0  0  0  0  0  0  0
   -6.3917   -0.7901   -3.4437 Cl  0  0  0  0  0  0  0  0  0  0  0  0
   -6.5335    1.6294   -2.7777 C   0  0  0  0  0  0  0  0  0  0  0  0
   -6.3418    2.7580   -2.0121 C   0  0  0  0  0  0  0  0  0  0  0  0
   -4.3642    0.8291    0.7528 C   0  0  0  0  0  0  0  0  0  0  0  0
   -4.1622    1.8837    1.4474 O   0  0  0  0  0  0  0  0  0  0  0  0
   -3.8590   -0.3579    1.2218 N   0  0  0  0  0  0  0  0  0  0  0  0
   -3.1625   -0.1616    2.4926 C   0  0  0  0  0  0  0  0  0  0  0  0
   -2.6720   -1.5109    2.9566 C   0  0  0  0  0  0  0  0  0  0  0  0
   -1.7207   -2.1300    2.0222 C   0  0  0  0  0  0  0  0  0  0  0  0
   -1.9776   -2.9098    0.9340 C   0  0  0  0  0  0  0  0  0  0  0  0
   -0.9639   -3.4350    0.1537 C   0  0  0  0  0  0  0  0  0  0  0  0
    0.3602   -3.1998    0.4339 C   0  0  0  0  0  0  0  0  0  0  0  0
    0.6528   -2.4162    1.5271 C   0  0  0  0  0  0  0  0  0  0  0  0
   -0.3769   -1.8848    2.3145 C   0  0  0  0  0  0  0  0  0  0  0  0
    1.6243   -3.8564   -0.5921 S   0  0  0  0  0  0  0  0  0  0  0  0
    1.0426   -4.8688   -1.5616 O   0  0  0  0  0  0  0  0  0  0  0  0
    2.7564   -4.3805    0.2011 O   0  0  0  0  0  0  0  0  0  0  0  0
    2.1634   -2.5152   -1.5804 N   0  0  0  0  0  0  0  0  0  0  0  0
    3.2665   -1.7913   -1.0549 C   0  0  0  0  0  0  0  0  0  0  0  0
    3.7262   -2.2108    0.0394 O   0  0  0  0  0  0  0  0  0  0  0  0
    3.9447   -0.6573   -1.5668 N   0  0  0  0  0  0  0  0  0  0  0  0
    5.0705   -0.0622   -0.8762 C   0  0  0  0  0  0  0  0  0  0  0  0
    4.7267    1.2597   -0.2588 C   0  0  0  0  0  0  0  0  0  0  0  0
    5.9391    1.8760    0.3543 C   0  0  0  0  0  0  0  0  0  0  0  0
    7.1858    1.0755    0.3978 C   0  0  0  0  0  0  0  0  0  0  0  0
    7.4734    0.2005   -0.7694 C   0  0  0  0  0  0  0  0  0  0  0  0
    6.2775    0.1146   -1.7252 C   0  0  0  0  0  0  0  0  0  0  0  0
   -6.8403    4.8764   -0.4548 H   0  0  0  0  0  0  0  0  0  0  0  0
   -5.7035    5.5062    0.8006 H   0  0  0  0  0  0  0  0  0  0  0  0
   -5.1590    5.3977   -0.9278 H   0  0  0  0  0  0  0  0  0  0  0  0
   -5.1065   -0.5704   -1.0863 H   0  0  0  0  0  0  0  0  0  0  0  0
   -7.0893    1.9752   -3.6316 H   0  0  0  0  0  0  0  0  0  0  0  0
   -6.6260    3.7936   -2.1309 H   0  0  0  0  0  0  0  0  0  0  0  0
   -4.1580   -1.0145    0.4831 H   0  0  0  0  0  0  0  0  0  0  0  0
   -2.3037    0.5266    2.3861 H   0  0  0  0  0  0  0  0  0  0  0  0
   -3.8471    0.2271    3.2726 H   0  0  0  0  0  0  0  0  0  0  0  0
   -2.2441   -1.4330    3.9883 H   0  0  0  0  0  0  0  0  0  0  0  0
   -3.5553   -2.2188    3.0171 H   0  0  0  0  0  0  0  0  0  0  0  0
   -3.0205   -3.0905    0.7263 H   0  0  0  0  0  0  0  0  0  0  0  0
   -1.2895   -4.0431   -0.6826 H   0  0  0  0  0  0  0  0  0  0  0  0
    1.6598   -2.1916    1.8084 H   0  0  0  0  0  0  0  0  0  0  0  0
   -0.0765   -1.2718    3.1631 H   0  0  0  0  0  0  0  0  0  0  0  0
    1.8162   -2.1494   -2.4934 H   0  0  0  0  0  0  0  0  0  0  0  0
    3.5372   -0.3105   -2.4865 H   0  0  0  0  0  0  0  0  0  0  0  0
    5.3134   -0.7396   -0.0330 H   0  0  0  0  0  0  0  0  0  0  0  0
    3.9017    1.0618    0.4853 H   0  0  0  0  0  0  0  0  0  0  0  0
    4.2661    1.9381   -1.0414 H   0  0  0  0  0  0  0  0  0  0  0  0
    5.6613    2.0758    1.4376 H   0  0  0  0  0  0  0  0  0  0  0  0
    6.1076    2.9168   -0.0464 H   0  0  0  0  0  0  0  0  0  0  0  0
    8.0292    1.8403    0.4644 H   0  0  0  0  0  0  0  0  0  0  0  0
    7.3177    0.5177    1.3766 H   0  0  0  0  0  0  0  0  0  0  0  0
    8.3819    0.5162   -1.2892 H   0  0  0  0  0  0  0  0  0  0  0  0
    7.6842   -0.8387   -0.3793 H   0  0  0  0  0  0  0  0  0  0  0  0
    6.2982    1.1134   -2.2472 H   0  0  0  0  0  0  0  0  0  0  0  0
    6.4058   -0.7393   -2.3937 H   0  0  0  0  0  0  0  0  0  0  0  0
  1  2  1  0
  2  3  1  0
  3  4  2  0
  4  5  1  0
  5  6  2  0
  6  7  1  0
  6  8  1  0
  8  9  2  0
  4 10  1  0
 10 11  2  0
 10 12  1  0
 12 13  1  0
 13 14  1  0
 14 15  1  0
 15 16  2  0
 16 17  1  0
 17 18  2  0
 18 19  1  0
 19 20  2  0
 18 21  1  0
 21 22  2  0
 21 23  2  0
 21 24  1  0
 24 25  1  0
 25 26  2  0
 25 27  1  0
 27 28  1  0
 28 29  1  0
 29 30  1  0
 30 31  1  0
 31 32  1  0
 32 33  1  0
  9  3  1  0
 20 15  1  0
 33 28  1  0
  1 34  1  0
  1 35  1  0
  1 36  1  0
  5 37  1  0
  8 38  1  0
  9 39  1  0
 12 40  1  0
 13 41  1  0
 13 42  1  0
 14 43  1  0
 14 44  1  0
 16 45  1  0
 17 46  1  0
 19 47  1  0
 20 48  1  0
 24 49  1  0
 27 50  1  0
 28 51  1  0
 29 52  1  0
 29 53  1  0
 30 54  1  0
 30 55  1  0
 31 56  1  0
 31 57  1  0
 32 58  1  0
 32 59  1  0
 33 60  1  0
 33 61  1  0
M  END
$$$$
