
     RDKit          3D

 52 57  0  0  0  0  0  0  0  0999 V2000
    4.2466   -3.3381   -0.0193 C   0  0  0  0  0  0  0  0  0  0  0  0
    3.5355   -2.0605    0.2564 C   0  0  0  0  0  0  0  0  0  0  0  0
    2.1517   -1.9575    0.0925 C   0  0  0  0  0  0  0  0  0  0  0  0
    1.4824   -0.7873    0.3426 C   0  0  0  0  0  0  0  0  0  0  0  0
    0.0438   -0.6508    0.1908 N   0  0  0  0  0  0  0  0  0  0  0  0
   -0.8401   -1.6912   -0.1732 C   0  0  0  0  0  0  0  0  0  0  0  0
   -0.5618   -2.9062   -0.4710 O   0  0  0  0  0  0  0  0  0  0  0  0
   -2.1939   -1.1568   -0.1618 C   0  0  0  0  0  0  0  0  0  0  0  0
   -3.5297   -1.4461   -0.3450 C   0  0  0  0  0  0  0  0  0  0  0  0
   -4.0844   -2.7618   -0.7392 C   0  0  0  0  0  0  0  0  0  0  0  0
   -4.4606   -3.7520    0.3232 C   0  0  0  0  0  0  0  0  0  0  0  0
   -5.5113   -3.0861   -0.5114 C   0  0  0  0  0  0  0  0  0  0  0  0
   -4.2106   -0.3237   -0.1006 N   0  0  0  0  0  0  0  0  0  0  0  0
   -3.4097    0.6601    0.2244 N   0  0  0  0  0  0  0  0  0  0  0  0
   -3.7096    2.0279    0.5647 C   0  0  0  0  0  0  0  0  0  0  0  0
   -2.1295    0.1539    0.1906 C   0  0  0  0  0  0  0  0  0  0  0  0
   -0.7205    0.5295    0.3771 C   0  0  0  0  0  0  0  0  0  0  0  0
   -0.3306    1.6612   -0.5059 C   0  0  0  0  0  0  0  0  0  0  0  0
   -0.0010    1.4955   -1.8239 C   0  0  0  0  0  0  0  0  0  0  0  0
    0.3357    2.5897   -2.5930 C   0  0  0  0  0  0  0  0  0  0  0  0
    0.3504    3.8646   -2.0657 C   0  0  0  0  0  0  0  0  0  0  0  0
    0.7812    5.2457   -3.0583 Cl  0  0  0  0  0  0  0  0  0  0  0  0
    0.0213    4.0534   -0.7393 C   0  0  0  0  0  0  0  0  0  0  0  0
   -0.3105    2.9410    0.0030 C   0  0  0  0  0  0  0  0  0  0  0  0
    2.2313    0.2913    0.7650 C   0  0  0  0  0  0  0  0  0  0  0  0
    3.5830    0.2219    0.9342 N   0  0  0  0  0  0  0  0  0  0  0  0
    4.5119    1.1104    1.3257 C   0  0  0  0  0  0  0  0  0  0  0  0
    4.2540    2.5301    1.7069 C   0  0  0  0  0  0  0  0  0  0  0  0
    4.7117    2.7898    2.9876 F   0  0  0  0  0  0  0  0  0  0  0  0
    5.0058    3.3181    0.8526 F   0  0  0  0  0  0  0  0  0  0  0  0
    5.7090    0.5055    1.3157 N   0  0  0  0  0  0  0  0  0  0  0  0
    5.5354   -0.7395    0.9253 N   0  0  0  0  0  0  0  0  0  0  0  0
    4.2122   -0.9363    0.6819 C   0  0  0  0  0  0  0  0  0  0  0  0
    5.1538   -3.1973   -0.6089 H   0  0  0  0  0  0  0  0  0  0  0  0
    4.4610   -3.7867    0.9932 H   0  0  0  0  0  0  0  0  0  0  0  0
    3.5128   -4.0391   -0.4881 H   0  0  0  0  0  0  0  0  0  0  0  0
    1.6419   -2.8401   -0.2396 H   0  0  0  0  0  0  0  0  0  0  0  0
   -3.6432   -3.2481   -1.6556 H   0  0  0  0  0  0  0  0  0  0  0  0
   -4.2776   -3.4153    1.3682 H   0  0  0  0  0  0  0  0  0  0  0  0
   -4.2665   -4.8317    0.1588 H   0  0  0  0  0  0  0  0  0  0  0  0
   -6.1928   -2.4244    0.0459 H   0  0  0  0  0  0  0  0  0  0  0  0
   -6.0529   -3.7426   -1.2420 H   0  0  0  0  0  0  0  0  0  0  0  0
   -4.7738    2.1425    0.8379 H   0  0  0  0  0  0  0  0  0  0  0  0
   -3.5121    2.7134   -0.2891 H   0  0  0  0  0  0  0  0  0  0  0  0
   -3.1233    2.3106    1.4677 H   0  0  0  0  0  0  0  0  0  0  0  0
   -0.5821    0.8613    1.4312 H   0  0  0  0  0  0  0  0  0  0  0  0
   -0.0114    0.4970   -2.2407 H   0  0  0  0  0  0  0  0  0  0  0  0
    0.6047    2.4936   -3.6505 H   0  0  0  0  0  0  0  0  0  0  0  0
    0.0240    5.0405   -0.2985 H   0  0  0  0  0  0  0  0  0  0  0  0
   -0.5728    3.0909    1.0601 H   0  0  0  0  0  0  0  0  0  0  0  0
    1.7362    1.2264    0.9757 H   0  0  0  0  0  0  0  0  0  0  0  0
    3.1750    2.7533    1.6214 H   0  0  0  0  0  0  0  0  0  0  0  0
  1  2  1  0
  2  3  2  0
  3  4  1  0
  4  5  1  0
  5  6  1  0
  6  7  2  0
  6  8  1  0
  8  9  1  0
  9 10  1  0
 10 11  1  0
 11 12  1  0
  9 13  2  0
 13 14  1  0
 14 15  1  0
 14 16  1  0
 16 17  1  0
 17 18  1  0
 18 19  2  0
 19 20  1  0
 20 21  2  0
 21 22  1  0
 21 23  1  0
 23 24  2  0
  4 25  2  0
 25 26  1  0
 26 27  1  0
 27 28  1  0
 28 29  1  0
 28 30  1  0
 27 31  2  0
 31 32  1  0
 32 33  2  0
 33  2  1  0
 17  5  1  0
 24 18  1  0
 33 26  1  0
 16  8  2  0
 12 10  1  0
  1 34  1  0
  1 35  1  0
  1 36  1  0
  3 37  1  0
 10 38  1  0
 11 39  1  0
 11 40  1  0
 12 41  1  0
 12 42  1  0
 15 43  1  0
 15 44  1  0
 15 45  1  0
 17 46  1  0
 19 47  1  0
 20 48  1  0
 23 49  1  0
 24 50  1  0
 25 51  1  0
 28 52  1  0
M  END
$$$$
