@<TRIPOS>MOLECULE
*****
 52 57 0 0 0
SMALL
GASTEIGER

@<TRIPOS>ATOM
      1 C           4.2466   -3.3381   -0.0193 C.3     1  UNL1       -0.0361
      2 C           3.5355   -2.0605    0.2564 C.ar    1  UNL1       -0.0041
      3 C           2.1517   -1.9575    0.0925 C.ar    1  UNL1       -0.0324
      4 C           1.4824   -0.7873    0.3426 C.ar    1  UNL1        0.0545
      5 N           0.0438   -0.6508    0.1908 N.am    1  UNL1       -0.2529
      6 C          -0.8401   -1.6912   -0.1732 C.2     1  UNL1        0.2553
      7 O          -0.5618   -2.9062   -0.4710 O.2     1  UNL1       -0.2695
      8 C          -2.1939   -1.1568   -0.1618 C.ar    1  UNL1        0.0834
      9 C          -3.5297   -1.4461   -0.3450 C.ar    1  UNL1        0.0785
     10 C          -4.0844   -2.7618   -0.7392 C.3     1  UNL1        0.0039
     11 C          -4.4606   -3.7520    0.3232 C.3     1  UNL1       -0.0441
     12 C          -5.5113   -3.0861   -0.5114 C.3     1  UNL1       -0.0441
     13 N          -4.2106   -0.3237   -0.1006 N.ar    1  UNL1       -0.1751
     14 N          -3.4097    0.6601    0.2244 N.ar    1  UNL1       -0.2682
     15 C          -3.7096    2.0279    0.5647 C.3     1  UNL1        0.0306
     16 C          -2.1295    0.1539    0.1906 C.ar    1  UNL1        0.0765
     17 C          -0.7205    0.5295    0.3771 C.3     1  UNL1        0.0988
     18 C          -0.3306    1.6612   -0.5059 C.ar    1  UNL1       -0.0207
     19 C          -0.0010    1.4955   -1.8239 C.ar    1  UNL1       -0.0550
     20 C           0.3357    2.5897   -2.5930 C.ar    1  UNL1       -0.0431
     21 C           0.3504    3.8646   -2.0657 C.ar    1  UNL1        0.0410
     22 CL          0.7812    5.2457   -3.0583 Cl      1  UNL1       -0.0835
     23 C           0.0213    4.0534   -0.7393 C.ar    1  UNL1       -0.0431
     24 C          -0.3105    2.9410    0.0030 C.ar    1  UNL1       -0.0550
     25 C           2.2313    0.2913    0.7650 C.ar    1  UNL1        0.0345
     26 N           3.5830    0.2219    0.9342 N.ar    1  UNL1       -0.2798
     27 C           4.5119    1.1104    1.3257 C.ar    1  UNL1        0.2041
     28 C           4.2540    2.5301    1.7069 C.3     1  UNL1        0.2980
     29 F           4.7117    2.7898    2.9876 F       1  UNL1       -0.2005
     30 F           5.0058    3.3181    0.8526 F       1  UNL1       -0.2005
     31 N           5.7090    0.5055    1.3157 N.ar    1  UNL1       -0.1278
     32 N           5.5354   -0.7395    0.9253 N.ar    1  UNL1       -0.1290
     33 C           4.2122   -0.9363    0.6819 C.ar    1  UNL1        0.1642
     34 H           5.1538   -3.1973   -0.6089 H       1  UNL1        0.0279
     35 H           4.4610   -3.7867    0.9932 H       1  UNL1        0.0279
     36 H           3.5128   -4.0391   -0.4881 H       1  UNL1        0.0279
     37 H           1.6419   -2.8401   -0.2396 H       1  UNL1        0.0640
     38 H          -3.6432   -3.2481   -1.6556 H       1  UNL1        0.0365
     39 H          -4.2776   -3.4153    1.3682 H       1  UNL1        0.0272
     40 H          -4.2665   -4.8317    0.1588 H       1  UNL1        0.0272
     41 H          -6.1928   -2.4244    0.0459 H       1  UNL1        0.0272
     42 H          -6.0529   -3.7426   -1.2420 H       1  UNL1        0.0272
     43 H          -4.7738    2.1425    0.8379 H       1  UNL1        0.0473
     44 H          -3.5121    2.7134   -0.2891 H       1  UNL1        0.0473
     45 H          -3.1233    2.3106    1.4677 H       1  UNL1        0.0473
     46 H          -0.5821    0.8613    1.4312 H       1  UNL1        0.0620
     47 H          -0.0114    0.4970   -2.2407 H       1  UNL1        0.0621
     48 H           0.6047    2.4936   -3.6505 H       1  UNL1        0.0632
     49 H           0.0240    5.0405   -0.2985 H       1  UNL1        0.0632
     50 H          -0.5728    3.0909    1.0601 H       1  UNL1        0.0621
     51 H           1.7362    1.2264    0.9757 H       1  UNL1        0.0833
     52 H           3.1750    2.7533    1.6214 H       1  UNL1        0.1105
@<TRIPOS>BOND
     1     1     2    1
     2     2     3   ar
     3     3     4   ar
     4     4     5    1
     5     5     6   am
     6     6     7    2
     7     6     8    1
     8     8     9   ar
     9     9    10    1
    10    10    11    1
    11    11    12    1
    12     9    13   ar
    13    13    14   ar
    14    14    15    1
    15    14    16   ar
    16    16    17    1
    17    17    18    1
    18    18    19   ar
    19    19    20   ar
    20    20    21   ar
    21    21    22    1
    22    21    23   ar
    23    23    24   ar
    24     4    25   ar
    25    25    26   ar
    26    26    27   ar
    27    27    28    1
    28    28    29    1
    29    28    30    1
    30    27    31   ar
    31    31    32   ar
    32    32    33   ar
    33    33     2   ar
    34    17     5    1
    35    24    18   ar
    36    33    26   ar
    37    16     8   ar
    38    12    10    1
    39     1    34    1
    40     1    35    1
    41     1    36    1
    42     3    37    1
    43    10    38    1
    44    11    39    1
    45    11    40    1
    46    12    41    1
    47    12    42    1
    48    15    43    1
    49    15    44    1
    50    15    45    1
    51    17    46    1
    52    19    47    1
    53    20    48    1
    54    23    49    1
    55    24    50    1
    56    25    51    1
    57    28    52    1
