
     RDKit          3D

 40 43  0  0  0  0  0  0  0  0999 V2000
    0.7437    2.0480   -0.7200 O   0  0  0  0  0  0  0  0  0  0  0  0
    0.4729    0.8922   -0.3876 C   0  0  0  0  0  0  0  0  0  0  0  0
    1.5106    0.0094   -0.0732 N   0  0  0  0  0  0  0  0  0  0  0  0
    2.9015    0.2684   -0.0832 C   0  0  0  0  0  0  0  0  0  0  0  0
    3.4793    1.4558   -0.4101 C   0  0  0  0  0  0  0  0  0  0  0  0
    4.8700    1.5953   -0.3843 C   0  0  0  0  0  0  0  0  0  0  0  0
    5.7015    0.5563   -0.0333 C   0  0  0  0  0  0  0  0  0  0  0  0
    7.0795    0.6920   -0.0070 C   0  0  0  0  0  0  0  0  0  0  0  0
    7.9011   -0.3540    0.3456 C   0  0  0  0  0  0  0  0  0  0  0  0
    7.2869   -1.5446    0.6717 C   0  0  0  0  0  0  0  0  0  0  0  0
    5.9519   -1.6612    0.6418 N   0  0  0  0  0  0  0  0  0  0  0  0
    5.1286   -0.6578    0.3018 C   0  0  0  0  0  0  0  0  0  0  0  0
    3.7733   -0.7686    0.2692 C   0  0  0  0  0  0  0  0  0  0  0  0
   -0.9543    0.5345   -0.3499 C   0  0  0  0  0  0  0  0  0  0  0  0
   -1.4092   -0.7120    0.0008 C   0  0  0  0  0  0  0  0  0  0  0  0
   -2.7869   -0.9611    0.0085 C   0  0  0  0  0  0  0  0  0  0  0  0
   -3.7250   -0.0150   -0.3199 C   0  0  0  0  0  0  0  0  0  0  0  0
   -5.1656   -0.2441   -0.3212 C   0  0  0  0  0  0  0  0  0  0  0  0
   -5.9817    0.8331   -0.6828 C   0  0  0  0  0  0  0  0  0  0  0  0
   -7.3521    0.7052   -0.7110 C   0  0  0  0  0  0  0  0  0  0  0  0
   -7.9385   -0.4905   -0.3819 C   0  0  0  0  0  0  0  0  0  0  0  0
   -7.1278   -1.5417   -0.0283 C   0  0  0  0  0  0  0  0  0  0  0  0
   -5.7388   -1.4406    0.0088 C   0  0  0  0  0  0  0  0  0  0  0  0
   -3.2320    1.2024   -0.6600 N   0  0  0  0  0  0  0  0  0  0  0  0
   -1.9188    1.4651   -0.6749 C   0  0  0  0  0  0  0  0  0  0  0  0
    1.1921   -0.9723    0.2049 H   0  0  0  0  0  0  0  0  0  0  0  0
    2.8956    2.3239   -0.6980 H   0  0  0  0  0  0  0  0  0  0  0  0
    5.2897    2.5532   -0.6503 H   0  0  0  0  0  0  0  0  0  0  0  0
    7.5275    1.6294   -0.2655 H   0  0  0  0  0  0  0  0  0  0  0  0
    8.9889   -0.2712    0.3736 H   0  0  0  0  0  0  0  0  0  0  0  0
    7.9435   -2.3710    0.9507 H   0  0  0  0  0  0  0  0  0  0  0  0
    3.3597   -1.7502    0.5426 H   0  0  0  0  0  0  0  0  0  0  0  0
   -0.7295   -1.4966    0.2684 H   0  0  0  0  0  0  0  0  0  0  0  0
   -3.1424   -1.9514    0.2874 H   0  0  0  0  0  0  0  0  0  0  0  0
   -5.5318    1.7923   -0.9479 H   0  0  0  0  0  0  0  0  0  0  0  0
   -7.9794    1.5569   -0.9961 H   0  0  0  0  0  0  0  0  0  0  0  0
   -9.0196   -0.5873   -0.4053 H   0  0  0  0  0  0  0  0  0  0  0  0
   -7.5586   -2.4971    0.2366 H   0  0  0  0  0  0  0  0  0  0  0  0
   -5.1197   -2.2776    0.2891 H   0  0  0  0  0  0  0  0  0  0  0  0
   -1.5860    2.4527   -0.9541 H   0  0  0  0  0  0  0  0  0  0  0  0
  1  2  2  0
  2  3  1  0
  3  4  1  0
  4  5  2  0
  5  6  1  0
  6  7  2  0
  7  8  1  0
  8  9  2  0
  9 10  1  0
 10 11  2  0
 11 12  1  0
 12 13  2  0
  2 14  1  0
 14 15  2  0
 15 16  1  0
 16 17  2  0
 17 18  1  0
 18 19  2  0
 19 20  1  0
 20 21  2  0
 21 22  1  0
 22 23  2  0
 17 24  1  0
 24 25  2  0
 13  4  1  0
 25 14  1  0
 12  7  1  0
 23 18  1  0
  3 26  1  0
  5 27  1  0
  6 28  1  0
  8 29  1  0
  9 30  1  0
 10 31  1  0
 13 32  1  0
 15 33  1  0
 16 34  1  0
 19 35  1  0
 20 36  1  0
 21 37  1  0
 22 38  1  0
 23 39  1  0
 25 40  1  0
M  END
$$$$
