@<TRIPOS>MOLECULE
*****
 40 43 0 0 0
SMALL
GASTEIGER

@<TRIPOS>ATOM
      1 O           0.7437    2.0480   -0.7200 O.2     1  UNL1       -0.2698
      2 C           0.4729    0.8922   -0.3876 C.2     1  UNL1        0.2497
      3 N           1.5106    0.0094   -0.0732 N.am    1  UNL1       -0.2814
      4 C           2.9015    0.2684   -0.0832 C.ar    1  UNL1        0.0357
      5 C           3.4793    1.4558   -0.4101 C.ar    1  UNL1       -0.0398
      6 C           4.8700    1.5953   -0.3843 C.ar    1  UNL1       -0.0508
      7 C           5.7015    0.5563   -0.0333 C.ar    1  UNL1        0.0005
      8 C           7.0795    0.6920   -0.0070 C.ar    1  UNL1       -0.0511
      9 C           7.9011   -0.3540    0.3456 C.ar    1  UNL1       -0.0430
     10 C           7.2869   -1.5446    0.6717 C.ar    1  UNL1        0.0283
     11 N           5.9519   -1.6612    0.6418 N.ar    1  UNL1       -0.2549
     12 C           5.1286   -0.6578    0.3018 C.ar    1  UNL1        0.0727
     13 C           3.7733   -0.7686    0.2692 C.ar    1  UNL1       -0.0145
     14 C          -0.9543    0.5345   -0.3499 C.ar    1  UNL1        0.0551
     15 C          -1.4092   -0.7120    0.0008 C.ar    1  UNL1       -0.0461
     16 C          -2.7869   -0.9611    0.0085 C.ar    1  UNL1       -0.0350
     17 C          -3.7250   -0.0150   -0.3199 C.ar    1  UNL1        0.0710
     18 C          -5.1656   -0.2441   -0.3212 C.ar    1  UNL1        0.0003
     19 C          -5.9817    0.8331   -0.6828 C.ar    1  UNL1       -0.0526
     20 C          -7.3521    0.7052   -0.7110 C.ar    1  UNL1       -0.0611
     21 C          -7.9385   -0.4905   -0.3819 C.ar    1  UNL1       -0.0617
     22 C          -7.1278   -1.5417   -0.0283 C.ar    1  UNL1       -0.0611
     23 C          -5.7388   -1.4406    0.0088 C.ar    1  UNL1       -0.0526
     24 N          -3.2320    1.2024   -0.6600 N.ar    1  UNL1       -0.2542
     25 C          -1.9188    1.4651   -0.6749 C.ar    1  UNL1        0.0404
     26 H           1.1921   -0.9723    0.2049 H       1  UNL1        0.1551
     27 H           2.8956    2.3239   -0.6980 H       1  UNL1        0.0636
     28 H           5.2897    2.5532   -0.6503 H       1  UNL1        0.0625
     29 H           7.5275    1.6294   -0.2655 H       1  UNL1        0.0625
     30 H           8.9889   -0.2712    0.3736 H       1  UNL1        0.0633
     31 H           7.9435   -2.3710    0.9507 H       1  UNL1        0.0830
     32 H           3.3597   -1.7502    0.5426 H       1  UNL1        0.0657
     33 H          -0.7295   -1.4966    0.2684 H       1  UNL1        0.0626
     34 H          -3.1424   -1.9514    0.2874 H       1  UNL1        0.0639
     35 H          -5.5318    1.7923   -0.9479 H       1  UNL1        0.0624
     36 H          -7.9794    1.5569   -0.9961 H       1  UNL1        0.0618
     37 H          -9.0196   -0.5873   -0.4053 H       1  UNL1        0.0618
     38 H          -7.5586   -2.4971    0.2366 H       1  UNL1        0.0618
     39 H          -5.1197   -2.2776    0.2891 H       1  UNL1        0.0624
     40 H          -1.5860    2.4527   -0.9541 H       1  UNL1        0.0837
@<TRIPOS>BOND
     1     1     2    2
     2     2     3   am
     3     3     4    1
     4     4     5   ar
     5     5     6   ar
     6     6     7   ar
     7     7     8   ar
     8     8     9   ar
     9     9    10   ar
    10    10    11   ar
    11    11    12   ar
    12    12    13   ar
    13     2    14    1
    14    14    15   ar
    15    15    16   ar
    16    16    17   ar
    17    17    18    1
    18    18    19   ar
    19    19    20   ar
    20    20    21   ar
    21    21    22   ar
    22    22    23   ar
    23    17    24   ar
    24    24    25   ar
    25    13     4   ar
    26    25    14   ar
    27    12     7   ar
    28    23    18   ar
    29     3    26    1
    30     5    27    1
    31     6    28    1
    32     8    29    1
    33     9    30    1
    34    10    31    1
    35    13    32    1
    36    15    33    1
    37    16    34    1
    38    19    35    1
    39    20    36    1
    40    21    37    1
    41    22    38    1
    42    23    39    1
    43    25    40    1
