@<TRIPOS>MOLECULE
*****
 84 86 0 0 0
SMALL
GASTEIGER

@<TRIPOS>ATOM
      1 C           3.2696    2.2260   -1.6190 C.3     1  UNL1       -0.0549
      2 C           3.0751    0.9041   -0.9069 C.3     1  UNL1        0.0235
      3 C           3.5177   -0.2154   -1.8043 C.3     1  UNL1       -0.0549
      4 C           1.5795    0.7471   -0.6376 C.3     1  UNL1        0.0670
      5 O           1.1235    1.8013    0.1637 O.3     1  UNL1       -0.2857
      6 P          -0.5288    1.5643    0.4199 P.3     1  UNL1        0.4834
      7 O          -0.8692   -0.0836    0.2590 O.3     1  UNL1       -0.3022
      8 O          -0.9305    1.9516    1.8250 O.2     1  UNL1       -0.2269
      9 O          -1.3820    2.4294   -0.7415 O.3     1  UNL1       -0.1861
     10 P          -2.4469    1.4600   -1.6018 P.3     1  UNL1        0.4835
     11 O          -3.8537    2.3516   -1.9302 O.3     1  UNL1       -0.3022
     12 O          -1.8532    0.9921   -2.9242 O.2     1  UNL1       -0.2269
     13 O          -2.9294    0.0845   -0.7306 O.3     1  UNL1       -0.2837
     14 C          -4.2651   -0.1981   -1.0138 C.3     1  UNL1        0.0879
     15 C          -4.6523   -1.4186   -0.2253 C.3     1  UNL1        0.1142
     16 O          -4.5406   -1.3093    1.1300 O.3     1  UNL1       -0.3456
     17 C          -5.7864   -1.6021    1.6967 C.3     1  UNL1        0.1667
     18 C          -6.3812   -2.5846    0.7445 C.3     1  UNL1        0.1294
     19 O          -5.6627   -3.7581    0.8087 O.3     1  UNL1       -0.3846
     20 C          -6.0393   -1.9115   -0.5700 C.3     1  UNL1        0.1283
     21 O          -6.0402   -2.7948   -1.6334 O.3     1  UNL1       -0.2780
     22 P          -7.0026   -2.1203   -2.8508 P.3     1  UNL1        0.4728
     23 O          -6.3793   -2.4550   -4.3850 O.3     1  UNL1       -0.3026
     24 O          -7.0224   -0.4311   -2.6495 O.3     1  UNL1       -0.3026
     25 O          -8.4033   -2.6142   -2.6835 O.2     1  UNL1       -0.2275
     26 N          -6.5016   -0.3741    1.8467 N.ar    1  UNL1       -0.2855
     27 C          -5.8951    0.7871    2.2166 C.ar    1  UNL1        0.1004
     28 N          -6.8298    1.7537    2.2685 N.ar    1  UNL1       -0.2306
     29 C          -8.0119    1.2254    1.9391 C.ar    1  UNL1        0.1473
     30 C          -7.7926   -0.1051    1.6779 C.ar    1  UNL1        0.1674
     31 N          -8.8336   -0.8448    1.3258 N.ar    1  UNL1       -0.2159
     32 C         -10.0681   -0.2878    1.2321 C.ar    1  UNL1        0.1205
     33 N         -10.2775    1.0243    1.4909 N.ar    1  UNL1       -0.2188
     34 C          -9.2587    1.8443    1.8571 C.ar    1  UNL1        0.1472
     35 N          -9.4204    3.2259    2.1402 N.pl3   1  UNL1       -0.3413
     36 C           3.7627    0.9247    0.4309 C.3     1  UNL1        0.1380
     37 O           3.5870   -0.2819    1.0845 O.3     1  UNL1       -0.3820
     38 C           5.2133    1.2377    0.2714 C.2     1  UNL1        0.2423
     39 O           5.5610    2.3022   -0.3038 O.2     1  UNL1       -0.2730
     40 N           6.1833    0.3086    0.7826 N.am    1  UNL1       -0.3127
     41 C           7.5911    0.6077    0.6304 C.3     1  UNL1        0.0199
     42 C           8.3416   -0.5517    1.2650 C.3     1  UNL1        0.0395
     43 C           9.7808   -0.3018    1.1396 C.2     1  UNL1        0.2145
     44 O           9.9374    0.7882    0.5494 O.2     1  UNL1       -0.2758
     45 N          10.8657   -1.0748    1.5667 N.am    1  UNL1       -0.3145
     46 C          12.2944   -0.9904    1.5221 C.3     1  UNL1        0.0204
     47 C          12.8036   -0.9960    0.1221 C.3     1  UNL1        0.0063
     48 S          12.2311    0.3820   -0.8452 S.3     1  UNL1       -0.1767
     49 H           4.1372    2.2104   -2.3044 H       1  UNL1        0.0237
     50 H           2.3618    2.4099   -2.2296 H       1  UNL1        0.0237
     51 H           3.3291    3.0294   -0.8591 H       1  UNL1        0.0237
     52 H           2.6753   -0.6063   -2.4426 H       1  UNL1        0.0237
     53 H           3.9390   -1.0874   -1.2824 H       1  UNL1        0.0237
     54 H           4.2622    0.1916   -2.5442 H       1  UNL1        0.0237
     55 H           0.9888    0.8194   -1.5937 H       1  UNL1        0.0572
     56 H           1.3578   -0.1957   -0.1079 H       1  UNL1        0.0572
     57 H          -0.3524   -0.6042    0.9315 H       1  UNL1        0.2220
     58 H          -4.0079    3.0115   -1.2060 H       1  UNL1        0.2220
     59 H          -4.2845   -0.4842   -2.0860 H       1  UNL1        0.0592
     60 H          -4.8818    0.6882   -0.7711 H       1  UNL1        0.0592
     61 H          -3.9573   -2.2348   -0.5493 H       1  UNL1        0.0647
     62 H          -5.5713   -2.0330    2.6965 H       1  UNL1        0.0866
     63 H          -7.4605   -2.7518    0.8718 H       1  UNL1        0.0666
     64 H          -5.3314   -4.0290   -0.0716 H       1  UNL1        0.2101
     65 H          -6.6490   -1.0095   -0.7706 H       1  UNL1        0.0656
     66 H          -7.0839   -2.2109   -5.0402 H       1  UNL1        0.2220
     67 H          -7.9446   -0.0738   -2.6541 H       1  UNL1        0.2220
     68 H          -4.8414    0.9195    2.4338 H       1  UNL1        0.1030
     69 H         -10.9764   -0.8052    0.9538 H       1  UNL1        0.1048
     70 H          -9.2850    3.7514    1.2564 H       1  UNL1        0.1438
     71 H          -9.6296    3.7895    2.9764 H       1  UNL1        0.1438
     72 H           3.2907    1.7282    1.0225 H       1  UNL1        0.0696
     73 H           3.1171   -0.9653    0.5807 H       1  UNL1        0.2105
     74 H           5.8098   -0.5538    1.2480 H       1  UNL1        0.1488
     75 H           7.8831    0.7168   -0.4235 H       1  UNL1        0.0467
     76 H           7.7985    1.5625    1.1507 H       1  UNL1        0.0467
     77 H           8.0517   -1.4505    0.6946 H       1  UNL1        0.0374
     78 H           7.9875   -0.6563    2.3187 H       1  UNL1        0.0374
     79 H          10.4302   -1.9331    2.0374 H       1  UNL1        0.1487
     80 H          12.5711   -0.0184    2.0202 H       1  UNL1        0.0470
     81 H          12.7024   -1.8092    2.1310 H       1  UNL1        0.0470
     82 H          12.5006   -1.9395   -0.4292 H       1  UNL1        0.0389
     83 H          13.9183   -1.0799    0.1618 H       1  UNL1        0.0389
     84 H          12.2851    0.0846   -2.2202 H       1  UNL1        0.1017
@<TRIPOS>BOND
     1     1     2    1
     2     2     3    1
     3     2     4    1
     4     4     5    1
     5     5     6    1
     6     6     7    1
     7     6     8    2
     8     6     9    1
     9     9    10    1
    10    10    11    1
    11    10    12    2
    12    10    13    1
    13    13    14    1
    14    14    15    1
    15    15    16    1
    16    16    17    1
    17    17    18    1
    18    18    19    1
    19    18    20    1
    20    20    21    1
    21    21    22    1
    22    22    23    1
    23    22    24    1
    24    22    25    2
    25    17    26    1
    26    26    27   ar
    27    27    28   ar
    28    28    29   ar
    29    29    30   ar
    30    30    31   ar
    31    31    32   ar
    32    32    33   ar
    33    33    34   ar
    34    34    35    1
    35     2    36    1
    36    36    37    1
    37    36    38    1
    38    38    39    2
    39    38    40   am
    40    40    41    1
    41    41    42    1
    42    42    43    1
    43    43    44    2
    44    43    45   am
    45    45    46    1
    46    46    47    1
    47    47    48    1
    48    20    15    1
    49    30    26   ar
    50    34    29   ar
    51     1    49    1
    52     1    50    1
    53     1    51    1
    54     3    52    1
    55     3    53    1
    56     3    54    1
    57     4    55    1
    58     4    56    1
    59     7    57    1
    60    11    58    1
    61    14    59    1
    62    14    60    1
    63    15    61    1
    64    17    62    1
    65    18    63    1
    66    19    64    1
    67    20    65    1
    68    23    66    1
    69    24    67    1
    70    27    68    1
    71    32    69    1
    72    35    70    1
    73    35    71    1
    74    36    72    1
    75    37    73    1
    76    40    74    1
    77    41    75    1
    78    41    76    1
    79    42    77    1
    80    42    78    1
    81    45    79    1
    82    46    80    1
    83    46    81    1
    84    47    82    1
    85    47    83    1
    86    48    84    1
