@<TRIPOS>MOLECULE
*****
 41 45 0 0 0
SMALL
GASTEIGER

@<TRIPOS>ATOM
      1 N           1.1406   -2.1793    4.1618 N.1     1  UNL1       -0.1892
      2 C           0.1025   -2.0370    3.6265 C.1     1  UNL1        0.1208
      3 C          -1.1602   -1.8480    2.9953 C.ar    1  UNL1        0.1618
      4 C          -2.3169   -2.5354    3.3161 C.ar    1  UNL1        0.0659
      5 N          -3.2795   -2.0601    2.4864 N.ar    1  UNL1       -0.2333
      6 C          -2.7207   -1.1223    1.6976 C.ar    1  UNL1        0.1555
      7 C          -3.3127   -0.3659    0.7014 C.ar    1  UNL1       -0.0153
      8 C          -2.4890    0.5305    0.0462 C.ar    1  UNL1       -0.0290
      9 C          -1.1528    0.6772    0.3537 C.ar    1  UNL1        0.1103
     10 C          -0.3396    1.6431   -0.3739 C.ar    1  UNL1        0.0968
     11 C           0.7769    1.2989   -1.1424 C.ar    1  UNL1        0.0983
     12 C           1.2646   -0.0727   -1.3207 C.ar    1  UNL1        0.0062
     13 C           0.5158   -1.0233   -1.9860 C.ar    1  UNL1       -0.0488
     14 C           0.9720   -2.3141   -2.1539 C.ar    1  UNL1       -0.0155
     15 C           2.2018   -2.6936   -1.6565 C.ar    1  UNL1        0.1663
     16 C           2.9759   -1.7660   -0.9856 C.ar    1  UNL1        0.1669
     17 C           2.4896   -0.4822   -0.8348 C.ar    1  UNL1       -0.0069
     18 O           4.1558   -2.4109   -0.5943 O.3     1  UNL1       -0.4526
     19 C           4.0792   -3.7769   -0.8805 C.3     1  UNL1        0.2332
     20 O           2.9150   -3.8834   -1.6657 O.3     1  UNL1       -0.4526
     21 N           1.2636    2.4451   -1.6515 N.ar    1  UNL1       -0.2351
     22 C           0.5150    3.4669   -1.2425 C.ar    1  UNL1        0.0973
     23 N          -0.4756    2.9784   -0.4542 N.ar    1  UNL1       -0.3229
     24 C          -1.5075    3.7674    0.1953 C.3     1  UNL1        0.0852
     25 C          -0.9792    4.1830    1.5749 C.3     1  UNL1        0.2569
     26 F          -0.6867    3.0797    2.3464 F       1  UNL1       -0.2073
     27 F           0.1508    4.9575    1.3226 F       1  UNL1       -0.2073
     28 N          -0.6638   -0.0939    1.3303 N.ar    1  UNL1       -0.1623
     29 N          -1.4154   -0.9675    1.9860 N.ar    1  UNL1       -0.2023
     30 H          -2.4712   -3.3033    4.0655 H       1  UNL1        0.0859
     31 H          -4.3566   -0.4555    0.4338 H       1  UNL1        0.0655
     32 H          -2.9751    1.1156   -0.7366 H       1  UNL1        0.0641
     33 H          -0.4581   -0.6916   -2.3717 H       1  UNL1        0.0625
     34 H           0.3649   -3.0546   -2.6840 H       1  UNL1        0.0655
     35 H           3.0770    0.2693   -0.3112 H       1  UNL1        0.0662
     36 H           3.9791   -4.3166    0.0993 H       1  UNL1        0.1166
     37 H           4.9906   -4.1452   -1.4097 H       1  UNL1        0.1166
     38 H           0.6954    4.5036   -1.5142 H       1  UNL1        0.1029
     39 H          -2.4046    3.1403    0.4128 H       1  UNL1        0.0548
     40 H          -1.7472    4.6804   -0.3540 H       1  UNL1        0.0548
     41 H          -1.7138    4.8624    2.0410 H       1  UNL1        0.1037
@<TRIPOS>BOND
     1     1     2    3
     2     2     3    1
     3     3     4   ar
     4     4     5   ar
     5     5     6   ar
     6     6     7   ar
     7     7     8   ar
     8     8     9   ar
     9     9    10    1
    10    10    11   ar
    11    11    12    1
    12    12    13   ar
    13    13    14   ar
    14    14    15   ar
    15    15    16   ar
    16    16    17   ar
    17    16    18    1
    18    18    19    1
    19    19    20    1
    20    11    21   ar
    21    21    22   ar
    22    22    23   ar
    23    23    24    1
    24    24    25    1
    25    25    26    1
    26    25    27    1
    27     9    28   ar
    28    28    29   ar
    29    29     3   ar
    30    29     6   ar
    31    23    10   ar
    32    17    12   ar
    33    20    15    1
    34     4    30    1
    35     7    31    1
    36     8    32    1
    37    13    33    1
    38    14    34    1
    39    17    35    1
    40    19    36    1
    41    19    37    1
    42    22    38    1
    43    24    39    1
    44    24    40    1
    45    25    41    1
