@<TRIPOS>MOLECULE
*****
 60 63 0 0 0
SMALL
GASTEIGER

@<TRIPOS>ATOM
      1 C           0.6614    0.4406   -0.8599 C.3     1  UNL1       -0.0045
      2 C           2.0352   -0.1453   -0.6488 C.3     1  UNL1       -0.0181
      3 C           2.9142    0.6305    0.2367 C.ar    1  UNL1       -0.0115
      4 C           2.7096    1.7298    1.0289 C.ar    1  UNL1        0.0683
      5 C           3.6865    2.3120    1.8035 C.ar    1  UNL1        0.1280
      6 O           3.3197    3.4167    2.5470 O.3     1  UNL1       -0.5060
      7 C           4.9460    1.7944    1.8107 C.ar    1  UNL1       -0.0177
      8 C           5.2026    0.6810    1.0241 C.ar    1  UNL1       -0.0369
      9 C           4.2085    0.0936    0.2399 C.ar    1  UNL1        0.0333
     10 N           4.6852   -1.0435   -0.4925 N.pl3   1  UNL1       -0.3358
     11 C           4.3516   -2.4385   -0.5417 C.3     1  UNL1        0.0004
     12 C           5.7660   -0.7883   -1.4276 C.3     1  UNL1        0.0004
     13 C           1.3471    2.2429    0.9747 C.2     1  UNL1        0.1965
     14 O           0.9917    3.2357    1.6341 O.2     1  UNL1       -0.2867
     15 C           0.4355    1.5183    0.1016 C.2     1  UNL1        0.0438
     16 C          -0.8635    1.7994    0.0786 C.2     1  UNL1        0.1406
     17 O          -1.2504    2.8309    0.9616 O.2     1  UNL1       -0.5073
     18 C          -1.8893    1.1245   -0.7825 C.3     1  UNL1        0.1898
     19 O          -1.6048    1.6126   -2.0904 O.3     1  UNL1       -0.3732
     20 C          -3.2080    1.6564   -0.3749 C.2     1  UNL1        0.2105
     21 O          -3.2024    2.9215   -0.3557 O.2     1  UNL1       -0.2882
     22 C          -4.3563    0.8409   -0.0411 C.2     1  UNL1        0.1208
     23 C          -5.6514    1.4184    0.0660 C.2     1  UNL1        0.2483
     24 N          -5.8443    2.7925   -0.1493 N.am    1  UNL1       -0.3252
     25 O          -6.7356    0.8423    0.3461 O.2     1  UNL1       -0.2702
     26 C          -3.9895   -0.4041    0.1233 C.2     1  UNL1        0.1270
     27 O          -5.1415   -1.1544    0.4455 O.2     1  UNL1       -0.5086
     28 C          -2.6635   -1.1096    0.0340 C.3     1  UNL1        0.0746
     29 N          -2.8825   -2.4920   -0.3223 N.3     1  UNL1       -0.2985
     30 C          -3.7359   -3.1542    0.6811 C.3     1  UNL1       -0.0124
     31 C          -1.7179   -3.3119   -0.4036 C.3     1  UNL1       -0.0124
     32 C          -1.7577   -0.3456   -0.8613 C.3     1  UNL1        0.0255
     33 C          -0.3234   -0.7019   -0.5691 C.3     1  UNL1       -0.0375
     34 H           0.5250    0.7889   -1.9090 H       1  UNL1        0.0354
     35 H           1.9129   -1.1423   -0.1625 H       1  UNL1        0.0320
     36 H           2.4947   -0.2505   -1.6613 H       1  UNL1        0.0320
     37 H           2.8030    3.3676    3.4145 H       1  UNL1        0.2922
     38 H           5.7307    2.2443    2.4181 H       1  UNL1        0.0655
     39 H           6.2288    0.3164    1.0746 H       1  UNL1        0.0637
     40 H           5.2570   -3.0806   -0.4260 H       1  UNL1        0.0428
     41 H           3.6392   -2.7577    0.2363 H       1  UNL1        0.0428
     42 H           3.8743   -2.6679   -1.5153 H       1  UNL1        0.0428
     43 H           6.7029   -1.2792   -1.0719 H       1  UNL1        0.0428
     44 H           5.9815    0.2877   -1.5705 H       1  UNL1        0.0428
     45 H           5.4803   -1.1605   -2.4465 H       1  UNL1        0.0428
     46 H          -1.1224    3.8128    0.7400 H       1  UNL1        0.2918
     47 H          -1.9901    2.5185   -2.0957 H       1  UNL1        0.2113
     48 H          -6.0467    3.5536   -0.8461 H       1  UNL1        0.1453
     49 H          -5.7278    3.1764    0.8208 H       1  UNL1        0.1453
     50 H          -5.8410   -1.3619   -0.2458 H       1  UNL1        0.2918
     51 H          -2.1994   -1.1152    1.0549 H       1  UNL1        0.0547
     52 H          -3.2950   -4.1472    0.9966 H       1  UNL1        0.0391
     53 H          -4.7261   -3.4208    0.2872 H       1  UNL1        0.0391
     54 H          -3.7216   -2.5592    1.6053 H       1  UNL1        0.0391
     55 H          -1.3763   -3.3658   -1.4765 H       1  UNL1        0.0391
     56 H          -0.8990   -3.1006    0.2715 H       1  UNL1        0.0391
     57 H          -1.9816   -4.4037   -0.1741 H       1  UNL1        0.0391
     58 H          -1.9397   -0.7327   -1.9150 H       1  UNL1        0.0357
     59 H           0.0269   -1.5214   -1.1973 H       1  UNL1        0.0276
     60 H          -0.2334   -0.8449    0.5227 H       1  UNL1        0.0276
@<TRIPOS>BOND
     1     1     2    1
     2     2     3    1
     3     3     4   ar
     4     4     5   ar
     5     5     6    1
     6     5     7   ar
     7     7     8   ar
     8     8     9   ar
     9     9    10    1
    10    10    11    1
    11    10    12    1
    12     4    13    1
    13    13    14    2
    14    13    15    1
    15    15    16    2
    16    16    17    1
    17    16    18    1
    18    18    19    1
    19    18    20    1
    20    20    21    2
    21    20    22    1
    22    22    23    1
    23    23    24   am
    24    23    25    2
    25    22    26    2
    26    26    27    1
    27    26    28    1
    28    28    29    1
    29    29    30    1
    30    29    31    1
    31    28    32    1
    32    32    33    1
    33    15     1    1
    34    32    18    1
    35    33     1    1
    36     9     3   ar
    37     1    34    1
    38     2    35    1
    39     2    36    1
    40     6    37    1
    41     7    38    1
    42     8    39    1
    43    11    40    1
    44    11    41    1
    45    11    42    1
    46    12    43    1
    47    12    44    1
    48    12    45    1
    49    17    46    1
    50    19    47    1
    51    24    48    1
    52    24    49    1
    53    27    50    1
    54    28    51    1
    55    30    52    1
    56    30    53    1
    57    30    54    1
    58    31    55    1
    59    31    56    1
    60    31    57    1
    61    32    58    1
    62    33    59    1
    63    33    60    1
