@<TRIPOS>MOLECULE
*****
 45 47 0 0 0
SMALL
GASTEIGER

@<TRIPOS>ATOM
      1 C          -5.5203    2.8959    0.9889 C.3     1  UNL1        0.0788
      2 O          -4.6170    1.8331    1.1192 O.3     1  UNL1       -0.4951
      3 C          -4.5900    0.7360    0.2778 C.ar    1  UNL1        0.1204
      4 C          -5.4580    0.5811   -0.7817 C.ar    1  UNL1       -0.0199
      5 C          -5.4008   -0.5374   -1.6071 C.ar    1  UNL1       -0.0580
      6 C          -4.4609   -1.5143   -1.3678 C.ar    1  UNL1       -0.0568
      7 C          -3.6002   -1.3562   -0.3139 C.ar    1  UNL1       -0.0266
      8 C          -2.5900   -2.4052   -0.0478 C.3     1  UNL1        0.0410
      9 N          -1.3506   -2.2278   -0.7339 N.am    1  UNL1       -0.2841
     10 C          -1.1406   -2.7890   -2.0542 C.3     1  UNL1        0.0050
     11 C          -0.2492   -1.4925   -0.1624 C.2     1  UNL1        0.3065
     12 O          -0.3998   -0.9989    0.9757 O.2     1  UNL1       -0.2523
     13 N           0.9692   -1.3154   -0.8330 N.am    1  UNL1       -0.2693
     14 C           2.1115   -0.6141   -0.3654 C.ar    1  UNL1        0.0348
     15 C           3.2421   -0.5509   -1.1939 C.ar    1  UNL1       -0.0399
     16 C           4.3984    0.0835   -0.8734 C.ar    1  UNL1       -0.0522
     17 C           4.4903    0.7227    0.3592 C.ar    1  UNL1       -0.0148
     18 C           5.7109    1.4170    0.7491 C.ar    1  UNL1        0.0193
     19 C           7.0128    1.1095    0.4099 C.ar    1  UNL1        0.0568
     20 N           7.8408    2.0033    0.9801 N.ar    1  UNL1       -0.1817
     21 N           7.1029    2.8645    1.6679 N.ar    1  UNL1       -0.2841
     22 C           5.8144    2.5528    1.5592 C.ar    1  UNL1        0.0300
     23 C           3.4072    0.6899    1.2093 C.ar    1  UNL1       -0.0522
     24 C           2.2315    0.0205    0.8335 C.ar    1  UNL1       -0.0399
     25 C          -3.6337   -0.2436    0.5327 C.ar    1  UNL1       -0.0153
     26 H          -5.3913    3.5697    1.8633 H       1  UNL1        0.0660
     27 H          -5.4523    3.4331    0.0334 H       1  UNL1        0.0660
     28 H          -6.5635    2.4687    1.0196 H       1  UNL1        0.0660
     29 H          -6.1816    1.3783   -0.9314 H       1  UNL1        0.0654
     30 H          -6.0923   -0.6259   -2.4235 H       1  UNL1        0.0619
     31 H          -4.3686   -2.4102   -1.9788 H       1  UNL1        0.0621
     32 H          -2.3653   -2.4458    1.0462 H       1  UNL1        0.0514
     33 H          -3.0276   -3.3751   -0.3480 H       1  UNL1        0.0514
     34 H          -0.2350   -3.4575   -1.9582 H       1  UNL1        0.0429
     35 H          -0.8555   -1.9958   -2.7731 H       1  UNL1        0.0429
     36 H          -2.0017   -3.3907   -2.3908 H       1  UNL1        0.0429
     37 H           1.0055   -1.7726   -1.7997 H       1  UNL1        0.1564
     38 H           3.1580   -1.0538   -2.1544 H       1  UNL1        0.0636
     39 H           5.2453    0.1014   -1.5558 H       1  UNL1        0.0624
     40 H           7.2888    0.2674   -0.2226 H       1  UNL1        0.0854
     41 H           7.5536    3.6579    2.2001 H       1  UNL1        0.1882
     42 H           4.9990    3.0832    2.0154 H       1  UNL1        0.0830
     43 H           3.4995    1.1921    2.1598 H       1  UNL1        0.0624
     44 H           1.4237    0.0273    1.5319 H       1  UNL1        0.0636
     45 H          -2.9598   -0.1167    1.3631 H       1  UNL1        0.0657
@<TRIPOS>BOND
     1     1     2    1
     2     2     3    1
     3     3     4   ar
     4     4     5   ar
     5     5     6   ar
     6     6     7   ar
     7     7     8    1
     8     8     9    1
     9     9    10    1
    10     9    11   am
    11    11    12    2
    12    11    13   am
    13    13    14    1
    14    14    15   ar
    15    15    16   ar
    16    16    17   ar
    17    17    18    1
    18    18    19   ar
    19    19    20   ar
    20    20    21   ar
    21    21    22   ar
    22    17    23   ar
    23    23    24   ar
    24     7    25   ar
    25    25     3   ar
    26    24    14   ar
    27    22    18   ar
    28     1    26    1
    29     1    27    1
    30     1    28    1
    31     4    29    1
    32     5    30    1
    33     6    31    1
    34     8    32    1
    35     8    33    1
    36    10    34    1
    37    10    35    1
    38    10    36    1
    39    13    37    1
    40    15    38    1
    41    16    39    1
    42    19    40    1
    43    21    41    1
    44    22    42    1
    45    23    43    1
    46    24    44    1
    47    25    45    1
