
     RDKit          3D

 45 47  0  0  0  0  0  0  0  0999 V2000
   -5.5203    2.8959    0.9889 C   0  0  0  0  0  0  0  0  0  0  0  0
   -4.6170    1.8331    1.1192 O   0  0  0  0  0  0  0  0  0  0  0  0
   -4.5900    0.7360    0.2778 C   0  0  0  0  0  0  0  0  0  0  0  0
   -5.4580    0.5811   -0.7817 C   0  0  0  0  0  0  0  0  0  0  0  0
   -5.4008   -0.5374   -1.6071 C   0  0  0  0  0  0  0  0  0  0  0  0
   -4.4609   -1.5143   -1.3678 C   0  0  0  0  0  0  0  0  0  0  0  0
   -3.6002   -1.3562   -0.3139 C   0  0  0  0  0  0  0  0  0  0  0  0
   -2.5900   -2.4052   -0.0478 C   0  0  0  0  0  0  0  0  0  0  0  0
   -1.3506   -2.2278   -0.7339 N   0  0  0  0  0  0  0  0  0  0  0  0
   -1.1406   -2.7890   -2.0542 C   0  0  0  0  0  0  0  0  0  0  0  0
   -0.2492   -1.4925   -0.1624 C   0  0  0  0  0  0  0  0  0  0  0  0
   -0.3998   -0.9989    0.9757 O   0  0  0  0  0  0  0  0  0  0  0  0
    0.9692   -1.3154   -0.8330 N   0  0  0  0  0  0  0  0  0  0  0  0
    2.1115   -0.6141   -0.3654 C   0  0  0  0  0  0  0  0  0  0  0  0
    3.2421   -0.5509   -1.1939 C   0  0  0  0  0  0  0  0  0  0  0  0
    4.3984    0.0835   -0.8734 C   0  0  0  0  0  0  0  0  0  0  0  0
    4.4903    0.7227    0.3592 C   0  0  0  0  0  0  0  0  0  0  0  0
    5.7109    1.4170    0.7491 C   0  0  0  0  0  0  0  0  0  0  0  0
    7.0128    1.1095    0.4099 C   0  0  0  0  0  0  0  0  0  0  0  0
    7.8408    2.0033    0.9801 N   0  0  0  0  0  0  0  0  0  0  0  0
    7.1029    2.8645    1.6679 N   0  0  0  0  0  0  0  0  0  0  0  0
    5.8144    2.5528    1.5592 C   0  0  0  0  0  0  0  0  0  0  0  0
    3.4072    0.6899    1.2093 C   0  0  0  0  0  0  0  0  0  0  0  0
    2.2315    0.0205    0.8335 C   0  0  0  0  0  0  0  0  0  0  0  0
   -3.6337   -0.2436    0.5327 C   0  0  0  0  0  0  0  0  0  0  0  0
   -5.3913    3.5697    1.8633 H   0  0  0  0  0  0  0  0  0  0  0  0
   -5.4523    3.4331    0.0334 H   0  0  0  0  0  0  0  0  0  0  0  0
   -6.5635    2.4687    1.0196 H   0  0  0  0  0  0  0  0  0  0  0  0
   -6.1816    1.3783   -0.9314 H   0  0  0  0  0  0  0  0  0  0  0  0
   -6.0923   -0.6259   -2.4235 H   0  0  0  0  0  0  0  0  0  0  0  0
   -4.3686   -2.4102   -1.9788 H   0  0  0  0  0  0  0  0  0  0  0  0
   -2.3653   -2.4458    1.0462 H   0  0  0  0  0  0  0  0  0  0  0  0
   -3.0276   -3.3751   -0.3480 H   0  0  0  0  0  0  0  0  0  0  0  0
   -0.2350   -3.4575   -1.9582 H   0  0  0  0  0  0  0  0  0  0  0  0
   -0.8555   -1.9958   -2.7731 H   0  0  0  0  0  0  0  0  0  0  0  0
   -2.0017   -3.3907   -2.3908 H   0  0  0  0  0  0  0  0  0  0  0  0
    1.0055   -1.7726   -1.7997 H   0  0  0  0  0  0  0  0  0  0  0  0
    3.1580   -1.0538   -2.1544 H   0  0  0  0  0  0  0  0  0  0  0  0
    5.2453    0.1014   -1.5558 H   0  0  0  0  0  0  0  0  0  0  0  0
    7.2888    0.2674   -0.2226 H   0  0  0  0  0  0  0  0  0  0  0  0
    7.5536    3.6579    2.2001 H   0  0  0  0  0  0  0  0  0  0  0  0
    4.9990    3.0832    2.0154 H   0  0  0  0  0  0  0  0  0  0  0  0
    3.4995    1.1921    2.1598 H   0  0  0  0  0  0  0  0  0  0  0  0
    1.4237    0.0273    1.5319 H   0  0  0  0  0  0  0  0  0  0  0  0
   -2.9598   -0.1167    1.3631 H   0  0  0  0  0  0  0  0  0  0  0  0
  1  2  1  0
  2  3  1  0
  3  4  2  0
  4  5  1  0
  5  6  2  0
  6  7  1  0
  7  8  1  0
  8  9  1  0
  9 10  1  0
  9 11  1  0
 11 12  2  0
 11 13  1  0
 13 14  1  0
 14 15  2  0
 15 16  1  0
 16 17  2  0
 17 18  1  0
 18 19  1  0
 19 20  2  0
 20 21  1  0
 21 22  1  0
 17 23  1  0
 23 24  2  0
  7 25  2  0
 25  3  1  0
 24 14  1  0
 22 18  2  0
  1 26  1  0
  1 27  1  0
  1 28  1  0
  4 29  1  0
  5 30  1  0
  6 31  1  0
  8 32  1  0
  8 33  1  0
 10 34  1  0
 10 35  1  0
 10 36  1  0
 13 37  1  0
 15 38  1  0
 16 39  1  0
 19 40  1  0
 21 41  1  0
 22 42  1  0
 23 43  1  0
 24 44  1  0
 25 45  1  0
M  END
$$$$
