@<TRIPOS>MOLECULE
*****
 42 44 0 0 0
SMALL
GASTEIGER

@<TRIPOS>ATOM
      1 O          -2.1480   -1.6706   -1.5566 O.2     1  UNL1       -0.2921
      2 C          -2.4048   -0.5995   -0.9268 C.2     1  UNL1        0.1634
      3 C          -1.3915    0.4390   -0.7675 C.3     1  UNL1        0.0134
      4 C          -0.4600    0.1904    0.4296 C.3     1  UNL1       -0.0317
      5 C           0.4919    1.3172    0.4457 C.3     1  UNL1       -0.0369
      6 C           1.9002    1.0186    0.8843 C.3     1  UNL1       -0.0008
      7 N           2.3165   -0.2120    0.4114 N.3     1  UNL1       -0.3020
      8 C           3.3808   -0.4109   -0.4527 C.3     1  UNL1        0.0017
      9 C           4.7333   -0.1656    0.1443 C.3     1  UNL1       -0.0282
     10 C           5.2299    1.0801    0.6997 C.3     1  UNL1       -0.0488
     11 C           5.7232    0.6168   -0.6784 C.3     1  UNL1       -0.0488
     12 C           1.5138   -1.3436    0.7523 C.3     1  UNL1       -0.0008
     13 C           0.0689   -1.1900    0.3946 C.3     1  UNL1       -0.0369
     14 C          -3.7424   -0.4642   -0.3824 C.ar    1  UNL1        0.0176
     15 C          -4.1155    0.6503    0.3357 C.ar    1  UNL1       -0.0486
     16 C          -5.3790    0.7935    0.8459 C.ar    1  UNL1       -0.0258
     17 C          -6.3403   -0.1746    0.6632 C.ar    1  UNL1        0.1234
     18 F          -7.6104   -0.0541    1.1597 F       1  UNL1       -0.2055
     19 C          -5.9862   -1.2986   -0.0535 C.ar    1  UNL1       -0.0258
     20 C          -4.7123   -1.4358   -0.5639 C.ar    1  UNL1       -0.0486
     21 H          -1.8068    1.4709   -0.7197 H       1  UNL1        0.0348
     22 H          -0.6869    0.4540   -1.6503 H       1  UNL1        0.0348
     23 H          -1.1609    0.3270    1.3116 H       1  UNL1        0.0306
     24 H           0.1338    2.1378    1.1396 H       1  UNL1        0.0280
     25 H           0.5239    1.8376   -0.5465 H       1  UNL1        0.0280
     26 H           1.9963    1.1753    1.9903 H       1  UNL1        0.0427
     27 H           2.5219    1.8448    0.4460 H       1  UNL1        0.0427
     28 H           3.3787   -1.4886   -0.8115 H       1  UNL1        0.0429
     29 H           3.2721    0.1520   -1.4237 H       1  UNL1        0.0429
     30 H           5.1904   -1.1027    0.5909 H       1  UNL1        0.0313
     31 H           4.7823    2.0702    0.6607 H       1  UNL1        0.0268
     32 H           6.0151    1.0143    1.5172 H       1  UNL1        0.0268
     33 H           6.7799    0.3263   -0.7381 H       1  UNL1        0.0268
     34 H           5.2884    1.1121   -1.5712 H       1  UNL1        0.0268
     35 H           1.6039   -1.4850    1.8482 H       1  UNL1        0.0427
     36 H           1.9575   -2.2408    0.2822 H       1  UNL1        0.0427
     37 H          -0.0432   -1.6117   -0.6403 H       1  UNL1        0.0280
     38 H          -0.5672   -1.8315    1.0355 H       1  UNL1        0.0280
     39 H          -3.4194    1.4529    0.5228 H       1  UNL1        0.0625
     40 H          -5.6409    1.6842    1.4075 H       1  UNL1        0.0646
     41 H          -6.7550   -2.0601   -0.1945 H       1  UNL1        0.0646
     42 H          -4.4319   -2.3257   -1.1348 H       1  UNL1        0.0625
@<TRIPOS>BOND
     1     1     2    2
     2     2     3    1
     3     3     4    1
     4     4     5    1
     5     5     6    1
     6     6     7    1
     7     7     8    1
     8     8     9    1
     9     9    10    1
    10    10    11    1
    11     7    12    1
    12    12    13    1
    13     2    14    1
    14    14    15   ar
    15    15    16   ar
    16    16    17   ar
    17    17    18    1
    18    17    19   ar
    19    19    20   ar
    20    13     4    1
    21    20    14   ar
    22    11     9    1
    23     3    21    1
    24     3    22    1
    25     4    23    1
    26     5    24    1
    27     5    25    1
    28     6    26    1
    29     6    27    1
    30     8    28    1
    31     8    29    1
    32     9    30    1
    33    10    31    1
    34    10    32    1
    35    11    33    1
    36    11    34    1
    37    12    35    1
    38    12    36    1
    39    13    37    1
    40    13    38    1
    41    15    39    1
    42    16    40    1
    43    19    41    1
    44    20    42    1
