
     RDKit          3D

 66 70  0  0  0  0  0  0  0  0999 V2000
   10.6331    3.0646   -0.7444 C   0  0  0  0  0  0  0  0  0  0  0  0
   10.4665    1.7409   -0.2928 O   0  0  0  0  0  0  0  0  0  0  0  0
    9.1897    1.1967   -0.1414 C   0  0  0  0  0  0  0  0  0  0  0  0
    9.0466   -0.1198    0.3077 C   0  0  0  0  0  0  0  0  0  0  0  0
    7.8101   -0.7030    0.4734 C   0  0  0  0  0  0  0  0  0  0  0  0
    6.6664   -0.0043    0.1999 C   0  0  0  0  0  0  0  0  0  0  0  0
    5.3457   -0.5627    0.3505 N   0  0  0  0  0  0  0  0  0  0  0  0
    4.0473   -0.0743    0.1420 C   0  0  0  0  0  0  0  0  0  0  0  0
    3.6008    0.9361   -0.4593 O   0  0  0  0  0  0  0  0  0  0  0  0
    3.4676   -1.1681    0.8738 C   0  0  1  0  0  0  0  0  0  0  0  0
    2.4071   -1.9913    0.2333 C   0  0  0  0  0  0  0  0  0  0  0  0
    1.1951   -1.3152   -0.1694 C   0  0  0  0  0  0  0  0  0  0  0  0
    1.1577   -0.7769   -1.4639 C   0  0  0  0  0  0  0  0  0  0  0  0
    0.0332   -0.1266   -1.9047 C   0  0  0  0  0  0  0  0  0  0  0  0
   -1.1040    0.0153   -1.0734 C   0  0  0  0  0  0  0  0  0  0  0  0
   -2.1918    0.6729   -1.5587 O   0  0  0  0  0  0  0  0  0  0  0  0
   -3.3867    0.8641   -0.9136 C   0  0  0  0  0  0  0  0  0  0  0  0
   -4.1653   -0.4044   -0.6541 C   0  0  0  0  0  0  0  0  0  0  0  0
   -5.4315   -0.0696    0.0567 C   0  0  0  0  0  0  0  0  0  0  0  0
   -6.6685   -0.0112   -0.4643 N   0  0  0  0  0  0  0  0  0  0  0  0
   -7.5272    0.3289    0.5121 C   0  0  0  0  0  0  0  0  0  0  0  0
   -8.9694    0.4982    0.3581 C   0  0  0  0  0  0  0  0  0  0  0  0
   -9.7732    0.8507    1.4149 C   0  0  0  0  0  0  0  0  0  0  0  0
  -11.1354    1.0027    1.2468 C   0  0  0  0  0  0  0  0  0  0  0  0
  -11.7423    0.8077    0.0155 C   0  0  0  0  0  0  0  0  0  0  0  0
  -10.9337    0.4550   -1.0391 C   0  0  0  0  0  0  0  0  0  0  0  0
   -9.5587    0.3007   -0.8724 C   0  0  0  0  0  0  0  0  0  0  0  0
   -6.8195    0.4735    1.6043 O   0  0  0  0  0  0  0  0  0  0  0  0
   -5.5382    0.2425    1.3835 C   0  0  0  0  0  0  0  0  0  0  0  0
   -4.4337    0.3138    2.4032 C   0  0  0  0  0  0  0  0  0  0  0  0
   -1.0379   -0.5203    0.1885 C   0  0  0  0  0  0  0  0  0  0  0  0
    0.1024   -1.1885    0.6557 C   0  0  0  0  0  0  0  0  0  0  0  0
    4.8110   -1.8229    0.7605 C   0  0  1  0  0  0  0  0  0  0  0  0
    4.8720   -2.8749   -0.3053 C   0  0  0  0  0  0  0  0  0  0  0  0
    4.4517   -4.0242   -0.0239 O   0  0  0  0  0  0  0  0  0  0  0  0
    5.3617   -2.6485   -1.5691 O   0  0  0  0  0  0  0  0  0  0  0  0
    6.8185    1.2978   -0.2442 C   0  0  0  0  0  0  0  0  0  0  0  0
    8.0437    1.8861   -0.4115 C   0  0  0  0  0  0  0  0  0  0  0  0
    9.9595    3.2642   -1.6022 H   0  0  0  0  0  0  0  0  0  0  0  0
   11.6901    3.2344   -1.0714 H   0  0  0  0  0  0  0  0  0  0  0  0
   10.4161    3.7407    0.0984 H   0  0  0  0  0  0  0  0  0  0  0  0
    9.9375   -0.6907    0.5315 H   0  0  0  0  0  0  0  0  0  0  0  0
    7.6904   -1.7150    0.8187 H   0  0  0  0  0  0  0  0  0  0  0  0
    3.2329   -0.9803    1.9629 H   0  0  0  0  0  0  0  0  0  0  0  0
    2.1584   -2.8280    0.9166 H   0  0  0  0  0  0  0  0  0  0  0  0
    2.8388   -2.4936   -0.6878 H   0  0  0  0  0  0  0  0  0  0  0  0
    2.0074   -0.8615   -2.1374 H   0  0  0  0  0  0  0  0  0  0  0  0
   -0.0222    0.2985   -2.9000 H   0  0  0  0  0  0  0  0  0  0  0  0
   -3.1685    1.3146    0.0922 H   0  0  0  0  0  0  0  0  0  0  0  0
   -4.0609    1.6032   -1.4259 H   0  0  0  0  0  0  0  0  0  0  0  0
   -4.4316   -0.7873   -1.6858 H   0  0  0  0  0  0  0  0  0  0  0  0
   -3.6128   -1.2032   -0.1678 H   0  0  0  0  0  0  0  0  0  0  0  0
   -9.3061    1.0062    2.3840 H   0  0  0  0  0  0  0  0  0  0  0  0
  -11.7442    1.2789    2.0868 H   0  0  0  0  0  0  0  0  0  0  0  0
  -12.8001    0.9200   -0.1369 H   0  0  0  0  0  0  0  0  0  0  0  0
  -11.4218    0.3050   -1.9969 H   0  0  0  0  0  0  0  0  0  0  0  0
   -8.9671    0.0237   -1.7249 H   0  0  0  0  0  0  0  0  0  0  0  0
   -4.9342    0.3028    3.4170 H   0  0  0  0  0  0  0  0  0  0  0  0
   -3.7653   -0.5676    2.3018 H   0  0  0  0  0  0  0  0  0  0  0  0
   -3.9126    1.2809    2.3594 H   0  0  0  0  0  0  0  0  0  0  0  0
   -1.8249   -0.4511    0.9156 H   0  0  0  0  0  0  0  0  0  0  0  0
    0.1795   -1.6164    1.6360 H   0  0  0  0  0  0  0  0  0  0  0  0
    5.2035   -2.2201    1.7258 H   0  0  0  0  0  0  0  0  0  0  0  0
    5.5360   -3.4605   -2.1710 H   0  0  0  0  0  0  0  0  0  0  0  0
    5.9126    1.8635   -0.4644 H   0  0  0  0  0  0  0  0  0  0  0  0
    8.0988    2.8971   -0.7589 H   0  0  0  0  0  0  0  0  0  0  0  0
  1  2  1  0
  2  3  1  0
  3  4  2  0
  4  5  1  0
  5  6  2  0
  6  7  1  0
  7  8  1  0
  8  9  2  0
  8 10  1  0
 10 11  1  0
 11 12  1  0
 12 13  2  0
 13 14  1  0
 14 15  2  0
 15 16  1  0
 16 17  1  0
 17 18  1  0
 18 19  1  0
 19 20  1  0
 20 21  2  0
 21 22  1  0
 22 23  2  0
 23 24  1  0
 24 25  2  0
 25 26  1  0
 26 27  2  0
 21 28  1  0
 28 29  1  0
 29 30  1  0
 15 31  1  0
 31 32  2  0
 10 33  1  0
 33 34  1  0
 34 35  2  0
 34 36  1  0
  6 37  1  0
 37 38  2  0
 38  3  1  0
 33  7  1  0
 32 12  1  0
 29 19  2  0
 27 22  1  0
  1 39  1  0
  1 40  1  0
  1 41  1  0
  4 42  1  0
  5 43  1  0
 10 44  1  1
 11 45  1  0
 11 46  1  0
 13 47  1  0
 14 48  1  0
 17 49  1  0
 17 50  1  0
 18 51  1  0
 18 52  1  0
 23 53  1  0
 24 54  1  0
 25 55  1  0
 26 56  1  0
 27 57  1  0
 30 58  1  0
 30 59  1  0
 30 60  1  0
 31 61  1  0
 32 62  1  0
 33 63  1  1
 36 64  1  0
 37 65  1  0
 38 66  1  0
M  END
$$$$
