@<TRIPOS>MOLECULE
*****
 66 70 0 0 0
SMALL
GASTEIGER

@<TRIPOS>ATOM
      1 C          10.6331    3.0646   -0.7444 C.3     1  UNL1        0.0788
      2 O          10.4665    1.7409   -0.2928 O.3     1  UNL1       -0.4951
      3 C           9.1897    1.1967   -0.1414 C.ar    1  UNL1        0.1202
      4 C           9.0466   -0.1198    0.3077 C.ar    1  UNL1       -0.0182
      5 C           7.8101   -0.7030    0.4734 C.ar    1  UNL1       -0.0368
      6 C           6.6664   -0.0043    0.1999 C.ar    1  UNL1        0.0374
      7 N           5.3457   -0.5627    0.3505 N.am    1  UNL1       -0.2566
      8 C           4.0473   -0.0743    0.1420 C.2     1  UNL1        0.2263
      9 O           3.6008    0.9361   -0.4593 O.2     1  UNL1       -0.2748
     10 C           3.4676   -1.1681    0.8738 C.3     1  UNL1        0.0693
     11 C           2.4071   -1.9913    0.2333 C.3     1  UNL1       -0.0143
     12 C           1.1951   -1.3152   -0.1694 C.ar    1  UNL1       -0.0463
     13 C           1.1577   -0.7769   -1.4639 C.ar    1  UNL1       -0.0551
     14 C           0.0332   -0.1266   -1.9047 C.ar    1  UNL1       -0.0197
     15 C          -1.1040    0.0153   -1.0734 C.ar    1  UNL1        0.1205
     16 O          -2.1918    0.6729   -1.5587 O.3     1  UNL1       -0.4916
     17 C          -3.3867    0.8641   -0.9136 C.3     1  UNL1        0.0951
     18 C          -4.1653   -0.4044   -0.6541 C.3     1  UNL1        0.0272
     19 C          -5.4315   -0.0696    0.0567 C.ar    1  UNL1        0.0860
     20 N          -6.6685   -0.0112   -0.4643 N.ar    1  UNL1       -0.2136
     21 C          -7.5272    0.3289    0.5121 C.ar    1  UNL1        0.2276
     22 C          -8.9694    0.4982    0.3581 C.ar    1  UNL1        0.0369
     23 C          -9.7732    0.8507    1.4149 C.ar    1  UNL1       -0.0495
     24 C         -11.1354    1.0027    1.2468 C.ar    1  UNL1       -0.0610
     25 C         -11.7423    0.8077    0.0155 C.ar    1  UNL1       -0.0617
     26 C         -10.9337    0.4550   -1.0391 C.ar    1  UNL1       -0.0610
     27 C          -9.5587    0.3007   -0.8724 C.ar    1  UNL1       -0.0495
     28 O          -6.8195    0.4735    1.6043 O.2     1  UNL1       -0.4402
     29 C          -5.5382    0.2425    1.3835 C.ar    1  UNL1        0.1258
     30 C          -4.4337    0.3138    2.4032 C.3     1  UNL1       -0.0045
     31 C          -1.0379   -0.5203    0.1885 C.ar    1  UNL1       -0.0197
     32 C           0.1024   -1.1885    0.6557 C.ar    1  UNL1       -0.0551
     33 C           4.8110   -1.8229    0.7605 C.3     1  UNL1        0.1388
     34 C           4.8720   -2.8749   -0.3053 C.2     1  UNL1        0.3266
     35 O           4.4517   -4.0242   -0.0239 O.2     1  UNL1       -0.2489
     36 O           5.3617   -2.6485   -1.5691 O.3     1  UNL1       -0.4793
     37 C           6.8185    1.2978   -0.2442 C.ar    1  UNL1       -0.0368
     38 C           8.0437    1.8861   -0.4115 C.ar    1  UNL1       -0.0182
     39 H           9.9595    3.2642   -1.6022 H       1  UNL1        0.0660
     40 H          11.6901    3.2344   -1.0714 H       1  UNL1        0.0660
     41 H          10.4161    3.7407    0.0984 H       1  UNL1        0.0660
     42 H           9.9375   -0.6907    0.5315 H       1  UNL1        0.0655
     43 H           7.6904   -1.7150    0.8187 H       1  UNL1        0.0637
     44 H           3.2329   -0.9803    1.9629 H       1  UNL1        0.0421
     45 H           2.1584   -2.8280    0.9166 H       1  UNL1        0.0321
     46 H           2.8388   -2.4936   -0.6878 H       1  UNL1        0.0321
     47 H           2.0074   -0.8615   -2.1374 H       1  UNL1        0.0621
     48 H          -0.0222    0.2985   -2.9000 H       1  UNL1        0.0654
     49 H          -3.1685    1.3146    0.0922 H       1  UNL1        0.0700
     50 H          -4.0609    1.6032   -1.4259 H       1  UNL1        0.0700
     51 H          -4.4316   -0.7873   -1.6858 H       1  UNL1        0.0362
     52 H          -3.6128   -1.2032   -0.1678 H       1  UNL1        0.0362
     53 H          -9.3061    1.0062    2.3840 H       1  UNL1        0.0625
     54 H         -11.7442    1.2789    2.0868 H       1  UNL1        0.0618
     55 H         -12.8001    0.9200   -0.1369 H       1  UNL1        0.0618
     56 H         -11.4218    0.3050   -1.9969 H       1  UNL1        0.0618
     57 H          -8.9671    0.0237   -1.7249 H       1  UNL1        0.0625
     58 H          -4.9342    0.3028    3.4170 H       1  UNL1        0.0308
     59 H          -3.7653   -0.5676    2.3018 H       1  UNL1        0.0308
     60 H          -3.9126    1.2809    2.3594 H       1  UNL1        0.0308
     61 H          -1.8249   -0.4511    0.9156 H       1  UNL1        0.0654
     62 H           0.1795   -1.6164    1.6360 H       1  UNL1        0.0621
     63 H           5.2035   -2.2201    1.7258 H       1  UNL1        0.0628
     64 H           5.5360   -3.4605   -2.1710 H       1  UNL1        0.2951
     65 H           5.9126    1.8635   -0.4644 H       1  UNL1        0.0637
     66 H           8.0988    2.8971   -0.7589 H       1  UNL1        0.0655
@<TRIPOS>BOND
     1     1     2    1
     2     2     3    1
     3     3     4   ar
     4     4     5   ar
     5     5     6   ar
     6     6     7    1
     7     7     8   am
     8     8     9    2
     9     8    10    1
    10    10    11    1
    11    11    12    1
    12    12    13   ar
    13    13    14   ar
    14    14    15   ar
    15    15    16    1
    16    16    17    1
    17    17    18    1
    18    18    19    1
    19    19    20   ar
    20    20    21   ar
    21    21    22    1
    22    22    23   ar
    23    23    24   ar
    24    24    25   ar
    25    25    26   ar
    26    26    27   ar
    27    21    28   ar
    28    28    29   ar
    29    29    30    1
    30    15    31   ar
    31    31    32   ar
    32    10    33    1
    33    33    34    1
    34    34    35    2
    35    34    36    1
    36     6    37   ar
    37    37    38   ar
    38    38     3   ar
    39    33     7    1
    40    32    12   ar
    41    29    19   ar
    42    27    22   ar
    43     1    39    1
    44     1    40    1
    45     1    41    1
    46     4    42    1
    47     5    43    1
    48    10    44    1
    49    11    45    1
    50    11    46    1
    51    13    47    1
    52    14    48    1
    53    17    49    1
    54    17    50    1
    55    18    51    1
    56    18    52    1
    57    23    53    1
    58    24    54    1
    59    25    55    1
    60    26    56    1
    61    27    57    1
    62    30    58    1
    63    30    59    1
    64    30    60    1
    65    31    61    1
    66    32    62    1
    67    33    63    1
    68    36    64    1
    69    37    65    1
    70    38    66    1
