
     RDKit          3D

 65 68  0  0  0  0  0  0  0  0999 V2000
    8.0026    0.9547    2.3183 C   0  0  0  0  0  0  0  0  0  0  0  0
    7.0869    0.3373    1.6055 C   0  0  0  0  0  0  0  0  0  0  0  0
    5.6539    0.5422    1.9104 C   0  0  0  0  0  0  0  0  0  0  0  0
    4.7682   -0.3971    1.1188 C   0  0  0  0  0  0  0  0  0  0  0  0
    5.0744   -0.4085   -0.3430 C   0  0  0  0  0  0  0  0  0  0  0  0
    4.3060    0.6600   -1.0595 C   0  0  0  0  0  0  0  0  0  0  0  0
    2.8253    0.5648   -0.9692 C   0  0  0  0  0  0  0  0  0  0  0  0
    2.0843   -0.8853   -1.5817 S   0  0  0  0  0  6  0  0  0  0  0  0
    2.2875   -1.1799   -3.0122 O   0  0  0  0  0  0  0  0  0  0  0  0
    2.5741   -2.0852   -0.7859 O   0  0  0  0  0  0  0  0  0  0  0  0
    0.3311   -0.7507   -1.3498 C   0  0  0  0  0  0  0  0  0  0  0  0
   -0.4797   -0.1998   -2.3192 C   0  0  0  0  0  0  0  0  0  0  0  0
   -1.8510   -0.0942   -2.1408 C   0  0  0  0  0  0  0  0  0  0  0  0
   -2.4530   -0.5408   -0.9774 C   0  0  0  0  0  0  0  0  0  0  0  0
   -3.8252   -0.4343   -0.8014 O   0  0  0  0  0  0  0  0  0  0  0  0
   -4.3704   -0.9109    0.4119 C   0  0  0  0  0  0  0  0  0  0  0  0
   -5.8442   -0.7374    0.4671 C   0  0  0  0  0  0  0  0  0  0  0  0
   -6.7045   -1.8242    0.2850 C   0  0  0  0  0  0  0  0  0  0  0  0
   -8.0752   -1.6989    0.3315 C   0  0  0  0  0  0  0  0  0  0  0  0
   -8.9619   -2.8889    0.1313 C   0  0  0  0  0  0  0  0  0  0  0  0
   -8.5852   -0.4942    0.5585 N   0  0  0  0  0  0  0  0  0  0  0  0
   -7.8274    0.6203    0.7473 C   0  0  0  0  0  0  0  0  0  0  0  0
   -8.4120    1.8396    0.9784 C   0  0  0  0  0  0  0  0  0  0  0  0
   -7.6472    2.9648    1.1689 C   0  0  0  0  0  0  0  0  0  0  0  0
   -6.2740    2.8244    1.1196 C   0  0  0  0  0  0  0  0  0  0  0  0
   -5.6732    1.6078    0.8888 C   0  0  0  0  0  0  0  0  0  0  0  0
   -6.4457    0.4822    0.6984 C   0  0  0  0  0  0  0  0  0  0  0  0
   -1.6313   -1.0901   -0.0145 C   0  0  0  0  0  0  0  0  0  0  0  0
   -0.2672   -1.1956   -0.1911 C   0  0  0  0  0  0  0  0  0  0  0  0
    4.7421    0.8879   -2.4175 N   0  0  0  0  0  0  0  0  0  0  0  0
    4.6016   -0.0663   -3.3641 O   0  0  0  0  0  0  0  0  0  0  0  0
    5.3417    2.1089   -2.8205 C   0  0  0  0  0  0  0  0  0  0  0  0
    5.7088    2.2769   -4.0031 O   0  0  0  0  0  0  0  0  0  0  0  0
    6.5399   -0.2351   -0.6697 C   0  0  0  0  0  0  0  0  0  0  0  0
    7.4522   -0.5704    0.4905 C   0  0  0  0  0  0  0  0  0  0  0  0
    9.0606    0.8306    2.1260 H   0  0  0  0  0  0  0  0  0  0  0  0
    7.7086    1.6092    3.1242 H   0  0  0  0  0  0  0  0  0  0  0  0
    5.3257    1.5873    1.8586 H   0  0  0  0  0  0  0  0  0  0  0  0
    5.5217    0.2361    2.9900 H   0  0  0  0  0  0  0  0  0  0  0  0
    3.7312   -0.1225    1.3070 H   0  0  0  0  0  0  0  0  0  0  0  0
    4.8880   -1.4340    1.5535 H   0  0  0  0  0  0  0  0  0  0  0  0
    4.8117   -1.4389   -0.7191 H   0  0  0  0  0  0  0  0  0  0  0  0
    4.5640    1.6175   -0.4888 H   0  0  0  0  0  0  0  0  0  0  0  0
    2.4324    1.4482   -1.5655 H   0  0  0  0  0  0  0  0  0  0  0  0
    2.4188    0.7718    0.0557 H   0  0  0  0  0  0  0  0  0  0  0  0
   -0.0637    0.1583   -3.2323 H   0  0  0  0  0  0  0  0  0  0  0  0
   -2.4981    0.3371   -2.8960 H   0  0  0  0  0  0  0  0  0  0  0  0
   -4.1460   -2.0091    0.5503 H   0  0  0  0  0  0  0  0  0  0  0  0
   -3.8588   -0.3708    1.2446 H   0  0  0  0  0  0  0  0  0  0  0  0
   -6.2573   -2.7825    0.1039 H   0  0  0  0  0  0  0  0  0  0  0  0
   -9.8351   -2.7390    0.8187 H   0  0  0  0  0  0  0  0  0  0  0  0
   -9.2461   -3.0411   -0.9114 H   0  0  0  0  0  0  0  0  0  0  0  0
   -8.4231   -3.7786    0.5335 H   0  0  0  0  0  0  0  0  0  0  0  0
   -9.4845    1.9080    1.0095 H   0  0  0  0  0  0  0  0  0  0  0  0
   -8.1072    3.9468    1.3550 H   0  0  0  0  0  0  0  0  0  0  0  0
   -5.6739    3.7090    1.2693 H   0  0  0  0  0  0  0  0  0  0  0  0
   -4.5944    1.4860    0.8478 H   0  0  0  0  0  0  0  0  0  0  0  0
   -2.0975   -1.4436    0.9039 H   0  0  0  0  0  0  0  0  0  0  0  0
    0.3865   -1.6280    0.5643 H   0  0  0  0  0  0  0  0  0  0  0  0
    4.4257    0.3585   -4.2409 H   0  0  0  0  0  0  0  0  0  0  0  0
    5.4673    2.8783   -2.0755 H   0  0  0  0  0  0  0  0  0  0  0  0
    6.7869    0.8058   -0.9711 H   0  0  0  0  0  0  0  0  0  0  0  0
    6.8523   -0.9075   -1.5146 H   0  0  0  0  0  0  0  0  0  0  0  0
    7.3656   -1.6332    0.7955 H   0  0  0  0  0  0  0  0  0  0  0  0
    8.4863   -0.3435    0.1349 H   0  0  0  0  0  0  0  0  0  0  0  0
  1  2  2  3
  2  3  1  0
  3  4  1  0
  4  5  1  0
  5  6  1  0
  6  7  1  0
  7  8  1  0
  8  9  2  0
  8 10  2  0
  8 11  1  0
 11 12  2  0
 12 13  1  0
 13 14  2  0
 14 15  1  0
 15 16  1  0
 16 17  1  0
 17 18  2  0
 18 19  1  0
 19 20  1  0
 19 21  2  0
 21 22  1  0
 22 23  2  0
 23 24  1  0
 24 25  2  0
 25 26  1  0
 26 27  2  0
 14 28  1  0
 28 29  2  0
  6 30  1  0
 30 31  1  0
 30 32  1  0
 32 33  2  0
  5 34  1  0
 34 35  1  0
 35  2  1  0
 29 11  1  0
 27 17  1  0
 27 22  1  0
  1 36  1  0
  1 37  1  0
  3 38  1  0
  3 39  1  0
  4 40  1  0
  4 41  1  0
  5 42  1  0
  6 43  1  0
  7 44  1  0
  7 45  1  0
 12 46  1  0
 13 47  1  0
 16 48  1  0
 16 49  1  0
 18 50  1  0
 20 51  1  0
 20 52  1  0
 20 53  1  0
 23 54  1  0
 24 55  1  0
 25 56  1  0
 26 57  1  0
 28 58  1  0
 29 59  1  0
 31 60  1  0
 32 61  1  0
 34 62  1  0
 34 63  1  0
 35 64  1  0
 35 65  1  0
M  END
$$$$
