@<TRIPOS>MOLECULE
*****
 65 68 0 0 0
SMALL
GASTEIGER

@<TRIPOS>ATOM
      1 C           8.0026    0.9547    2.3183 C.2     1  UNL1       -0.0994
      2 C           7.0869    0.3373    1.6055 C.2     1  UNL1       -0.0766
      3 C           5.6539    0.5422    1.9104 C.3     1  UNL1       -0.0317
      4 C           4.7682   -0.3971    1.1188 C.3     1  UNL1       -0.0447
      5 C           5.0744   -0.4085   -0.3430 C.3     1  UNL1       -0.0179
      6 C           4.3060    0.6600   -1.0595 C.3     1  UNL1        0.0751
      7 C           2.8253    0.5648   -0.9692 C.3     1  UNL1        0.0920
      8 S           2.0843   -0.8853   -1.5817 S.O2    1  UNL1       -0.0012
      9 O           2.2875   -1.1799   -3.0122 O.2     1  UNL1       -0.1693
     10 O           2.5741   -2.0852   -0.7859 O.2     1  UNL1       -0.1693
     11 C           0.3311   -0.7507   -1.3498 C.ar    1  UNL1        0.0885
     12 C          -0.4797   -0.1998   -2.3192 C.ar    1  UNL1       -0.0334
     13 C          -1.8510   -0.0942   -2.1408 C.ar    1  UNL1       -0.0181
     14 C          -2.4530   -0.5408   -0.9774 C.ar    1  UNL1        0.1211
     15 O          -3.8252   -0.4343   -0.8014 O.3     1  UNL1       -0.4874
     16 C          -4.3704   -0.9109    0.4119 C.3     1  UNL1        0.1153
     17 C          -5.8442   -0.7374    0.4671 C.ar    1  UNL1        0.0004
     18 C          -6.7045   -1.8242    0.2850 C.ar    1  UNL1       -0.0337
     19 C          -8.0752   -1.6989    0.3315 C.ar    1  UNL1        0.0393
     20 C          -8.9619   -2.8889    0.1313 C.3     1  UNL1       -0.0223
     21 N          -8.5852   -0.4942    0.5585 N.ar    1  UNL1       -0.2519
     22 C          -7.8274    0.6203    0.7473 C.ar    1  UNL1        0.0716
     23 C          -8.4120    1.8396    0.9784 C.ar    1  UNL1       -0.0357
     24 C          -7.6472    2.9648    1.1689 C.ar    1  UNL1       -0.0597
     25 C          -6.2740    2.8244    1.1196 C.ar    1  UNL1       -0.0611
     26 C          -5.6732    1.6078    0.8888 C.ar    1  UNL1       -0.0522
     27 C          -6.4457    0.4822    0.6984 C.ar    1  UNL1        0.0068
     28 C          -1.6313   -1.0901   -0.0145 C.ar    1  UNL1       -0.0181
     29 C          -0.2672   -1.1956   -0.1911 C.ar    1  UNL1       -0.0334
     30 N           4.7421    0.8879   -2.4175 N.am    1  UNL1       -0.1815
     31 O           4.6016   -0.0663   -3.3641 O.3     1  UNL1       -0.2924
     32 C           5.3417    2.1089   -2.8205 C.2     1  UNL1        0.2253
     33 O           5.7088    2.2769   -4.0031 O.2     1  UNL1       -0.2772
     34 C           6.5399   -0.2351   -0.6697 C.3     1  UNL1       -0.0447
     35 C           7.4522   -0.5704    0.4905 C.3     1  UNL1       -0.0317
     36 H           9.0606    0.8306    2.1260 H       1  UNL1        0.0534
     37 H           7.7086    1.6092    3.1242 H       1  UNL1        0.0534
     38 H           5.3257    1.5873    1.8586 H       1  UNL1        0.0310
     39 H           5.5217    0.2361    2.9900 H       1  UNL1        0.0310
     40 H           3.7312   -0.1225    1.3070 H       1  UNL1        0.0272
     41 H           4.8880   -1.4340    1.5535 H       1  UNL1        0.0272
     42 H           4.8117   -1.4389   -0.7191 H       1  UNL1        0.0320
     43 H           4.5640    1.6175   -0.4888 H       1  UNL1        0.0544
     44 H           2.4324    1.4482   -1.5655 H       1  UNL1        0.0523
     45 H           2.4188    0.7718    0.0557 H       1  UNL1        0.0523
     46 H          -0.0637    0.1583   -3.2323 H       1  UNL1        0.0638
     47 H          -2.4981    0.3371   -2.8960 H       1  UNL1        0.0655
     48 H          -4.1460   -2.0091    0.5503 H       1  UNL1        0.0748
     49 H          -3.8588   -0.3708    1.2446 H       1  UNL1        0.0748
     50 H          -6.2573   -2.7825    0.1039 H       1  UNL1        0.0639
     51 H          -9.8351   -2.7390    0.8187 H       1  UNL1        0.0292
     52 H          -9.2461   -3.0411   -0.9114 H       1  UNL1        0.0292
     53 H          -8.4231   -3.7786    0.5335 H       1  UNL1        0.0292
     54 H          -9.4845    1.9080    1.0095 H       1  UNL1        0.0639
     55 H          -8.1072    3.9468    1.3550 H       1  UNL1        0.0618
     56 H          -5.6739    3.7090    1.2693 H       1  UNL1        0.0618
     57 H          -4.5944    1.4860    0.8478 H       1  UNL1        0.0624
     58 H          -2.0975   -1.4436    0.9039 H       1  UNL1        0.0655
     59 H           0.3865   -1.6280    0.5643 H       1  UNL1        0.0638
     60 H           4.4257    0.3585   -4.2409 H       1  UNL1        0.2417
     61 H           5.4673    2.8783   -2.0755 H       1  UNL1        0.1274
     62 H           6.7869    0.8058   -0.9711 H       1  UNL1        0.0272
     63 H           6.8523   -0.9075   -1.5146 H       1  UNL1        0.0272
     64 H           7.3656   -1.6332    0.7955 H       1  UNL1        0.0310
     65 H           8.4863   -0.3435    0.1349 H       1  UNL1        0.0310
@<TRIPOS>BOND
     1     1     2    2
     2     2     3    1
     3     3     4    1
     4     4     5    1
     5     5     6    1
     6     6     7    1
     7     7     8    1
     8     8     9    2
     9     8    10    2
    10     8    11    1
    11    11    12   ar
    12    12    13   ar
    13    13    14   ar
    14    14    15    1
    15    15    16    1
    16    16    17    1
    17    17    18   ar
    18    18    19   ar
    19    19    20    1
    20    19    21   ar
    21    21    22   ar
    22    22    23   ar
    23    23    24   ar
    24    24    25   ar
    25    25    26   ar
    26    26    27   ar
    27    14    28   ar
    28    28    29   ar
    29     6    30    1
    30    30    31    1
    31    30    32   am
    32    32    33    2
    33     5    34    1
    34    34    35    1
    35    35     2    1
    36    29    11   ar
    37    27    17   ar
    38    27    22   ar
    39     1    36    1
    40     1    37    1
    41     3    38    1
    42     3    39    1
    43     4    40    1
    44     4    41    1
    45     5    42    1
    46     6    43    1
    47     7    44    1
    48     7    45    1
    49    12    46    1
    50    13    47    1
    51    16    48    1
    52    16    49    1
    53    18    50    1
    54    20    51    1
    55    20    52    1
    56    20    53    1
    57    23    54    1
    58    24    55    1
    59    25    56    1
    60    26    57    1
    61    28    58    1
    62    29    59    1
    63    31    60    1
    64    32    61    1
    65    34    62    1
    66    34    63    1
    67    35    64    1
    68    35    65    1
