@<TRIPOS>MOLECULE
*****
 61 65 0 0 0
SMALL
GASTEIGER

@<TRIPOS>ATOM
      1 C          -4.0841    1.2665    1.4368 C.3     1  UNL1       -0.0275
      2 C          -3.3833    0.8595    0.1377 C.3     1  UNL1        0.1021
      3 O          -3.3814   -0.5259    0.1026 O.3     1  UNL1       -0.4880
      4 C          -2.2860   -1.3463    0.1084 C.ar    1  UNL1        0.1321
      5 C          -0.9912   -0.8909    0.1502 C.ar    1  UNL1       -0.0113
      6 C           0.0587   -1.7940    0.1527 C.ar    1  UNL1       -0.0094
      7 C           1.4410   -1.3197    0.1969 C.ar    1  UNL1        0.0198
      8 C           2.5546   -1.9074    0.7569 C.ar    1  UNL1        0.0571
      9 N           3.6283   -1.0902    0.5493 N.ar    1  UNL1       -0.1788
     10 N           3.2033   -0.0309   -0.1155 N.ar    1  UNL1       -0.2677
     11 C           4.0748    1.0606   -0.5151 C.3     1  UNL1        0.0550
     12 C           4.2931    1.9184    0.7076 C.3     1  UNL1       -0.0176
     13 C           5.4249    2.8964    0.5454 C.3     1  UNL1        0.0005
     14 N           6.6258    2.2937    0.0305 N.3     1  UNL1       -0.3052
     15 C           7.3331    1.4964    0.9892 C.3     1  UNL1       -0.0128
     16 C           6.3585    1.6187   -1.2042 C.3     1  UNL1        0.0005
     17 C           5.3958    0.4608   -0.9760 C.3     1  UNL1       -0.0176
     18 C           1.8852   -0.1326   -0.3477 C.ar    1  UNL1        0.0335
     19 C          -0.1733   -3.1509    0.1138 C.ar    1  UNL1       -0.0259
     20 C          -1.4483   -3.6158    0.0723 C.ar    1  UNL1        0.0968
     21 N          -1.9483   -4.8650    0.0298 N.ar    1  UNL1       -0.1713
     22 N          -3.2689   -4.7963    0.0004 N.ar    1  UNL1       -0.2732
     23 C          -4.1432   -5.9545   -0.0485 C.3     1  UNL1        0.0302
     24 C          -3.6351   -3.5116    0.0234 C.ar    1  UNL1        0.0364
     25 C          -2.4964   -2.7273    0.0694 C.ar    1  UNL1        0.0614
     26 C          -4.0906    1.4749   -1.0552 C.3     1  UNL1        0.0195
     27 C          -5.5187    1.0614   -1.1853 C.3     1  UNL1        0.0182
     28 N          -6.3166    2.2768   -1.0349 N.am    1  UNL1       -0.3149
     29 C          -5.4925    3.3501   -0.6237 C.2     1  UNL1        0.2135
     30 O          -5.8800    4.4098   -0.1131 O.2     1  UNL1       -0.2758
     31 C          -4.0845    2.9769   -0.9144 C.3     1  UNL1        0.0315
     32 H          -5.1503    0.9240    1.4169 H       1  UNL1        0.0265
     33 H          -3.5912    0.6730    2.2525 H       1  UNL1        0.0265
     34 H          -3.9911    2.3431    1.6332 H       1  UNL1        0.0265
     35 H          -2.3772    1.2870    0.1826 H       1  UNL1        0.0733
     36 H          -0.7515    0.1603    0.1818 H       1  UNL1        0.0660
     37 H           2.5735   -2.8515    1.2709 H       1  UNL1        0.0854
     38 H           3.6555    1.6189   -1.3553 H       1  UNL1        0.0545
     39 H           3.3646    2.4876    0.8938 H       1  UNL1        0.0298
     40 H           4.4724    1.2385    1.5629 H       1  UNL1        0.0298
     41 H           5.1056    3.6947   -0.1392 H       1  UNL1        0.0427
     42 H           5.6466    3.3165    1.5450 H       1  UNL1        0.0427
     43 H           8.3242    1.9897    1.2082 H       1  UNL1        0.0391
     44 H           7.5413    0.4711    0.6494 H       1  UNL1        0.0391
     45 H           6.7689    1.4574    1.9392 H       1  UNL1        0.0391
     46 H           7.3099    1.2541   -1.6664 H       1  UNL1        0.0427
     47 H           5.8775    2.3434   -1.8900 H       1  UNL1        0.0427
     48 H           5.8166   -0.2100   -0.2006 H       1  UNL1        0.0298
     49 H           5.2472   -0.0849   -1.9112 H       1  UNL1        0.0298
     50 H           1.2519    0.5804   -0.8708 H       1  UNL1        0.0832
     51 H           0.6657   -3.8544    0.1163 H       1  UNL1        0.0646
     52 H          -5.0987   -5.7142    0.4754 H       1  UNL1        0.0473
     53 H          -3.6863   -6.7950    0.5242 H       1  UNL1        0.0473
     54 H          -4.3528   -6.2797   -1.0714 H       1  UNL1        0.0473
     55 H          -4.6460   -3.1064    0.0095 H       1  UNL1        0.0833
     56 H          -3.5294    1.1922   -1.9519 H       1  UNL1        0.0356
     57 H          -5.8221    0.3399   -0.4173 H       1  UNL1        0.0466
     58 H          -5.7401    0.6893   -2.2132 H       1  UNL1        0.0466
     59 H          -7.3350    2.2985   -1.2152 H       1  UNL1        0.1487
     60 H          -3.4324    3.2770   -0.0922 H       1  UNL1        0.0363
     61 H          -3.7718    3.4977   -1.8456 H       1  UNL1        0.0363
@<TRIPOS>BOND
     1     1     2    1
     2     2     3    1
     3     3     4    1
     4     4     5   ar
     5     5     6   ar
     6     6     7    1
     7     7     8   ar
     8     8     9   ar
     9     9    10   ar
    10    10    11    1
    11    11    12    1
    12    12    13    1
    13    13    14    1
    14    14    15    1
    15    14    16    1
    16    16    17    1
    17    10    18   ar
    18     6    19   ar
    19    19    20   ar
    20    20    21   ar
    21    21    22   ar
    22    22    23    1
    23    22    24   ar
    24    24    25   ar
    25     2    26    1
    26    26    27    1
    27    27    28    1
    28    28    29   am
    29    29    30    2
    30    29    31    1
    31    25     4   ar
    32    31    26    1
    33    18     7   ar
    34    25    20   ar
    35    17    11    1
    36     1    32    1
    37     1    33    1
    38     1    34    1
    39     2    35    1
    40     5    36    1
    41     8    37    1
    42    11    38    1
    43    12    39    1
    44    12    40    1
    45    13    41    1
    46    13    42    1
    47    15    43    1
    48    15    44    1
    49    15    45    1
    50    16    46    1
    51    16    47    1
    52    17    48    1
    53    17    49    1
    54    18    50    1
    55    19    51    1
    56    23    52    1
    57    23    53    1
    58    23    54    1
    59    24    55    1
    60    26    56    1
    61    27    57    1
    62    27    58    1
    63    28    59    1
    64    31    60    1
    65    31    61    1
