@<TRIPOS>MOLECULE
*****
 75 78 0 0 0
SMALL
GASTEIGER

@<TRIPOS>ATOM
      1 C           1.9303   -0.6466   -0.3132 C.3     1  UNL1       -0.0304
      2 C           2.1323    0.0748   -1.6594 C.3     1  UNL1       -0.0491
      3 C           0.8156    0.7498   -1.9782 C.3     1  UNL1       -0.0490
      4 C          -0.0157    0.4621   -0.7534 C.3     1  UNL1       -0.0276
      5 C          -1.4735    0.5767   -0.9584 C.3     1  UNL1       -0.0081
      6 C          -1.8257    2.0522   -0.9141 C.3     1  UNL1        0.0589
      7 O          -0.7524    2.8205   -0.4351 O.3     1  UNL1       -0.3915
      8 C          -3.0277    2.3655   -0.0874 C.3     1  UNL1       -0.0232
      9 C          -4.1401    1.3581   -0.2581 C.3     1  UNL1       -0.0307
     10 C          -5.2024    1.7307    0.7575 C.3     1  UNL1       -0.0234
     11 C          -6.3715    0.7991    0.7280 C.3     1  UNL1        0.0555
     12 O          -7.2825    1.2529    1.6912 O.3     1  UNL1       -0.3918
     13 C          -5.8922   -0.5859    1.0469 C.3     1  UNL1       -0.0263
     14 C          -4.3890   -0.7078    1.1202 C.3     1  UNL1       -0.0448
     15 C          -3.7048   -0.0581   -0.0684 C.3     1  UNL1       -0.0257
     16 C          -4.0477   -0.9232   -1.2824 C.3     1  UNL1       -0.0590
     17 C          -2.2185   -0.0792    0.1733 C.3     1  UNL1       -0.0276
     18 C          -1.7217   -1.4694    0.4649 C.3     1  UNL1       -0.0226
     19 C          -0.2290   -1.3525    0.8168 C.3     1  UNL1        0.0614
     20 O          -0.1761   -0.3962    1.8260 O.3     1  UNL1       -0.3912
     21 C           0.4658   -0.9587   -0.4339 C.3     1  UNL1        0.0001
     22 C           0.1265   -1.9236   -1.5306 C.3     1  UNL1       -0.0567
     23 C           2.8381   -1.8107   -0.1792 C.3     1  UNL1       -0.0400
     24 C           2.6604   -2.5159    1.1223 C.3     1  UNL1       -0.0621
     25 C           4.2629   -1.2770   -0.2002 C.3     1  UNL1       -0.0419
     26 C           4.5515   -0.3154    0.9048 C.3     1  UNL1        0.0242
     27 C           5.9862    0.1025    0.7286 C.2     1  UNL1        0.2133
     28 O           6.2640   -0.5796   -0.2967 O.2     1  UNL1       -0.2758
     29 N           6.6537    1.0206    1.5868 N.am    1  UNL1       -0.3100
     30 C           8.0319    1.1811    1.1046 C.3     1  UNL1        0.0512
     31 C           7.9084    1.7025   -0.2779 C.2     1  UNL1        0.0588
     32 O           9.1923    1.8670   -0.7663 O.co2   1  UNL1       -0.5482
     33 O           6.9740    2.0116   -1.0634 O.co2   1  UNL1       -0.5482
     34 H           2.0508    0.1062    0.4624 H       1  UNL1        0.0310
     35 H           2.9380    0.8278   -1.5856 H       1  UNL1        0.0268
     36 H           2.4078   -0.6708   -2.4168 H       1  UNL1        0.0268
     37 H           0.3487    0.2672   -2.8466 H       1  UNL1        0.0268
     38 H           0.9331    1.8269   -2.1751 H       1  UNL1        0.0268
     39 H           0.3806    1.0926    0.0681 H       1  UNL1        0.0310
     40 H          -1.7511    0.1973   -1.9535 H       1  UNL1        0.0331
     41 H          -2.0130    2.4394   -1.9484 H       1  UNL1        0.0596
     42 H          -0.9301    3.0406    0.5125 H       1  UNL1        0.2098
     43 H          -2.8107    2.5835    0.9852 H       1  UNL1        0.0293
     44 H          -3.4537    3.3397   -0.4654 H       1  UNL1        0.0293
     45 H          -4.5834    1.5059   -1.2633 H       1  UNL1        0.0308
     46 H          -5.5306    2.7743    0.4876 H       1  UNL1        0.0293
     47 H          -4.7268    1.7936    1.7457 H       1  UNL1        0.0293
     48 H          -6.8223    0.8486   -0.2877 H       1  UNL1        0.0593
     49 H          -7.9761    1.7749    1.2217 H       1  UNL1        0.2098
     50 H          -6.2736   -0.9010    2.0573 H       1  UNL1        0.0290
     51 H          -6.2654   -1.3042    0.2806 H       1  UNL1        0.0290
     52 H          -4.1921   -1.8137    1.0055 H       1  UNL1        0.0271
     53 H          -3.9747   -0.3043    2.0601 H       1  UNL1        0.0271
     54 H          -4.6218   -1.8296   -1.0113 H       1  UNL1        0.0235
     55 H          -3.1483   -1.2824   -1.8082 H       1  UNL1        0.0235
     56 H          -4.7219   -0.3159   -1.9060 H       1  UNL1        0.0235
     57 H          -2.0250    0.5235    1.0922 H       1  UNL1        0.0310
     58 H          -2.1937   -1.8053    1.4142 H       1  UNL1        0.0293
     59 H          -1.8810   -2.1255   -0.3928 H       1  UNL1        0.0293
     60 H           0.0195   -2.3815    1.1914 H       1  UNL1        0.0599
     61 H           0.7020   -0.0087    1.9877 H       1  UNL1        0.2098
     62 H           0.9577   -2.0933   -2.2295 H       1  UNL1        0.0236
     63 H          -0.0307   -2.9182   -1.0251 H       1  UNL1        0.0236
     64 H          -0.7612   -1.6348   -2.1339 H       1  UNL1        0.0236
     65 H           2.7339   -2.4796   -1.0570 H       1  UNL1        0.0301
     66 H           3.6543   -2.8355    1.5648 H       1  UNL1        0.0233
     67 H           2.1208   -3.4956    1.0210 H       1  UNL1        0.0233
     68 H           2.2365   -1.8513    1.8908 H       1  UNL1        0.0233
     69 H           4.4582   -0.7181   -1.1595 H       1  UNL1        0.0272
     70 H           4.9237   -2.1404   -0.0784 H       1  UNL1        0.0272
     71 H           3.9790    0.6255    0.8783 H       1  UNL1        0.0358
     72 H           4.4295   -0.7433    1.9134 H       1  UNL1        0.0358
     73 H           6.0324    1.3671    2.3483 H       1  UNL1        0.1491
     74 H           8.4862    1.9621    1.7306 H       1  UNL1        0.0523
     75 H           8.5712    0.2283    1.1077 H       1  UNL1        0.0523
@<TRIPOS>UNITY_ATOM_ATTR
32 1
charge -1
@<TRIPOS>BOND
     1     1     2    1
     2     2     3    1
     3     3     4    1
     4     4     5    1
     5     5     6    1
     6     6     7    1
     7     6     8    1
     8     8     9    1
     9     9    10    1
    10    10    11    1
    11    11    12    1
    12    11    13    1
    13    13    14    1
    14    14    15    1
    15    15    16    1
    16    15    17    1
    17    17    18    1
    18    18    19    1
    19    19    20    1
    20    19    21    1
    21    21    22    1
    22     1    23    1
    23    23    24    1
    24    23    25    1
    25    25    26    1
    26    26    27    1
    27    27    28    2
    28    27    29   am
    29    29    30    1
    30    30    31    1
    31    31    32   ar
    32    31    33   ar
    33    21     1    1
    34    21     4    1
    35    17     5    1
    36    15     9    1
    37     1    34    1
    38     2    35    1
    39     2    36    1
    40     3    37    1
    41     3    38    1
    42     4    39    1
    43     5    40    1
    44     6    41    1
    45     7    42    1
    46     8    43    1
    47     8    44    1
    48     9    45    1
    49    10    46    1
    50    10    47    1
    51    11    48    1
    52    12    49    1
    53    13    50    1
    54    13    51    1
    55    14    52    1
    56    14    53    1
    57    16    54    1
    58    16    55    1
    59    16    56    1
    60    17    57    1
    61    18    58    1
    62    18    59    1
    63    19    60    1
    64    20    61    1
    65    22    62    1
    66    22    63    1
    67    22    64    1
    68    23    65    1
    69    24    66    1
    70    24    67    1
    71    24    68    1
    72    25    69    1
    73    25    70    1
    74    26    71    1
    75    26    72    1
    76    29    73    1
    77    30    74    1
    78    30    75    1
