
     RDKit          3D

 75 77  0  0  0  0  0  0  0  0999 V2000
   -4.4967   -4.6170    0.1674 C   0  0  0  0  0  0  0  0  0  0  0  0
   -4.7622   -3.6010   -0.9005 C   0  0  0  0  0  0  0  0  0  0  0  0
   -6.1484   -3.8046   -1.4525 C   0  0  0  0  0  0  0  0  0  0  0  0
   -4.5256   -2.2483   -0.5090 N   0  0  0  0  0  0  0  0  0  0  0  0
   -5.2923   -1.7683    0.5797 C   0  0  0  0  0  0  0  0  0  0  0  0
   -3.1813   -1.8151   -0.5979 C   0  0  2  0  0  0  0  0  0  0  0  0
   -2.1884   -2.5552    0.2236 C   0  0  0  0  0  0  0  0  0  0  0  0
   -1.0813   -1.5664    0.6065 C   0  0  0  0  0  0  0  0  0  0  0  0
   -0.7458   -0.8008   -0.6292 C   0  0  2  0  0  0  0  0  0  0  0  0
    0.5500   -0.2658   -0.7025 N   0  0  0  0  0  0  0  0  0  0  0  0
    1.4871   -0.5216   -1.8152 C   0  0  0  0  0  0  0  0  0  0  0  0
    1.9860    0.9142   -2.0541 C   0  0  0  0  0  0  0  0  0  0  0  0
    2.3650    1.2848   -0.6348 C   0  0  2  0  0  0  0  0  0  0  0  0
    3.6862    0.7868   -0.2913 N   0  0  0  0  0  0  0  0  0  0  0  0
    4.7103    1.6842    0.0945 C   0  0  0  0  0  0  0  0  0  0  0  0
    4.4043    2.9141    0.1193 O   0  0  0  0  0  0  0  0  0  0  0  0
    6.0635    1.3181    0.4587 C   0  0  0  0  0  0  0  0  0  0  0  0
    6.9830    2.2741    0.8269 C   0  0  0  0  0  0  0  0  0  0  0  0
    8.2742    1.9876    1.1806 C   0  0  0  0  0  0  0  0  0  0  0  0
    8.6988    0.6804    1.1756 C   0  0  0  0  0  0  0  0  0  0  0  0
    7.7934   -0.2926    0.8101 C   0  0  0  0  0  0  0  0  0  0  0  0
    8.1610   -1.7327    0.7748 C   0  0  0  0  0  0  0  0  0  0  0  0
    7.6129   -2.3742    1.8737 F   0  0  0  0  0  0  0  0  0  0  0  0
    7.6649   -2.3044   -0.3990 F   0  0  0  0  0  0  0  0  0  0  0  0
    9.5341   -1.8772    0.7473 F   0  0  0  0  0  0  0  0  0  0  0  0
    6.4890    0.0122    0.4542 C   0  0  0  0  0  0  0  0  0  0  0  0
    1.3063    0.6086    0.1527 C   0  0  0  0  0  0  0  0  0  0  0  0
    1.1067    0.7715    1.3591 O   0  0  0  0  0  0  0  0  0  0  0  0
   -1.7975    0.2739   -0.8119 C   0  0  2  0  0  0  0  0  0  0  0  0
   -1.5631    1.5160   -0.0032 C   0  0  0  0  0  0  0  0  0  0  0  0
   -2.8696    2.6926   -0.2992 S   0  0  0  0  0  6  0  0  0  0  0  0
   -2.9374    3.1169   -1.7295 O   0  0  0  0  0  0  0  0  0  0  0  0
   -4.1681    2.1180    0.1282 O   0  0  0  0  0  0  0  0  0  0  0  0
   -2.5432    4.1604    0.6835 C   0  0  0  0  0  0  0  0  0  0  0  0
   -1.1965    4.7260    0.3038 C   0  0  0  0  0  0  0  0  0  0  0  0
   -2.5614    3.7965    2.1424 C   0  0  0  0  0  0  0  0  0  0  0  0
   -3.1326   -0.3143   -0.3367 C   0  0  0  0  0  0  0  0  0  0  0  0
   -4.6961   -4.2246    1.1770 H   0  0  0  0  0  0  0  0  0  0  0  0
   -5.1656   -5.4984   -0.0057 H   0  0  0  0  0  0  0  0  0  0  0  0
   -3.4584   -5.0171    0.0530 H   0  0  0  0  0  0  0  0  0  0  0  0
   -4.0606   -3.8102   -1.7594 H   0  0  0  0  0  0  0  0  0  0  0  0
   -6.5062   -2.9604   -2.0623 H   0  0  0  0  0  0  0  0  0  0  0  0
   -6.1123   -4.7304   -2.0917 H   0  0  0  0  0  0  0  0  0  0  0  0
   -6.9011   -4.0266   -0.6614 H   0  0  0  0  0  0  0  0  0  0  0  0
   -4.7520   -1.5563    1.4976 H   0  0  0  0  0  0  0  0  0  0  0  0
   -6.0684   -2.5401    0.8310 H   0  0  0  0  0  0  0  0  0  0  0  0
   -5.8558   -0.8446    0.2855 H   0  0  0  0  0  0  0  0  0  0  0  0
   -2.8731   -1.9252   -1.6798 H   0  0  0  0  0  0  0  0  0  0  0  0
   -2.5997   -3.0505    1.1225 H   0  0  0  0  0  0  0  0  0  0  0  0
   -1.6814   -3.3456   -0.3680 H   0  0  0  0  0  0  0  0  0  0  0  0
   -0.2723   -2.1535    1.0284 H   0  0  0  0  0  0  0  0  0  0  0  0
   -1.5035   -0.9289    1.4165 H   0  0  0  0  0  0  0  0  0  0  0  0
   -0.8938   -1.4866   -1.5188 H   0  0  0  0  0  0  0  0  0  0  0  0
    0.9467   -0.8000   -2.7393 H   0  0  0  0  0  0  0  0  0  0  0  0
    2.3009   -1.1830   -1.5292 H   0  0  0  0  0  0  0  0  0  0  0  0
    1.1787    1.5491   -2.4395 H   0  0  0  0  0  0  0  0  0  0  0  0
    2.8606    0.8151   -2.7125 H   0  0  0  0  0  0  0  0  0  0  0  0
    2.3458    2.3718   -0.5444 H   0  0  0  0  0  0  0  0  0  0  0  0
    3.9156   -0.2290   -0.3177 H   0  0  0  0  0  0  0  0  0  0  0  0
    6.6553    3.3104    0.8340 H   0  0  0  0  0  0  0  0  0  0  0  0
    8.9974    2.7430    1.4707 H   0  0  0  0  0  0  0  0  0  0  0  0
    9.7133    0.4288    1.4506 H   0  0  0  0  0  0  0  0  0  0  0  0
    5.7829   -0.7506    0.1683 H   0  0  0  0  0  0  0  0  0  0  0  0
   -1.8811    0.5784   -1.8812 H   0  0  0  0  0  0  0  0  0  0  0  0
   -1.5411    1.3413    1.0883 H   0  0  0  0  0  0  0  0  0  0  0  0
   -0.6267    2.0358   -0.2891 H   0  0  0  0  0  0  0  0  0  0  0  0
   -3.3522    4.9006    0.5088 H   0  0  0  0  0  0  0  0  0  0  0  0
   -0.7865    4.2554   -0.5893 H   0  0  0  0  0  0  0  0  0  0  0  0
   -1.3311    5.8117    0.0889 H   0  0  0  0  0  0  0  0  0  0  0  0
   -0.4879    4.6350    1.1597 H   0  0  0  0  0  0  0  0  0  0  0  0
   -3.2859    4.4086    2.7078 H   0  0  0  0  0  0  0  0  0  0  0  0
   -2.8638    2.7303    2.2836 H   0  0  0  0  0  0  0  0  0  0  0  0
   -1.5638    3.9266    2.6238 H   0  0  0  0  0  0  0  0  0  0  0  0
   -3.3458   -0.0702    0.7172 H   0  0  0  0  0  0  0  0  0  0  0  0
   -3.9164    0.1127   -1.0203 H   0  0  0  0  0  0  0  0  0  0  0  0
  1  2  1  0
  2  3  1  0
  2  4  1  0
  4  5  1  0
  4  6  1  0
  6  7  1  0
  7  8  1  0
  8  9  1  0
  9 10  1  0
 10 11  1  0
 11 12  1  0
 12 13  1  0
 13 14  1  0
 14 15  1  0
 15 16  2  0
 15 17  1  0
 17 18  2  0
 18 19  1  0
 19 20  2  0
 20 21  1  0
 21 22  1  0
 22 23  1  0
 22 24  1  0
 22 25  1  0
 21 26  2  0
 13 27  1  0
 27 28  2  0
  9 29  1  0
 29 30  1  0
 30 31  1  0
 31 32  2  0
 31 33  2  0
 31 34  1  0
 34 35  1  0
 34 36  1  0
 29 37  1  0
 37  6  1  0
 27 10  1  0
 26 17  1  0
  1 38  1  0
  1 39  1  0
  1 40  1  0
  2 41  1  0
  3 42  1  0
  3 43  1  0
  3 44  1  0
  5 45  1  0
  5 46  1  0
  5 47  1  0
  6 48  1  6
  7 49  1  0
  7 50  1  0
  8 51  1  0
  8 52  1  0
  9 53  1  6
 11 54  1  0
 11 55  1  0
 12 56  1  0
 12 57  1  0
 13 58  1  6
 14 59  1  0
 18 60  1  0
 19 61  1  0
 20 62  1  0
 26 63  1  0
 29 64  1  6
 30 65  1  0
 30 66  1  0
 34 67  1  0
 35 68  1  0
 35 69  1  0
 35 70  1  0
 36 71  1  0
 36 72  1  0
 36 73  1  0
 37 74  1  0
 37 75  1  0
M  END
$$$$
