@<TRIPOS>MOLECULE
*****
 75 77 0 0 0
SMALL
GASTEIGER

@<TRIPOS>ATOM
      1 C          -4.4967   -4.6170    0.1674 C.3     1  UNL1       -0.0497
      2 C          -4.7622   -3.6010   -0.9005 C.3     1  UNL1        0.0048
      3 C          -6.1484   -3.8046   -1.4525 C.3     1  UNL1       -0.0497
      4 N          -4.5256   -2.2483   -0.5090 N.3     1  UNL1       -0.3000
      5 C          -5.2923   -1.7683    0.5797 C.3     1  UNL1       -0.0122
      6 C          -3.1813   -1.8151   -0.5979 C.3     1  UNL1        0.0108
      7 C          -2.1884   -2.5552    0.2236 C.3     1  UNL1       -0.0356
      8 C          -1.0813   -1.5664    0.6065 C.3     1  UNL1       -0.0326
      9 C          -0.7458   -0.8008   -0.6292 C.3     1  UNL1        0.0304
     10 N           0.5500   -0.2658   -0.7025 N.am    1  UNL1       -0.2965
     11 C           1.4871   -0.5216   -1.8152 C.3     1  UNL1        0.0172
     12 C           1.9860    0.9142   -2.0541 C.3     1  UNL1       -0.0101
     13 C           2.3650    1.2848   -0.6348 C.3     1  UNL1        0.1013
     14 N           3.6862    0.7868   -0.2913 N.am    1  UNL1       -0.3000
     15 C           4.7103    1.6842    0.0945 C.2     1  UNL1        0.2447
     16 O           4.4043    2.9141    0.1193 O.2     1  UNL1       -0.2702
     17 C           6.0635    1.3181    0.4587 C.ar    1  UNL1        0.0372
     18 C           6.9830    2.2741    0.8269 C.ar    1  UNL1       -0.0496
     19 C           8.2742    1.9876    1.1806 C.ar    1  UNL1       -0.0605
     20 C           8.6988    0.6804    1.1756 C.ar    1  UNL1       -0.0501
     21 C           7.7934   -0.2926    0.8101 C.ar    1  UNL1        0.0555
     22 C           8.1610   -1.7327    0.7748 C.3     1  UNL1        0.4174
     23 F           7.6129   -2.3742    1.8737 F       1  UNL1       -0.1659
     24 F           7.6649   -2.3044   -0.3990 F       1  UNL1       -0.1659
     25 F           9.5341   -1.8772    0.7473 F       1  UNL1       -0.1659
     26 C           6.4890    0.0122    0.4542 C.ar    1  UNL1       -0.0380
     27 C           1.3063    0.6086    0.1527 C.2     1  UNL1        0.2362
     28 O           1.1067    0.7715    1.3591 O.2     1  UNL1       -0.2736
     29 C          -1.7975    0.2739   -0.8119 C.3     1  UNL1       -0.0016
     30 C          -1.5631    1.5160   -0.0032 C.3     1  UNL1        0.0706
     31 S          -2.8696    2.6926   -0.2992 S.O2    1  UNL1       -0.0284
     32 O          -2.9374    3.1169   -1.7295 O.2     1  UNL1       -0.1741
     33 O          -4.1681    2.1180    0.1282 O.2     1  UNL1       -0.1741
     34 C          -2.5432    4.1604    0.6835 C.3     1  UNL1        0.0713
     35 C          -1.1965    4.7260    0.3038 C.3     1  UNL1       -0.0431
     36 C          -2.5614    3.7965    2.1424 C.3     1  UNL1       -0.0431
     37 C          -3.1326   -0.3143   -0.3367 C.3     1  UNL1       -0.0313
     38 H          -4.6961   -4.2246    1.1770 H       1  UNL1        0.0245
     39 H          -5.1656   -5.4984   -0.0057 H       1  UNL1        0.0245
     40 H          -3.4584   -5.0171    0.0530 H       1  UNL1        0.0245
     41 H          -4.0606   -3.8102   -1.7594 H       1  UNL1        0.0457
     42 H          -6.5062   -2.9604   -2.0623 H       1  UNL1        0.0245
     43 H          -6.1123   -4.7304   -2.0917 H       1  UNL1        0.0245
     44 H          -6.9011   -4.0266   -0.6614 H       1  UNL1        0.0245
     45 H          -4.7520   -1.5563    1.4976 H       1  UNL1        0.0391
     46 H          -6.0684   -2.5401    0.8310 H       1  UNL1        0.0391
     47 H          -5.8558   -0.8446    0.2855 H       1  UNL1        0.0391
     48 H          -2.8731   -1.9252   -1.6798 H       1  UNL1        0.0463
     49 H          -2.5997   -3.0505    1.1225 H       1  UNL1        0.0281
     50 H          -1.6814   -3.3456   -0.3680 H       1  UNL1        0.0281
     51 H          -0.2723   -2.1535    1.0284 H       1  UNL1        0.0284
     52 H          -1.5035   -0.9289    1.4165 H       1  UNL1        0.0284
     53 H          -0.8938   -1.4866   -1.5188 H       1  UNL1        0.0504
     54 H           0.9467   -0.8000   -2.7393 H       1  UNL1        0.0465
     55 H           2.3009   -1.1830   -1.5292 H       1  UNL1        0.0465
     56 H           1.1787    1.5491   -2.4395 H       1  UNL1        0.0303
     57 H           2.8606    0.8151   -2.7125 H       1  UNL1        0.0303
     58 H           2.3458    2.3718   -0.5444 H       1  UNL1        0.0595
     59 H           3.9156   -0.2290   -0.3177 H       1  UNL1        0.1498
     60 H           6.6553    3.3104    0.8340 H       1  UNL1        0.0625
     61 H           8.9974    2.7430    1.4707 H       1  UNL1        0.0618
     62 H           9.7133    0.4288    1.4506 H       1  UNL1        0.0623
     63 H           5.7829   -0.7506    0.1683 H       1  UNL1        0.0631
     64 H          -1.8811    0.5784   -1.8812 H       1  UNL1        0.0335
     65 H          -1.5411    1.3413    1.0883 H       1  UNL1        0.0503
     66 H          -0.6267    2.0358   -0.2891 H       1  UNL1        0.0503
     67 H          -3.3522    4.9006    0.5088 H       1  UNL1        0.0530
     68 H          -0.7865    4.2554   -0.5893 H       1  UNL1        0.0248
     69 H          -1.3311    5.8117    0.0889 H       1  UNL1        0.0248
     70 H          -0.4879    4.6350    1.1597 H       1  UNL1        0.0248
     71 H          -3.2859    4.4086    2.7078 H       1  UNL1        0.0248
     72 H          -2.8638    2.7303    2.2836 H       1  UNL1        0.0248
     73 H          -1.5638    3.9266    2.6238 H       1  UNL1        0.0248
     74 H          -3.3458   -0.0702    0.7172 H       1  UNL1        0.0284
     75 H          -3.9164    0.1127   -1.0203 H       1  UNL1        0.0284
@<TRIPOS>BOND
     1     1     2    1
     2     2     3    1
     3     2     4    1
     4     4     5    1
     5     4     6    1
     6     6     7    1
     7     7     8    1
     8     8     9    1
     9     9    10    1
    10    10    11    1
    11    11    12    1
    12    12    13    1
    13    13    14    1
    14    14    15   am
    15    15    16    2
    16    15    17    1
    17    17    18   ar
    18    18    19   ar
    19    19    20   ar
    20    20    21   ar
    21    21    22    1
    22    22    23    1
    23    22    24    1
    24    22    25    1
    25    21    26   ar
    26    13    27    1
    27    27    28    2
    28     9    29    1
    29    29    30    1
    30    30    31    1
    31    31    32    2
    32    31    33    2
    33    31    34    1
    34    34    35    1
    35    34    36    1
    36    29    37    1
    37    37     6    1
    38    27    10   am
    39    26    17   ar
    40     1    38    1
    41     1    39    1
    42     1    40    1
    43     2    41    1
    44     3    42    1
    45     3    43    1
    46     3    44    1
    47     5    45    1
    48     5    46    1
    49     5    47    1
    50     6    48    1
    51     7    49    1
    52     7    50    1
    53     8    51    1
    54     8    52    1
    55     9    53    1
    56    11    54    1
    57    11    55    1
    58    12    56    1
    59    12    57    1
    60    13    58    1
    61    14    59    1
    62    18    60    1
    63    19    61    1
    64    20    62    1
    65    26    63    1
    66    29    64    1
    67    30    65    1
    68    30    66    1
    69    34    67    1
    70    35    68    1
    71    35    69    1
    72    35    70    1
    73    36    71    1
    74    36    72    1
    75    36    73    1
    76    37    74    1
    77    37    75    1
