@<TRIPOS>MOLECULE
*****
 68 72 0 0 0
SMALL
GASTEIGER

@<TRIPOS>ATOM
      1 C          -2.8371    5.9813    1.1334 C.3     1  UNL1       -0.0653
      2 C          -1.9745    5.2928    0.0909 C.3     1  UNL1       -0.0556
      3 C          -2.2536    3.8285    0.1593 C.3     1  UNL1       -0.0478
      4 C          -1.4412    3.0090   -0.8386 C.3     1  UNL1       -0.0084
      5 C          -1.8228    1.5886   -0.6586 C.ar    1  UNL1        0.0677
      6 N          -2.7527    0.9565   -1.4553 N.ar    1  UNL1       -0.1703
      7 N          -2.9605   -0.2558   -1.0473 N.ar    1  UNL1       -0.2237
      8 C          -3.8642   -1.2090   -1.6428 C.ar    1  UNL1        0.0860
      9 C          -3.4845   -1.9751   -2.7233 C.ar    1  UNL1       -0.0347
     10 C          -4.3761   -2.8908   -3.2798 C.ar    1  UNL1       -0.0583
     11 C          -5.6486   -3.0572   -2.7746 C.ar    1  UNL1       -0.0418
     12 C          -6.0274   -2.2908   -1.6944 C.ar    1  UNL1        0.0613
     13 CL         -7.6462   -2.5165   -1.0688 Cl      1  UNL1       -0.0820
     14 C          -5.1338   -1.3809   -1.1451 C.ar    1  UNL1        0.0846
     15 CL         -5.6472   -0.4298    0.2204 Cl      1  UNL1       -0.0798
     16 C          -2.1797   -0.4675    0.0262 C.ar    1  UNL1        0.1549
     17 C          -2.1717   -1.7362    0.7403 C.2     1  UNL1        0.3581
     18 O          -1.4391   -1.9243    1.7428 O.2     1  UNL1       -0.2432
     19 O          -2.9727   -2.8049    0.3508 O.3     1  UNL1       -0.4604
     20 C          -2.9175   -4.0097    1.0833 C.3     1  UNL1        0.0900
     21 C          -3.2942   -3.7766    2.5172 C.3     1  UNL1       -0.0306
     22 C          -1.4493    0.6689    0.2980 C.ar    1  UNL1        0.0123
     23 C          -0.4319    0.8251    1.3362 C.3     1  UNL1        0.0016
     24 C           0.9344    0.4343    0.9791 C.ar    1  UNL1       -0.0429
     25 C           1.5370   -0.5895    1.7239 C.ar    1  UNL1       -0.0577
     26 C           2.8038   -1.0660    1.4710 C.ar    1  UNL1       -0.0537
     27 C           3.5682   -0.5490    0.4466 C.ar    1  UNL1       -0.0172
     28 C           4.9045   -1.0489    0.1475 C.ar    1  UNL1       -0.0072
     29 C           5.0811   -2.3518   -0.3384 C.ar    1  UNL1       -0.0534
     30 C           6.3187   -2.8671   -0.6449 C.ar    1  UNL1       -0.0611
     31 C           7.4466   -2.0926   -0.4767 C.ar    1  UNL1       -0.0611
     32 C           7.2861   -0.8124   -0.0003 C.ar    1  UNL1       -0.0504
     33 C           6.0243   -0.2835    0.3138 C.ar    1  UNL1        0.0282
     34 C           5.9072    1.0747    0.8342 C.ar    1  UNL1        0.1799
     35 N           4.8498    1.7450    1.2432 N.ar    1  UNL1       -0.1084
     36 N           5.2183    2.9441    1.6429 N.ar    1  UNL1       -0.0229
     37 N           6.5318    3.0573    1.4929 N.ar    1  UNL1       -0.0464
     38 N           6.9597    1.9063    0.9944 N.ar    1  UNL1       -0.2388
     39 C           2.9983    0.4560   -0.2968 C.ar    1  UNL1       -0.0537
     40 C           1.7085    0.9313   -0.0297 C.ar    1  UNL1       -0.0577
     41 H          -3.0625    7.0255    0.8587 H       1  UNL1        0.0230
     42 H          -2.2992    5.9146    2.1245 H       1  UNL1        0.0230
     43 H          -3.8033    5.4572    1.2636 H       1  UNL1        0.0230
     44 H          -2.2896    5.6363   -0.9345 H       1  UNL1        0.0263
     45 H          -0.9113    5.5633    0.1652 H       1  UNL1        0.0263
     46 H          -3.3237    3.6683   -0.1607 H       1  UNL1        0.0269
     47 H          -2.1606    3.3754    1.1475 H       1  UNL1        0.0269
     48 H          -1.6491    3.3168   -1.8858 H       1  UNL1        0.0329
     49 H          -0.3747    3.1490   -0.6661 H       1  UNL1        0.0329
     50 H          -2.4910   -1.8337   -3.1043 H       1  UNL1        0.0639
     51 H          -4.0680   -3.4796   -4.1188 H       1  UNL1        0.0619
     52 H          -6.3025   -3.7801   -3.2415 H       1  UNL1        0.0633
     53 H          -3.6317   -4.7004    0.5762 H       1  UNL1        0.0695
     54 H          -1.8797   -4.4034    1.0339 H       1  UNL1        0.0695
     55 H          -3.3867   -2.7084    2.7546 H       1  UNL1        0.0262
     56 H          -4.2802   -4.2451    2.7263 H       1  UNL1        0.0262
     57 H          -2.5568   -4.3091    3.1674 H       1  UNL1        0.0262
     58 H          -0.3929    1.8846    1.6965 H       1  UNL1        0.0363
     59 H          -0.7600    0.2544    2.2432 H       1  UNL1        0.0363
     60 H           0.9525   -1.0027    2.5450 H       1  UNL1        0.0621
     61 H           3.2558   -1.8568    2.0542 H       1  UNL1        0.0624
     62 H           4.1716   -2.9190   -0.4539 H       1  UNL1        0.0624
     63 H           6.4262   -3.8941   -1.0241 H       1  UNL1        0.0618
     64 H           8.4138   -2.5118   -0.7228 H       1  UNL1        0.0618
     65 H           8.1640   -0.2009    0.1336 H       1  UNL1        0.0625
     66 H           7.9825    1.7104    0.7693 H       1  UNL1        0.1923
     67 H           3.5939    0.8649   -1.1010 H       1  UNL1        0.0624
     68 H           1.3113    1.7102   -0.6427 H       1  UNL1        0.0621
@<TRIPOS>BOND
     1     1     2    1
     2     2     3    1
     3     3     4    1
     4     4     5    1
     5     5     6   ar
     6     6     7   ar
     7     7     8    1
     8     8     9   ar
     9     9    10   ar
    10    10    11   ar
    11    11    12   ar
    12    12    13    1
    13    12    14   ar
    14    14    15    1
    15     7    16   ar
    16    16    17    1
    17    17    18    2
    18    17    19    1
    19    19    20    1
    20    20    21    1
    21    16    22   ar
    22    22    23    1
    23    23    24    1
    24    24    25   ar
    25    25    26   ar
    26    26    27   ar
    27    27    28    1
    28    28    29   ar
    29    29    30   ar
    30    30    31   ar
    31    31    32   ar
    32    32    33   ar
    33    33    34    1
    34    34    35   ar
    35    35    36   ar
    36    36    37   ar
    37    37    38   ar
    38    27    39   ar
    39    39    40   ar
    40    22     5   ar
    41    40    24   ar
    42    14     8   ar
    43    33    28   ar
    44    38    34   ar
    45     1    41    1
    46     1    42    1
    47     1    43    1
    48     2    44    1
    49     2    45    1
    50     3    46    1
    51     3    47    1
    52     4    48    1
    53     4    49    1
    54     9    50    1
    55    10    51    1
    56    11    52    1
    57    20    53    1
    58    20    54    1
    59    21    55    1
    60    21    56    1
    61    21    57    1
    62    23    58    1
    63    23    59    1
    64    25    60    1
    65    26    61    1
    66    29    62    1
    67    30    63    1
    68    31    64    1
    69    32    65    1
    70    38    66    1
    71    39    67    1
    72    40    68    1
