
     RDKit          3D

 36 38  0  0  0  0  0  0  0  0999 V2000
    7.4895   -0.2150    0.0216 C   0  0  0  0  0  0  0  0  0  0  0  0
    6.0569    0.1750    0.0828 C   0  0  0  0  0  0  0  0  0  0  0  0
    5.7381    1.3761    0.3210 O   0  0  0  0  0  0  0  0  0  0  0  0
    5.0179   -0.7970   -0.1258 N   0  0  0  0  0  0  0  0  0  0  0  0
    3.6686   -0.4226   -0.0662 C   0  0  0  0  0  0  0  0  0  0  0  0
    2.5775   -1.2381   -0.2476 C   0  0  0  0  0  0  0  0  0  0  0  0
    1.4892   -0.4615   -0.1009 N   0  0  0  0  0  0  0  0  0  0  0  0
    0.1768   -0.7984   -0.1862 C   0  0  0  0  0  0  0  0  0  0  0  0
   -0.7610    0.1635    0.0009 C   0  0  0  0  0  0  0  0  0  0  0  0
   -2.1875   -0.1243   -0.0771 C   0  0  0  0  0  0  0  0  0  0  0  0
   -2.6774   -1.1016   -0.9248 C   0  0  0  0  0  0  0  0  0  0  0  0
   -4.0007   -1.3491   -0.9804 N   0  0  0  0  0  0  0  0  0  0  0  0
   -4.9080   -0.6821   -0.2373 C   0  0  0  0  0  0  0  0  0  0  0  0
   -6.2824   -1.0213   -0.3724 N   0  0  0  0  0  0  0  0  0  0  0  0
   -4.4664    0.3008    0.6220 C   0  0  0  0  0  0  0  0  0  0  0  0
   -5.4305    1.0612    1.4579 C   0  0  0  0  0  0  0  0  0  0  0  0
   -4.7170    1.9799    2.2264 F   0  0  0  0  0  0  0  0  0  0  0  0
   -6.2340    1.7682    0.5630 F   0  0  0  0  0  0  0  0  0  0  0  0
   -6.1705    0.2682    2.2787 F   0  0  0  0  0  0  0  0  0  0  0  0
   -3.1144    0.5595    0.6844 C   0  0  0  0  0  0  0  0  0  0  0  0
   -0.4032    1.4828    0.2772 C   0  0  0  0  0  0  0  0  0  0  0  0
    0.9280    1.8216    0.3630 C   0  0  0  0  0  0  0  0  0  0  0  0
    1.8555    0.8030    0.1641 C   0  0  0  0  0  0  0  0  0  0  0  0
    3.1983    0.8101    0.1821 N   0  0  0  0  0  0  0  0  0  0  0  0
    8.0622    0.3791    0.7908 H   0  0  0  0  0  0  0  0  0  0  0  0
    7.6265   -1.2704    0.2984 H   0  0  0  0  0  0  0  0  0  0  0  0
    7.9202   -0.0302   -1.0021 H   0  0  0  0  0  0  0  0  0  0  0  0
    5.3330   -1.7712   -0.3185 H   0  0  0  0  0  0  0  0  0  0  0  0
    2.5665   -2.2981   -0.4661 H   0  0  0  0  0  0  0  0  0  0  0  0
   -0.1141   -1.8241   -0.4010 H   0  0  0  0  0  0  0  0  0  0  0  0
   -1.9787   -1.6552   -1.5339 H   0  0  0  0  0  0  0  0  0  0  0  0
   -6.9533   -1.0833    0.4214 H   0  0  0  0  0  0  0  0  0  0  0  0
   -6.6742   -1.2281   -1.3262 H   0  0  0  0  0  0  0  0  0  0  0  0
   -2.7354    1.3392    1.3620 H   0  0  0  0  0  0  0  0  0  0  0  0
   -1.1664    2.2481    0.4261 H   0  0  0  0  0  0  0  0  0  0  0  0
    1.2703    2.8354    0.5760 H   0  0  0  0  0  0  0  0  0  0  0  0
  1  2  1  0
  2  3  2  0
  2  4  1  0
  4  5  1  0
  5  6  2  0
  6  7  1  0
  7  8  1  0
  8  9  2  0
  9 10  1  0
 10 11  2  0
 11 12  1  0
 12 13  2  0
 13 14  1  0
 13 15  1  0
 15 16  1  0
 16 17  1  0
 16 18  1  0
 16 19  1  0
 15 20  2  0
  9 21  1  0
 21 22  2  0
 22 23  1  0
 23 24  2  0
 24  5  1  0
 23  7  1  0
 20 10  1  0
  1 25  1  0
  1 26  1  0
  1 27  1  0
  4 28  1  0
  6 29  1  0
  8 30  1  0
 11 31  1  0
 14 32  1  0
 14 33  1  0
 20 34  1  0
 21 35  1  0
 22 36  1  0
M  END
$$$$
