@<TRIPOS>MOLECULE
*****
 36 38 0 0 0
SMALL
GASTEIGER

@<TRIPOS>ATOM
      1 C           7.4895   -0.2150    0.0216 C.3     1  UNL1        0.0125
      2 C           6.0569    0.1750    0.0828 C.2     1  UNL1        0.2152
      3 O           5.7381    1.3761    0.3210 O.2     1  UNL1       -0.2757
      4 N           5.0179   -0.7970   -0.1258 N.am    1  UNL1       -0.2694
      5 C           3.6686   -0.4226   -0.0662 C.ar    1  UNL1        0.1439
      6 C           2.5775   -1.2381   -0.2476 C.ar    1  UNL1        0.0513
      7 N           1.4892   -0.4615   -0.1009 N.ar    1  UNL1       -0.3041
      8 C           0.1768   -0.7984   -0.1862 C.ar    1  UNL1        0.0190
      9 C          -0.7610    0.1635    0.0009 C.ar    1  UNL1        0.0002
     10 C          -2.1875   -0.1243   -0.0771 C.ar    1  UNL1        0.0023
     11 C          -2.6774   -1.1016   -0.9248 C.ar    1  UNL1        0.0374
     12 N          -4.0007   -1.3491   -0.9804 N.ar    1  UNL1       -0.2396
     13 C          -4.9080   -0.6821   -0.2373 C.ar    1  UNL1        0.1279
     14 N          -6.2824   -1.0213   -0.3724 N.pl3   1  UNL1       -0.3427
     15 C          -4.4664    0.3008    0.6220 C.ar    1  UNL1        0.0948
     16 C          -5.4305    1.0612    1.4579 C.3     1  UNL1        0.4206
     17 F          -4.7170    1.9799    2.2264 F       1  UNL1       -0.1658
     18 F          -6.2340    1.7682    0.5630 F       1  UNL1       -0.1658
     19 F          -6.1705    0.2682    2.2787 F       1  UNL1       -0.1658
     20 C          -3.1144    0.5595    0.6844 C.ar    1  UNL1       -0.0376
     21 C          -0.4032    1.4828    0.2772 C.ar    1  UNL1       -0.0491
     22 C           0.9280    1.8216    0.3630 C.ar    1  UNL1       -0.0182
     23 C           1.8555    0.8030    0.1641 C.ar    1  UNL1        0.1397
     24 N           3.1983    0.8101    0.1821 N.ar    1  UNL1       -0.2129
     25 H           8.0622    0.3791    0.7908 H       1  UNL1        0.0323
     26 H           7.6265   -1.2704    0.2984 H       1  UNL1        0.0323
     27 H           7.9202   -0.0302   -1.0021 H       1  UNL1        0.0323
     28 H           5.3330   -1.7712   -0.3185 H       1  UNL1        0.1563
     29 H           2.5665   -2.2981   -0.4661 H       1  UNL1        0.0848
     30 H          -0.1141   -1.8241   -0.4010 H       1  UNL1        0.0819
     31 H          -1.9787   -1.6552   -1.5339 H       1  UNL1        0.0836
     32 H          -6.9533   -1.0833    0.4214 H       1  UNL1        0.1437
     33 H          -6.6742   -1.2281   -1.3262 H       1  UNL1        0.1437
     34 H          -2.7354    1.3392    1.3620 H       1  UNL1        0.0631
     35 H          -1.1664    2.2481    0.4261 H       1  UNL1        0.0625
     36 H           1.2703    2.8354    0.5760 H       1  UNL1        0.0654
@<TRIPOS>BOND
     1     1     2    1
     2     2     3    2
     3     2     4   am
     4     4     5    1
     5     5     6   ar
     6     6     7   ar
     7     7     8   ar
     8     8     9   ar
     9     9    10    1
    10    10    11   ar
    11    11    12   ar
    12    12    13   ar
    13    13    14    1
    14    13    15   ar
    15    15    16    1
    16    16    17    1
    17    16    18    1
    18    16    19    1
    19    15    20   ar
    20     9    21   ar
    21    21    22   ar
    22    22    23   ar
    23    23    24   ar
    24    24     5   ar
    25    23     7   ar
    26    20    10   ar
    27     1    25    1
    28     1    26    1
    29     1    27    1
    30     4    28    1
    31     6    29    1
    32     8    30    1
    33    11    31    1
    34    14    32    1
    35    14    33    1
    36    20    34    1
    37    21    35    1
    38    22    36    1
