
     RDKit          3D

 49 53  0  0  0  0  0  0  0  0999 V2000
    8.9383   -0.0183    1.3146 C   0  0  0  0  0  0  0  0  0  0  0  0
    7.7188   -0.3858    1.9027 O   0  0  0  0  0  0  0  0  0  0  0  0
    6.5411   -0.1397    1.2143 C   0  0  0  0  0  0  0  0  0  0  0  0
    5.3317   -0.5009    1.7910 C   0  0  0  0  0  0  0  0  0  0  0  0
    4.2067   -0.2511    1.1026 N   0  0  0  0  0  0  0  0  0  0  0  0
    4.2386    0.3291   -0.1055 C   0  0  0  0  0  0  0  0  0  0  0  0
    3.0220    0.6147   -0.8822 C   0  0  0  0  0  0  0  0  0  0  0  0
    3.1398    1.1500   -1.9839 O   0  0  0  0  0  0  0  0  0  0  0  0
    1.7481    0.2841   -0.3792 N   0  0  0  0  0  0  0  0  0  0  0  0
    0.4978    0.5052   -1.0259 C   0  0  0  0  0  0  0  0  0  0  0  0
    0.3282    1.0788   -2.2496 C   0  0  0  0  0  0  0  0  0  0  0  0
   -0.9181    1.2473   -2.7874 C   0  0  0  0  0  0  0  0  0  0  0  0
   -2.0939    0.8481   -2.1278 C   0  0  0  0  0  0  0  0  0  0  0  0
   -1.9285    0.2755   -0.9035 C   0  0  0  0  0  0  0  0  0  0  0  0
   -0.6486    0.1066   -0.3624 C   0  0  0  0  0  0  0  0  0  0  0  0
   -3.1021   -0.1750   -0.0909 C   0  0  0  0  0  0  0  0  0  0  0  0
   -3.1916    0.6913    1.1473 C   0  0  0  0  0  0  0  0  0  0  0  0
   -2.4963    0.2036    2.3571 C   0  0  0  0  0  0  0  0  0  0  0  0
   -2.4472   -1.1858    2.4192 O   0  0  0  0  0  0  0  0  0  0  0  0
   -2.6283   -2.0490    1.3563 C   0  0  0  0  0  0  0  0  0  0  0  0
   -2.4649   -3.4331    1.6172 N   0  0  0  0  0  0  0  0  0  0  0  0
   -2.9281   -1.5872    0.2070 N   0  0  0  0  0  0  0  0  0  0  0  0
   -4.3718    0.0520   -0.8224 C   0  0  0  0  0  0  0  0  0  0  0  0
   -5.5371   -0.3577   -0.1589 C   0  0  0  0  0  0  0  0  0  0  0  0
   -6.7581   -0.1696   -0.7535 C   0  0  0  0  0  0  0  0  0  0  0  0
   -8.2410   -0.6760    0.0595 Cl  0  0  0  0  0  0  0  0  0  0  0  0
   -6.7971    0.4030   -1.9562 N   0  0  0  0  0  0  0  0  0  0  0  0
   -5.7175    0.8087   -2.6264 C   0  0  0  0  0  0  0  0  0  0  0  0
   -5.7716    1.3893   -3.8485 F   0  0  0  0  0  0  0  0  0  0  0  0
   -4.4546    0.6343   -2.0544 C   0  0  0  0  0  0  0  0  0  0  0  0
   -3.3177    1.0510   -2.7445 O   0  0  0  0  0  0  0  0  0  0  0  0
    5.4469    0.6757   -0.6517 C   0  0  0  0  0  0  0  0  0  0  0  0
    6.5913    0.4411    0.0077 N   0  0  0  0  0  0  0  0  0  0  0  0
    8.8294    0.8698    0.6550 H   0  0  0  0  0  0  0  0  0  0  0  0
    9.2962   -0.8773    0.7033 H   0  0  0  0  0  0  0  0  0  0  0  0
    9.7187    0.2211    2.0574 H   0  0  0  0  0  0  0  0  0  0  0  0
    5.3638   -0.9593    2.7539 H   0  0  0  0  0  0  0  0  0  0  0  0
    1.7622   -0.1750    0.5828 H   0  0  0  0  0  0  0  0  0  0  0  0
    1.1626    1.4116   -2.8207 H   0  0  0  0  0  0  0  0  0  0  0  0
   -1.0748    1.7066   -3.7707 H   0  0  0  0  0  0  0  0  0  0  0  0
   -0.5612   -0.3648    0.6143 H   0  0  0  0  0  0  0  0  0  0  0  0
   -4.2816    0.8840    1.3923 H   0  0  0  0  0  0  0  0  0  0  0  0
   -2.7168    1.6760    0.8679 H   0  0  0  0  0  0  0  0  0  0  0  0
   -1.4972    0.6970    2.4849 H   0  0  0  0  0  0  0  0  0  0  0  0
   -3.0996    0.5867    3.2442 H   0  0  0  0  0  0  0  0  0  0  0  0
   -1.5382   -3.8767    1.5624 H   0  0  0  0  0  0  0  0  0  0  0  0
   -3.2922   -3.9941    1.8645 H   0  0  0  0  0  0  0  0  0  0  0  0
   -5.5015   -0.8210    0.8150 H   0  0  0  0  0  0  0  0  0  0  0  0
    5.4952    1.1556   -1.6478 H   0  0  0  0  0  0  0  0  0  0  0  0
  1  2  1  0
  2  3  1  0
  3  4  2  0
  4  5  1  0
  5  6  2  0
  6  7  1  0
  7  8  2  0
  7  9  1  0
  9 10  1  0
 10 11  2  0
 11 12  1  0
 12 13  2  0
 13 14  1  0
 14 15  2  0
 14 16  1  0
 16 17  1  0
 17 18  1  0
 18 19  1  0
 19 20  1  0
 20 21  1  0
 20 22  2  0
 16 23  1  0
 23 24  2  0
 24 25  1  0
 25 26  1  0
 25 27  2  0
 27 28  1  0
 28 29  1  0
 28 30  2  0
 30 31  1  0
  6 32  1  0
 32 33  2  0
 33  3  1  0
 15 10  1  0
 22 16  1  0
 30 23  1  0
 31 13  1  0
  1 34  1  0
  1 35  1  0
  1 36  1  0
  4 37  1  0
  9 38  1  0
 11 39  1  0
 12 40  1  0
 15 41  1  0
 17 42  1  0
 17 43  1  0
 18 44  1  0
 18 45  1  0
 21 46  1  0
 21 47  1  0
 24 48  1  0
 32 49  1  0
M  END
$$$$
