@<TRIPOS>MOLECULE
*****
 49 53 0 0 0
SMALL
GASTEIGER

@<TRIPOS>ATOM
      1 C           8.9383   -0.0183    1.3146 C.3     1  UNL1        0.0805
      2 O           7.7188   -0.3858    1.9027 O.3     1  UNL1       -0.4786
      3 C           6.5411   -0.1397    1.2143 C.ar    1  UNL1        0.2332
      4 C           5.3317   -0.5009    1.7910 C.ar    1  UNL1        0.0899
      5 N           4.2067   -0.2511    1.1026 N.ar    1  UNL1       -0.2435
      6 C           4.2386    0.3291   -0.1055 C.ar    1  UNL1        0.1439
      7 C           3.0220    0.6147   -0.8822 C.2     1  UNL1        0.2681
      8 O           3.1398    1.1500   -1.9839 O.2     1  UNL1       -0.2681
      9 N           1.7481    0.2841   -0.3792 N.am    1  UNL1       -0.2802
     10 C           0.4978    0.5052   -1.0259 C.ar    1  UNL1        0.0343
     11 C           0.3282    1.0788   -2.2496 C.ar    1  UNL1       -0.0370
     12 C          -0.9181    1.2473   -2.7874 C.ar    1  UNL1       -0.0172
     13 C          -2.0939    0.8481   -2.1278 C.ar    1  UNL1        0.1346
     14 C          -1.9285    0.2755   -0.9035 C.ar    1  UNL1        0.0287
     15 C          -0.6486    0.1066   -0.3624 C.ar    1  UNL1       -0.0312
     16 C          -3.1021   -0.1750   -0.0909 C.3     1  UNL1        0.1265
     17 C          -3.1916    0.6913    1.1473 C.3     1  UNL1        0.0155
     18 C          -2.4963    0.2036    2.3571 C.3     1  UNL1        0.0953
     19 O          -2.4472   -1.1858    2.4192 O.2     1  UNL1       -0.4658
     20 C          -2.6283   -2.0490    1.3563 C.2     1  UNL1        0.2763
     21 N          -2.4649   -3.4331    1.6172 N.pl3   1  UNL1       -0.3134
     22 N          -2.9281   -1.5872    0.2070 N.2     1  UNL1       -0.2205
     23 C          -4.3718    0.0520   -0.8224 C.ar    1  UNL1        0.0343
     24 C          -5.5371   -0.3577   -0.1589 C.ar    1  UNL1       -0.0153
     25 C          -6.7581   -0.1696   -0.7535 C.ar    1  UNL1        0.1329
     26 CL         -8.2410   -0.6760    0.0595 Cl      1  UNL1       -0.0619
     27 N          -6.7971    0.4030   -1.9562 N.ar    1  UNL1       -0.2045
     28 C          -5.7175    0.8087   -2.6264 C.ar    1  UNL1        0.2574
     29 F          -5.7716    1.3893   -3.8485 F       1  UNL1       -0.1799
     30 C          -4.4546    0.6343   -2.0544 C.ar    1  UNL1        0.1883
     31 O          -3.3177    1.0510   -2.7445 O.3     1  UNL1       -0.4508
     32 C           5.4469    0.6757   -0.6517 C.ar    1  UNL1        0.0619
     33 N           6.5913    0.4411    0.0077 N.ar    1  UNL1       -0.2178
     34 H           8.8294    0.8698    0.6550 H       1  UNL1        0.0660
     35 H           9.2962   -0.8773    0.7033 H       1  UNL1        0.0660
     36 H           9.7187    0.2211    2.0574 H       1  UNL1        0.0660
     37 H           5.3638   -0.9593    2.7539 H       1  UNL1        0.0884
     38 H           1.7622   -0.1750    0.5828 H       1  UNL1        0.1552
     39 H           1.1626    1.4116   -2.8207 H       1  UNL1        0.0637
     40 H          -1.0748    1.7066   -3.7707 H       1  UNL1        0.0655
     41 H          -0.5612   -0.3648    0.6143 H       1  UNL1        0.0641
     42 H          -4.2816    0.8840    1.3923 H       1  UNL1        0.0328
     43 H          -2.7168    1.6760    0.8679 H       1  UNL1        0.0328
     44 H          -1.4972    0.6970    2.4849 H       1  UNL1        0.0698
     45 H          -3.0996    0.5867    3.2442 H       1  UNL1        0.0698
     46 H          -1.5382   -3.8767    1.5624 H       1  UNL1        0.1466
     47 H          -3.2922   -3.9941    1.8645 H       1  UNL1        0.1466
     48 H          -5.5015   -0.8210    0.8150 H       1  UNL1        0.0652
     49 H           5.4952    1.1556   -1.6478 H       1  UNL1        0.0854
@<TRIPOS>BOND
     1     1     2    1
     2     2     3    1
     3     3     4   ar
     4     4     5   ar
     5     5     6   ar
     6     6     7    1
     7     7     8    2
     8     7     9   am
     9     9    10    1
    10    10    11   ar
    11    11    12   ar
    12    12    13   ar
    13    13    14   ar
    14    14    15   ar
    15    14    16    1
    16    16    17    1
    17    17    18    1
    18    18    19    1
    19    19    20    1
    20    20    21    1
    21    20    22    2
    22    16    23    1
    23    23    24   ar
    24    24    25   ar
    25    25    26    1
    26    25    27   ar
    27    27    28   ar
    28    28    29    1
    29    28    30   ar
    30    30    31    1
    31     6    32   ar
    32    32    33   ar
    33    33     3   ar
    34    15    10   ar
    35    22    16    1
    36    30    23   ar
    37    31    13    1
    38     1    34    1
    39     1    35    1
    40     1    36    1
    41     4    37    1
    42     9    38    1
    43    11    39    1
    44    12    40    1
    45    15    41    1
    46    17    42    1
    47    17    43    1
    48    18    44    1
    49    18    45    1
    50    21    46    1
    51    21    47    1
    52    24    48    1
    53    32    49    1
