@<TRIPOS>MOLECULE
*****
 71 76 0 0 0
SMALL
GASTEIGER

@<TRIPOS>ATOM
      1 C          -1.6514   -7.8111   -0.5939 C.3     1  UNL1        0.0804
      2 O          -1.2637   -6.5210   -0.9442 O.3     1  UNL1       -0.4795
      3 C          -1.1331   -5.4560   -0.0854 C.ar    1  UNL1        0.2191
      4 C          -0.7159   -4.1848   -0.4711 C.ar    1  UNL1        0.0404
      5 C          -0.6011   -3.1638    0.4079 C.ar    1  UNL1        0.1364
      6 N          -0.1707   -1.8441    0.0755 N.am    1  UNL1       -0.2240
      7 C           1.1845   -1.4534    0.1918 C.2     1  UNL1        0.3219
      8 O           2.1433   -2.0574    0.7188 O.2     1  UNL1       -0.2512
      9 N           1.3226   -0.1500   -0.4346 N.am    1  UNL1       -0.1920
     10 C           2.5478    0.5702   -0.4883 C.ar    1  UNL1        0.0455
     11 C           2.8943    1.2684    0.6827 C.ar    1  UNL1       -0.0392
     12 C           4.1142    1.8920    0.7152 C.ar    1  UNL1       -0.0523
     13 C           4.9854    1.8599   -0.3271 C.ar    1  UNL1       -0.0178
     14 C           6.3544    2.4177   -0.1629 C.ar    1  UNL1       -0.0178
     15 C           6.8749    2.2600    1.1675 C.ar    1  UNL1       -0.0528
     16 C           8.1797    2.7223    1.3037 C.ar    1  UNL1       -0.0438
     17 C           8.9442    3.2759    0.3304 C.ar    1  UNL1        0.0518
     18 C          10.3356    3.6797    0.5937 C.1     1  UNL1        0.0992
     19 N          11.4101    3.9711    0.7962 N.1     1  UNL1       -0.1909
     20 C           8.4038    3.4158   -0.9592 C.ar    1  UNL1       -0.0438
     21 C           7.0938    2.9461   -1.0883 C.ar    1  UNL1       -0.0528
     22 C           4.6175    1.1825   -1.4668 C.ar    1  UNL1       -0.0523
     23 C           3.4067    0.5445   -1.5407 C.ar    1  UNL1       -0.0392
     24 C           0.0665    0.2167   -0.9224 C.2     1  UNL1        0.2516
     25 O          -0.1805    1.2027   -1.7131 O.2     1  UNL1       -0.2724
     26 C          -0.9346   -0.7275   -0.3703 C.3     1  UNL1        0.1240
     27 C          -1.9668   -1.0753   -1.4015 C.3     1  UNL1       -0.0095
     28 C          -3.3820   -1.1022   -0.8779 C.3     1  UNL1        0.0017
     29 N          -3.7467    0.0570   -0.1743 N.3     1  UNL1       -0.2965
     30 C          -5.0846    0.0849    0.2550 C.3     1  UNL1        0.0415
     31 C          -5.4249    1.2932    1.0823 C.ar    1  UNL1        0.0581
     32 N          -5.5776    1.1328    2.4329 N.ar    1  UNL1       -0.2583
     33 C          -5.8800    2.2005    3.1927 C.ar    1  UNL1        0.0279
     34 C          -6.0229    3.4068    2.5720 C.ar    1  UNL1       -0.0433
     35 C          -5.8769    3.6092    1.2269 C.ar    1  UNL1       -0.0557
     36 C          -5.5669    2.5031    0.4673 C.ar    1  UNL1       -0.0279
     37 C          -5.3934    2.6593   -1.0154 C.3     1  UNL1       -0.0380
     38 C          -2.7425    0.7504    0.5175 C.3     1  UNL1        0.0017
     39 C          -1.5114   -0.0488    0.8544 C.3     1  UNL1       -0.0095
     40 N          -0.9061   -3.3932    1.7189 N.ar    1  UNL1       -0.2200
     41 C          -1.3154   -4.6395    2.0869 C.ar    1  UNL1        0.1219
     42 N          -1.4185   -5.6250    1.1957 N.ar    1  UNL1       -0.2013
     43 H          -0.9770   -8.5479   -1.1346 H       1  UNL1        0.0660
     44 H          -2.6817   -8.0596   -0.9295 H       1  UNL1        0.0660
     45 H          -1.5431   -8.0265    0.4909 H       1  UNL1        0.0660
     46 H          -0.4889   -4.0841   -1.5134 H       1  UNL1        0.0705
     47 H           2.1984    1.2839    1.4859 H       1  UNL1        0.0636
     48 H           4.3774    2.4581    1.6163 H       1  UNL1        0.0624
     49 H           6.2718    1.8334    1.9004 H       1  UNL1        0.0624
     50 H           8.6449    2.6198    2.2996 H       1  UNL1        0.0631
     51 H           8.9932    3.8499   -1.7087 H       1  UNL1        0.0631
     52 H           6.7123    3.0883   -2.1324 H       1  UNL1        0.0624
     53 H           5.2940    1.1716   -2.3073 H       1  UNL1        0.0624
     54 H           3.1252    0.0031   -2.4314 H       1  UNL1        0.0636
     55 H          -1.7610   -2.0975   -1.7716 H       1  UNL1        0.0303
     56 H          -1.8375   -0.3860   -2.2632 H       1  UNL1        0.0303
     57 H          -4.0318   -1.1847   -1.8045 H       1  UNL1        0.0427
     58 H          -3.5932   -2.0348   -0.3273 H       1  UNL1        0.0427
     59 H          -5.4323   -0.8313    0.8248 H       1  UNL1        0.0491
     60 H          -5.7245    0.1654   -0.6832 H       1  UNL1        0.0491
     61 H          -6.0353    2.1588    4.2815 H       1  UNL1        0.0829
     62 H          -6.2718    4.2730    3.1962 H       1  UNL1        0.0633
     63 H          -5.9763    4.5434    0.7058 H       1  UNL1        0.0621
     64 H          -4.3388    2.3938   -1.3002 H       1  UNL1        0.0278
     65 H          -5.6526    3.6949   -1.3187 H       1  UNL1        0.0278
     66 H          -6.0266    1.9372   -1.5718 H       1  UNL1        0.0278
     67 H          -2.4445    1.6860   -0.0235 H       1  UNL1        0.0427
     68 H          -3.1671    1.1120    1.4999 H       1  UNL1        0.0427
     69 H          -1.7345   -0.7879    1.6577 H       1  UNL1        0.0303
     70 H          -0.7548    0.6535    1.2651 H       1  UNL1        0.0303
     71 H          -1.5552   -4.7554    3.1550 H       1  UNL1        0.1049
@<TRIPOS>BOND
     1     1     2    1
     2     2     3    1
     3     3     4   ar
     4     4     5   ar
     5     5     6    1
     6     6     7   am
     7     7     8    2
     8     7     9   am
     9     9    10    1
    10    10    11   ar
    11    11    12   ar
    12    12    13   ar
    13    13    14    1
    14    14    15   ar
    15    15    16   ar
    16    16    17   ar
    17    17    18    1
    18    18    19    3
    19    17    20   ar
    20    20    21   ar
    21    13    22   ar
    22    22    23   ar
    23     9    24   am
    24    24    25    2
    25    24    26    1
    26    26    27    1
    27    27    28    1
    28    28    29    1
    29    29    30    1
    30    30    31    1
    31    31    32   ar
    32    32    33   ar
    33    33    34   ar
    34    34    35   ar
    35    35    36   ar
    36    36    37    1
    37    29    38    1
    38    38    39    1
    39     5    40   ar
    40    40    41   ar
    41    41    42   ar
    42    42     3   ar
    43    26     6    1
    44    36    31   ar
    45    23    10   ar
    46    39    26    1
    47    21    14   ar
    48     1    43    1
    49     1    44    1
    50     1    45    1
    51     4    46    1
    52    11    47    1
    53    12    48    1
    54    15    49    1
    55    16    50    1
    56    20    51    1
    57    21    52    1
    58    22    53    1
    59    23    54    1
    60    27    55    1
    61    27    56    1
    62    28    57    1
    63    28    58    1
    64    30    59    1
    65    30    60    1
    66    33    61    1
    67    34    62    1
    68    35    63    1
    69    37    64    1
    70    37    65    1
    71    37    66    1
    72    38    67    1
    73    38    68    1
    74    39    69    1
    75    39    70    1
    76    41    71    1
