
     RDKit          3D

 71 76  0  0  0  0  0  0  0  0999 V2000
   -1.6514   -7.8111   -0.5939 C   0  0  0  0  0  0  0  0  0  0  0  0
   -1.2637   -6.5210   -0.9442 O   0  0  0  0  0  0  0  0  0  0  0  0
   -1.1331   -5.4560   -0.0854 C   0  0  0  0  0  0  0  0  0  0  0  0
   -0.7159   -4.1848   -0.4711 C   0  0  0  0  0  0  0  0  0  0  0  0
   -0.6011   -3.1638    0.4079 C   0  0  0  0  0  0  0  0  0  0  0  0
   -0.1707   -1.8441    0.0755 N   0  0  0  0  0  0  0  0  0  0  0  0
    1.1845   -1.4534    0.1918 C   0  0  0  0  0  0  0  0  0  0  0  0
    2.1433   -2.0574    0.7188 O   0  0  0  0  0  0  0  0  0  0  0  0
    1.3226   -0.1500   -0.4346 N   0  0  0  0  0  0  0  0  0  0  0  0
    2.5478    0.5702   -0.4883 C   0  0  0  0  0  0  0  0  0  0  0  0
    2.8943    1.2684    0.6827 C   0  0  0  0  0  0  0  0  0  0  0  0
    4.1142    1.8920    0.7152 C   0  0  0  0  0  0  0  0  0  0  0  0
    4.9854    1.8599   -0.3271 C   0  0  0  0  0  0  0  0  0  0  0  0
    6.3544    2.4177   -0.1629 C   0  0  0  0  0  0  0  0  0  0  0  0
    6.8749    2.2600    1.1675 C   0  0  0  0  0  0  0  0  0  0  0  0
    8.1797    2.7223    1.3037 C   0  0  0  0  0  0  0  0  0  0  0  0
    8.9442    3.2759    0.3304 C   0  0  0  0  0  0  0  0  0  0  0  0
   10.3356    3.6797    0.5937 C   0  0  0  0  0  0  0  0  0  0  0  0
   11.4101    3.9711    0.7962 N   0  0  0  0  0  0  0  0  0  0  0  0
    8.4038    3.4158   -0.9592 C   0  0  0  0  0  0  0  0  0  0  0  0
    7.0938    2.9461   -1.0883 C   0  0  0  0  0  0  0  0  0  0  0  0
    4.6175    1.1825   -1.4668 C   0  0  0  0  0  0  0  0  0  0  0  0
    3.4067    0.5445   -1.5407 C   0  0  0  0  0  0  0  0  0  0  0  0
    0.0665    0.2167   -0.9224 C   0  0  0  0  0  0  0  0  0  0  0  0
   -0.1805    1.2027   -1.7131 O   0  0  0  0  0  0  0  0  0  0  0  0
   -0.9346   -0.7275   -0.3703 C   0  0  0  0  0  0  0  0  0  0  0  0
   -1.9668   -1.0753   -1.4015 C   0  0  0  0  0  0  0  0  0  0  0  0
   -3.3820   -1.1022   -0.8779 C   0  0  0  0  0  0  0  0  0  0  0  0
   -3.7467    0.0570   -0.1743 N   0  0  0  0  0  0  0  0  0  0  0  0
   -5.0846    0.0849    0.2550 C   0  0  0  0  0  0  0  0  0  0  0  0
   -5.4249    1.2932    1.0823 C   0  0  0  0  0  0  0  0  0  0  0  0
   -5.5776    1.1328    2.4329 N   0  0  0  0  0  0  0  0  0  0  0  0
   -5.8800    2.2005    3.1927 C   0  0  0  0  0  0  0  0  0  0  0  0
   -6.0229    3.4068    2.5720 C   0  0  0  0  0  0  0  0  0  0  0  0
   -5.8769    3.6092    1.2269 C   0  0  0  0  0  0  0  0  0  0  0  0
   -5.5669    2.5031    0.4673 C   0  0  0  0  0  0  0  0  0  0  0  0
   -5.3934    2.6593   -1.0154 C   0  0  0  0  0  0  0  0  0  0  0  0
   -2.7425    0.7504    0.5175 C   0  0  0  0  0  0  0  0  0  0  0  0
   -1.5114   -0.0488    0.8544 C   0  0  0  0  0  0  0  0  0  0  0  0
   -0.9061   -3.3932    1.7189 N   0  0  0  0  0  0  0  0  0  0  0  0
   -1.3154   -4.6395    2.0869 C   0  0  0  0  0  0  0  0  0  0  0  0
   -1.4185   -5.6250    1.1957 N   0  0  0  0  0  0  0  0  0  0  0  0
   -0.9770   -8.5479   -1.1346 H   0  0  0  0  0  0  0  0  0  0  0  0
   -2.6817   -8.0596   -0.9295 H   0  0  0  0  0  0  0  0  0  0  0  0
   -1.5431   -8.0265    0.4909 H   0  0  0  0  0  0  0  0  0  0  0  0
   -0.4889   -4.0841   -1.5134 H   0  0  0  0  0  0  0  0  0  0  0  0
    2.1984    1.2839    1.4859 H   0  0  0  0  0  0  0  0  0  0  0  0
    4.3774    2.4581    1.6163 H   0  0  0  0  0  0  0  0  0  0  0  0
    6.2718    1.8334    1.9004 H   0  0  0  0  0  0  0  0  0  0  0  0
    8.6449    2.6198    2.2996 H   0  0  0  0  0  0  0  0  0  0  0  0
    8.9932    3.8499   -1.7087 H   0  0  0  0  0  0  0  0  0  0  0  0
    6.7123    3.0883   -2.1324 H   0  0  0  0  0  0  0  0  0  0  0  0
    5.2940    1.1716   -2.3073 H   0  0  0  0  0  0  0  0  0  0  0  0
    3.1252    0.0031   -2.4314 H   0  0  0  0  0  0  0  0  0  0  0  0
   -1.7610   -2.0975   -1.7716 H   0  0  0  0  0  0  0  0  0  0  0  0
   -1.8375   -0.3860   -2.2632 H   0  0  0  0  0  0  0  0  0  0  0  0
   -4.0318   -1.1847   -1.8045 H   0  0  0  0  0  0  0  0  0  0  0  0
   -3.5932   -2.0348   -0.3273 H   0  0  0  0  0  0  0  0  0  0  0  0
   -5.4323   -0.8313    0.8248 H   0  0  0  0  0  0  0  0  0  0  0  0
   -5.7245    0.1654   -0.6832 H   0  0  0  0  0  0  0  0  0  0  0  0
   -6.0353    2.1588    4.2815 H   0  0  0  0  0  0  0  0  0  0  0  0
   -6.2718    4.2730    3.1962 H   0  0  0  0  0  0  0  0  0  0  0  0
   -5.9763    4.5434    0.7058 H   0  0  0  0  0  0  0  0  0  0  0  0
   -4.3388    2.3938   -1.3002 H   0  0  0  0  0  0  0  0  0  0  0  0
   -5.6526    3.6949   -1.3187 H   0  0  0  0  0  0  0  0  0  0  0  0
   -6.0266    1.9372   -1.5718 H   0  0  0  0  0  0  0  0  0  0  0  0
   -2.4445    1.6860   -0.0235 H   0  0  0  0  0  0  0  0  0  0  0  0
   -3.1671    1.1120    1.4999 H   0  0  0  0  0  0  0  0  0  0  0  0
   -1.7345   -0.7879    1.6577 H   0  0  0  0  0  0  0  0  0  0  0  0
   -0.7548    0.6535    1.2651 H   0  0  0  0  0  0  0  0  0  0  0  0
   -1.5552   -4.7554    3.1550 H   0  0  0  0  0  0  0  0  0  0  0  0
  1  2  1  0
  2  3  1  0
  3  4  2  0
  4  5  1  0
  5  6  1  0
  6  7  1  0
  7  8  2  0
  7  9  1  0
  9 10  1  0
 10 11  2  0
 11 12  1  0
 12 13  2  0
 13 14  1  0
 14 15  2  0
 15 16  1  0
 16 17  2  0
 17 18  1  0
 18 19  3  0
 17 20  1  0
 20 21  2  0
 13 22  1  0
 22 23  2  0
  9 24  1  0
 24 25  2  0
 24 26  1  0
 26 27  1  0
 27 28  1  0
 28 29  1  0
 29 30  1  0
 30 31  1  0
 31 32  2  0
 32 33  1  0
 33 34  2  0
 34 35  1  0
 35 36  2  0
 36 37  1  0
 29 38  1  0
 38 39  1  0
  5 40  2  0
 40 41  1  0
 41 42  2  0
 42  3  1  0
 26  6  1  0
 36 31  1  0
 23 10  1  0
 39 26  1  0
 21 14  1  0
  1 43  1  0
  1 44  1  0
  1 45  1  0
  4 46  1  0
 11 47  1  0
 12 48  1  0
 15 49  1  0
 16 50  1  0
 20 51  1  0
 21 52  1  0
 22 53  1  0
 23 54  1  0
 27 55  1  0
 27 56  1  0
 28 57  1  0
 28 58  1  0
 30 59  1  0
 30 60  1  0
 33 61  1  0
 34 62  1  0
 35 63  1  0
 37 64  1  0
 37 65  1  0
 37 66  1  0
 38 67  1  0
 38 68  1  0
 39 69  1  0
 39 70  1  0
 41 71  1  0
M  END
$$$$
