
     RDKit          3D

 61 64  0  0  0  0  0  0  0  0999 V2000
    5.6969   -3.4192    0.3414 C   0  0  0  0  0  0  0  0  0  0  0  0
    5.0450   -2.2868   -0.3709 C   0  0  0  0  0  0  0  0  0  0  0  0
    5.6144   -1.7501   -1.3678 O   0  0  0  0  0  0  0  0  0  0  0  0
    3.8180   -1.8492    0.0856 O   0  0  0  0  0  0  0  0  0  0  0  0
    3.1606   -0.7916   -0.5432 C   0  0  1  0  0  0  0  0  0  0  0  0
    1.8355   -1.2247   -1.0823 C   0  0  2  0  0  0  0  0  0  0  0  0
    1.2879   -0.2686   -2.1059 C   0  0  0  0  0  0  0  0  0  0  0  0
    0.9007   -1.4933   -0.0680 O   0  0  0  0  0  0  0  0  0  0  0  0
    0.6659   -0.2567    0.5771 C   0  0  1  0  0  0  0  0  0  0  0  0
   -0.4633   -0.2418    1.4047 O   0  0  0  0  0  0  0  0  0  0  0  0
   -1.6694    0.3344    1.0576 C   0  0  0  0  0  0  0  0  0  0  0  0
   -2.7175   -0.3677    0.5309 C   0  0  0  0  0  0  0  0  0  0  0  0
   -2.7188   -1.8146    0.2834 C   0  0  0  0  0  0  0  0  0  0  0  0
   -3.7072   -2.3603   -0.5290 C   0  0  0  0  0  0  0  0  0  0  0  0
   -3.8252   -3.7080   -0.7696 C   0  0  0  0  0  0  0  0  0  0  0  0
   -2.9400   -4.5940   -0.1961 C   0  0  0  0  0  0  0  0  0  0  0  0
   -3.0344   -5.9745   -0.4232 O   0  0  0  0  0  0  0  0  0  0  0  0
   -1.9642   -4.0863    0.6030 C   0  0  0  0  0  0  0  0  0  0  0  0
   -1.8537   -2.7062    0.8424 C   0  0  0  0  0  0  0  0  0  0  0  0
   -3.8386    0.2905    0.2098 O   0  0  0  0  0  0  0  0  0  0  0  0
   -4.0529    1.5454    0.3464 C   0  0  0  0  0  0  0  0  0  0  0  0
   -5.2261    2.1850    0.0020 C   0  0  0  0  0  0  0  0  0  0  0  0
   -5.3130    3.5434    0.2068 C   0  0  0  0  0  0  0  0  0  0  0  0
   -6.5096    4.1982   -0.1441 O   0  0  0  0  0  0  0  0  0  0  0  0
   -4.2864    4.2904    0.7377 C   0  0  0  0  0  0  0  0  0  0  0  0
   -3.0879    3.6932    1.0994 C   0  0  0  0  0  0  0  0  0  0  0  0
   -2.1373    4.3558    1.5859 O   0  0  0  0  0  0  0  0  0  0  0  0
   -2.9734    2.3534    0.9086 C   0  0  0  0  0  0  0  0  0  0  0  0
   -1.7900    1.6918    1.2510 C   0  0  0  0  0  0  0  0  0  0  0  0
   -0.8008    2.4823    1.7753 O   0  0  0  0  0  0  0  0  0  0  0  0
    1.9124    0.0341    1.3699 C   0  0  2  0  0  0  0  0  0  0  0  0
    1.7704    0.9889    2.3349 O   0  0  0  0  0  0  0  0  0  0  0  0
    3.0752    0.3513    0.4472 C   0  0  2  0  0  0  0  0  0  0  0  0
    2.9412    1.6040   -0.1759 O   0  0  0  0  0  0  0  0  0  0  0  0
    3.8870    2.5965    0.0275 C   0  0  0  0  0  0  0  0  0  0  0  0
    3.7959    3.9388   -0.6054 C   0  0  0  0  0  0  0  0  0  0  0  0
    4.8657    2.3683    0.7732 O   0  0  0  0  0  0  0  0  0  0  0  0
    6.7943   -3.3109    0.2587 H   0  0  0  0  0  0  0  0  0  0  0  0
    5.4254   -3.4164    1.4090 H   0  0  0  0  0  0  0  0  0  0  0  0
    5.3496   -4.3477   -0.1802 H   0  0  0  0  0  0  0  0  0  0  0  0
    3.7692   -0.4243   -1.3897 H   0  0  0  0  0  0  0  0  0  0  0  0
    2.0006   -2.2094   -1.5907 H   0  0  0  0  0  0  0  0  0  0  0  0
    1.6559   -0.5804   -3.1105 H   0  0  0  0  0  0  0  0  0  0  0  0
    1.6763    0.7757   -1.9694 H   0  0  0  0  0  0  0  0  0  0  0  0
    0.1916   -0.3182   -2.1169 H   0  0  0  0  0  0  0  0  0  0  0  0
    0.5905    0.4568   -0.2725 H   0  0  0  0  0  0  0  0  0  0  0  0
   -4.4073   -1.6787   -0.9855 H   0  0  0  0  0  0  0  0  0  0  0  0
   -4.5986   -4.1125   -1.4034 H   0  0  0  0  0  0  0  0  0  0  0  0
   -3.5285   -6.3644   -1.1973 H   0  0  0  0  0  0  0  0  0  0  0  0
   -1.2557   -4.7698    1.0650 H   0  0  0  0  0  0  0  0  0  0  0  0
   -1.0791   -2.3671    1.5005 H   0  0  0  0  0  0  0  0  0  0  0  0
   -6.0109    1.5790   -0.4100 H   0  0  0  0  0  0  0  0  0  0  0  0
   -6.4820    5.1535   -0.4399 H   0  0  0  0  0  0  0  0  0  0  0  0
   -4.3503    5.3651    0.9017 H   0  0  0  0  0  0  0  0  0  0  0  0
   -0.7280    2.7821    2.7253 H   0  0  0  0  0  0  0  0  0  0  0  0
    2.2494   -0.9052    1.9142 H   0  0  0  0  0  0  0  0  0  0  0  0
    1.9359    1.8930    1.9858 H   0  0  0  0  0  0  0  0  0  0  0  0
    3.9853    0.3327    1.0580 H   0  0  0  0  0  0  0  0  0  0  0  0
    2.8049    4.1410   -1.0309 H   0  0  0  0  0  0  0  0  0  0  0  0
    4.5166    3.9352   -1.4587 H   0  0  0  0  0  0  0  0  0  0  0  0
    4.1315    4.7386    0.0871 H   0  0  0  0  0  0  0  0  0  0  0  0
  1  2  1  0
  2  3  2  0
  2  4  1  0
  4  5  1  0
  5  6  1  0
  6  7  1  0
  6  8  1  0
  8  9  1  0
  9 10  1  0
 10 11  1  0
 11 12  2  0
 12 13  1  0
 13 14  2  0
 14 15  1  0
 15 16  2  0
 16 17  1  0
 16 18  1  0
 18 19  2  0
 12 20  1  0
 20 21  1  0
 21 22  2  0
 22 23  1  0
 23 24  1  0
 23 25  2  0
 25 26  1  0
 26 27  2  0
 26 28  1  0
 28 29  2  0
 29 30  1  0
  9 31  1  0
 31 32  1  0
 31 33  1  0
 33 34  1  0
 34 35  1  0
 35 36  1  0
 35 37  2  0
 33  5  1  0
 29 11  1  0
 19 13  1  0
 28 21  1  0
  1 38  1  0
  1 39  1  0
  1 40  1  0
  5 41  1  6
  6 42  1  6
  7 43  1  0
  7 44  1  0
  7 45  1  0
  9 46  1  6
 14 47  1  0
 15 48  1  0
 17 49  1  0
 18 50  1  0
 19 51  1  0
 22 52  1  0
 24 53  1  0
 25 54  1  0
 30 55  1  0
 31 56  1  1
 32 57  1  0
 33 58  1  1
 36 59  1  0
 36 60  1  0
 36 61  1  0
M  END
$$$$
