@<TRIPOS>MOLECULE
*****
 61 64 0 0 0
SMALL
GASTEIGER

@<TRIPOS>ATOM
      1 C           5.6969   -3.4192    0.3414 C.3     1  UNL1        0.0332
      2 C           5.0450   -2.2868   -0.3709 C.2     1  UNL1        0.3044
      3 O           5.6144   -1.7501   -1.3678 O.2     1  UNL1       -0.2512
      4 O           3.8180   -1.8492    0.0856 O.3     1  UNL1       -0.4551
      5 C           3.1606   -0.7916   -0.5432 C.3     1  UNL1        0.1681
      6 C           1.8355   -1.2247   -1.0823 C.3     1  UNL1        0.1004
      7 C           1.2879   -0.2686   -2.1059 C.3     1  UNL1       -0.0349
      8 O           0.9007   -1.4933   -0.0680 O.3     1  UNL1       -0.3327
      9 C           0.6659   -0.2567    0.5771 C.3     1  UNL1        0.2322
     10 O          -0.4633   -0.2418    1.4047 O.3     1  UNL1       -0.4534
     11 C          -1.6694    0.3344    1.0576 C.ar    1  UNL1        0.2085
     12 C          -2.7175   -0.3677    0.5309 C.ar    1  UNL1        0.1807
     13 C          -2.7188   -1.8146    0.2834 C.ar    1  UNL1        0.0213
     14 C          -3.7072   -2.3603   -0.5290 C.ar    1  UNL1       -0.0475
     15 C          -3.8252   -3.7080   -0.7696 C.ar    1  UNL1       -0.0195
     16 C          -2.9400   -4.5940   -0.1961 C.ar    1  UNL1        0.1169
     17 O          -3.0344   -5.9745   -0.4232 O.3     1  UNL1       -0.5068
     18 C          -1.9642   -4.0863    0.6030 C.ar    1  UNL1       -0.0195
     19 C          -1.8537   -2.7062    0.8424 C.ar    1  UNL1       -0.0475
     20 O          -3.8386    0.2905    0.2098 O.2     1  UNL1       -0.4507
     21 C          -4.0529    1.5454    0.3464 C.ar    1  UNL1        0.1465
     22 C          -5.2261    2.1850    0.0020 C.ar    1  UNL1        0.0231
     23 C          -5.3130    3.5434    0.2068 C.ar    1  UNL1        0.1240
     24 O          -6.5096    4.1982   -0.1441 O.3     1  UNL1       -0.5065
     25 C          -4.2864    4.2904    0.7377 C.ar    1  UNL1        0.0275
     26 C          -3.0879    3.6932    1.0994 C.ar    1  UNL1        0.1967
     27 O          -2.1373    4.3558    1.5859 O.2     1  UNL1       -0.2869
     28 C          -2.9734    2.3534    0.9086 C.ar    1  UNL1        0.1091
     29 C          -1.7900    1.6918    1.2510 C.ar    1  UNL1        0.1769
     30 O          -0.8008    2.4823    1.7753 O.3     1  UNL1       -0.5027
     31 C           1.9124    0.0341    1.3699 C.3     1  UNL1        0.1575
     32 O           1.7704    0.9889    2.3349 O.3     1  UNL1       -0.3818
     33 C           3.0752    0.3513    0.4472 C.3     1  UNL1        0.1736
     34 O           2.9412    1.6040   -0.1759 O.3     1  UNL1       -0.4548
     35 C           3.8870    2.5965    0.0275 C.2     1  UNL1        0.3044
     36 C           3.7959    3.9388   -0.6054 C.3     1  UNL1        0.0332
     37 O           4.8657    2.3683    0.7732 O.2     1  UNL1       -0.2512
     38 H           6.7943   -3.3109    0.2587 H       1  UNL1        0.0342
     39 H           5.4254   -3.4164    1.4090 H       1  UNL1        0.0342
     40 H           5.3496   -4.3477   -0.1802 H       1  UNL1        0.0342
     41 H           3.7692   -0.4243   -1.3897 H       1  UNL1        0.0799
     42 H           2.0006   -2.2094   -1.5907 H       1  UNL1        0.0633
     43 H           1.6559   -0.5804   -3.1105 H       1  UNL1        0.0256
     44 H           1.6763    0.7757   -1.9694 H       1  UNL1        0.0256
     45 H           0.1916   -0.3182   -2.1169 H       1  UNL1        0.0256
     46 H           0.5905    0.4568   -0.2725 H       1  UNL1        0.1085
     47 H          -4.4073   -1.6787   -0.9855 H       1  UNL1        0.0626
     48 H          -4.5986   -4.1125   -1.4034 H       1  UNL1        0.0654
     49 H          -3.5285   -6.3644   -1.1973 H       1  UNL1        0.2921
     50 H          -1.2557   -4.7698    1.0650 H       1  UNL1        0.0654
     51 H          -1.0791   -2.3671    1.5005 H       1  UNL1        0.0626
     52 H          -6.0109    1.5790   -0.4100 H       1  UNL1        0.0691
     53 H          -6.4820    5.1535   -0.4399 H       1  UNL1        0.2921
     54 H          -4.3503    5.3651    0.9017 H       1  UNL1        0.0693
     55 H          -0.7280    2.7821    2.7253 H       1  UNL1        0.2923
     56 H           2.2494   -0.9052    1.9142 H       1  UNL1        0.0695
     57 H           1.9359    1.8930    1.9858 H       1  UNL1        0.2102
     58 H           3.9853    0.3327    1.0580 H       1  UNL1        0.0801
     59 H           2.8049    4.1410   -1.0309 H       1  UNL1        0.0342
     60 H           4.5166    3.9352   -1.4587 H       1  UNL1        0.0342
     61 H           4.1315    4.7386    0.0871 H       1  UNL1        0.0342
@<TRIPOS>BOND
     1     1     2    1
     2     2     3    2
     3     2     4    1
     4     4     5    1
     5     5     6    1
     6     6     7    1
     7     6     8    1
     8     8     9    1
     9     9    10    1
    10    10    11    1
    11    11    12   ar
    12    12    13    1
    13    13    14   ar
    14    14    15   ar
    15    15    16   ar
    16    16    17    1
    17    16    18   ar
    18    18    19   ar
    19    12    20   ar
    20    20    21   ar
    21    21    22   ar
    22    22    23   ar
    23    23    24    1
    24    23    25   ar
    25    25    26   ar
    26    26    27    2
    27    26    28   ar
    28    28    29   ar
    29    29    30    1
    30     9    31    1
    31    31    32    1
    32    31    33    1
    33    33    34    1
    34    34    35    1
    35    35    36    1
    36    35    37    2
    37    33     5    1
    38    29    11   ar
    39    19    13   ar
    40    28    21    1
    41     1    38    1
    42     1    39    1
    43     1    40    1
    44     5    41    1
    45     6    42    1
    46     7    43    1
    47     7    44    1
    48     7    45    1
    49     9    46    1
    50    14    47    1
    51    15    48    1
    52    17    49    1
    53    18    50    1
    54    19    51    1
    55    22    52    1
    56    24    53    1
    57    25    54    1
    58    30    55    1
    59    31    56    1
    60    32    57    1
    61    33    58    1
    62    36    59    1
    63    36    60    1
    64    36    61    1
