
     RDKit          3D

 69 71  0  0  0  0  0  0  0  0999 V2000
   -2.1974    3.1012   -2.7475 C   0  0  0  0  0  0  0  0  0  0  0  0
   -0.9218    2.3876   -2.3796 C   0  0  0  0  0  0  0  0  0  0  0  0
   -0.1564    3.2858   -1.4157 C   0  0  0  0  0  0  0  0  0  0  0  0
   -1.1586    1.1990   -1.7348 O   0  0  0  0  0  0  0  0  0  0  0  0
   -0.5927    0.1269   -2.3338 N   0  0  0  0  0  0  0  0  0  0  0  0
    0.7609    0.0376   -1.8878 C   0  0  2  0  0  0  0  0  0  0  0  0
    1.5805   -0.8813   -2.7266 C   0  0  0  0  0  0  0  0  0  0  0  0
    2.9683   -1.0225   -2.2539 C   0  0  0  0  0  0  0  0  0  0  0  0
    3.1031   -1.6618   -0.9656 N   0  0  0  0  0  0  0  0  0  0  0  0
    4.4090   -1.8178   -0.3651 C   0  0  0  0  0  0  0  0  0  0  0  0
    5.4209   -1.3934   -0.9733 O   0  0  0  0  0  0  0  0  0  0  0  0
    4.5864   -2.4136    0.8476 O   0  0  0  0  0  0  0  0  0  0  0  0
    5.7736   -2.6358    1.5545 C   0  0  0  0  0  0  0  0  0  0  0  0
    6.4285   -1.3503    1.8413 C   0  0  0  0  0  0  0  0  0  0  0  0
    6.0375   -0.5988    2.9270 C   0  0  0  0  0  0  0  0  0  0  0  0
    6.6677    0.6154    3.2221 C   0  0  0  0  0  0  0  0  0  0  0  0
    7.6965    1.0882    2.4317 C   0  0  0  0  0  0  0  0  0  0  0  0
    8.0836    0.3384    1.3527 C   0  0  0  0  0  0  0  0  0  0  0  0
    7.4519   -0.8579    1.0748 C   0  0  0  0  0  0  0  0  0  0  0  0
    0.8684   -0.0474   -0.4472 C   0  0  0  0  0  0  0  0  0  0  0  0
    0.0531   -0.5829    0.3409 O   0  0  0  0  0  0  0  0  0  0  0  0
    2.0197    0.5372    0.2295 N   0  0  0  0  0  0  0  0  0  0  0  0
    2.1350    0.4679    1.5694 O   0  0  0  0  0  0  0  0  0  0  0  0
   -1.5454   -1.2441   -2.1470 S   0  0  0  0  0  6  0  0  0  0  0  0
   -0.7789   -2.4450   -1.6446 O   0  0  0  0  0  0  0  0  0  0  0  0
   -2.1071   -1.6928   -3.4954 O   0  0  0  0  0  0  0  0  0  0  0  0
   -2.9043   -1.0270   -1.0963 C   0  0  0  0  0  0  0  0  0  0  0  0
   -2.9715   -1.5124    0.1821 C   0  0  0  0  0  0  0  0  0  0  0  0
   -4.1082   -1.2628    0.9256 C   0  0  0  0  0  0  0  0  0  0  0  0
   -5.1650   -0.5543    0.4399 C   0  0  0  0  0  0  0  0  0  0  0  0
   -6.3774   -0.2762    1.2040 C   0  0  0  0  0  0  0  0  0  0  0  0
   -7.1085    0.8741    1.0063 C   0  0  0  0  0  0  0  0  0  0  0  0
   -8.2594    1.1186    1.7449 C   0  0  0  0  0  0  0  0  0  0  0  0
   -8.6984    0.2149    2.6948 C   0  0  0  0  0  0  0  0  0  0  0  0
   -7.9656   -0.9373    2.8925 C   0  0  0  0  0  0  0  0  0  0  0  0
   -6.8133   -1.1771    2.1498 C   0  0  0  0  0  0  0  0  0  0  0  0
   -5.1161   -0.0548   -0.8525 C   0  0  0  0  0  0  0  0  0  0  0  0
   -3.9837   -0.3054   -1.5878 C   0  0  0  0  0  0  0  0  0  0  0  0
   -3.0155    2.8137   -2.0421 H   0  0  0  0  0  0  0  0  0  0  0  0
   -1.9901    4.1997   -2.7025 H   0  0  0  0  0  0  0  0  0  0  0  0
   -2.4565    2.8059   -3.7848 H   0  0  0  0  0  0  0  0  0  0  0  0
   -0.3002    2.2765   -3.2960 H   0  0  0  0  0  0  0  0  0  0  0  0
   -0.6676    4.2490   -1.2446 H   0  0  0  0  0  0  0  0  0  0  0  0
    0.8512    3.5521   -1.8377 H   0  0  0  0  0  0  0  0  0  0  0  0
    0.0106    2.7915   -0.4357 H   0  0  0  0  0  0  0  0  0  0  0  0
    1.1988    1.0916   -2.1383 H   0  0  0  0  0  0  0  0  0  0  0  0
    1.6215   -0.4069   -3.7533 H   0  0  0  0  0  0  0  0  0  0  0  0
    1.1263   -1.8949   -2.8357 H   0  0  0  0  0  0  0  0  0  0  0  0
    3.5536   -0.0763   -2.3127 H   0  0  0  0  0  0  0  0  0  0  0  0
    3.5072   -1.7004   -2.9928 H   0  0  0  0  0  0  0  0  0  0  0  0
    2.2551   -2.0299   -0.4943 H   0  0  0  0  0  0  0  0  0  0  0  0
    5.5036   -3.1329    2.5206 H   0  0  0  0  0  0  0  0  0  0  0  0
    6.4645   -3.3330    0.9895 H   0  0  0  0  0  0  0  0  0  0  0  0
    5.2451   -0.8982    3.5904 H   0  0  0  0  0  0  0  0  0  0  0  0
    6.3493    1.1903    4.0748 H   0  0  0  0  0  0  0  0  0  0  0  0
    8.1839    2.0480    2.6771 H   0  0  0  0  0  0  0  0  0  0  0  0
    8.8808    0.6808    0.7200 H   0  0  0  0  0  0  0  0  0  0  0  0
    7.8100   -1.4137    0.2183 H   0  0  0  0  0  0  0  0  0  0  0  0
    2.7307    1.0099   -0.3646 H   0  0  0  0  0  0  0  0  0  0  0  0
    1.9473    1.3348    1.9696 H   0  0  0  0  0  0  0  0  0  0  0  0
   -2.1598   -2.0963    0.6292 H   0  0  0  0  0  0  0  0  0  0  0  0
   -4.1589   -1.6531    1.9507 H   0  0  0  0  0  0  0  0  0  0  0  0
   -6.7777    1.5978    0.2617 H   0  0  0  0  0  0  0  0  0  0  0  0
   -8.8053    2.0416    1.5543 H   0  0  0  0  0  0  0  0  0  0  0  0
   -9.5934    0.4277    3.2540 H   0  0  0  0  0  0  0  0  0  0  0  0
   -8.2969   -1.6500    3.6300 H   0  0  0  0  0  0  0  0  0  0  0  0
   -6.2314   -2.0817    2.2998 H   0  0  0  0  0  0  0  0  0  0  0  0
   -5.9327    0.5145   -1.2822 H   0  0  0  0  0  0  0  0  0  0  0  0
   -3.9687    0.1016   -2.6111 H   0  0  0  0  0  0  0  0  0  0  0  0
  1  2  1  0
  2  3  1  0
  2  4  1  0
  4  5  1  0
  5  6  1  0
  6  7  1  0
  7  8  1  0
  8  9  1  0
  9 10  1  0
 10 11  2  0
 10 12  1  0
 12 13  1  0
 13 14  1  0
 14 15  2  0
 15 16  1  0
 16 17  2  0
 17 18  1  0
 18 19  2  0
  6 20  1  0
 20 21  2  0
 20 22  1  0
 22 23  1  0
  5 24  1  0
 24 25  2  0
 24 26  2  0
 24 27  1  0
 27 28  2  0
 28 29  1  0
 29 30  2  0
 30 31  1  0
 31 32  2  0
 32 33  1  0
 33 34  2  0
 34 35  1  0
 35 36  2  0
 30 37  1  0
 37 38  2  0
 19 14  1  0
 38 27  1  0
 36 31  1  0
  1 39  1  0
  1 40  1  0
  1 41  1  0
  2 42  1  0
  3 43  1  0
  3 44  1  0
  3 45  1  0
  6 46  1  6
  7 47  1  0
  7 48  1  0
  8 49  1  0
  8 50  1  0
  9 51  1  0
 13 52  1  0
 13 53  1  0
 15 54  1  0
 16 55  1  0
 17 56  1  0
 18 57  1  0
 19 58  1  0
 22 59  1  0
 23 60  1  0
 28 61  1  0
 29 62  1  0
 32 63  1  0
 33 64  1  0
 34 65  1  0
 35 66  1  0
 36 67  1  0
 37 68  1  0
 38 69  1  0
M  END
$$$$
