@<TRIPOS>MOLECULE
*****
 69 71 0 0 0
SMALL
GASTEIGER

@<TRIPOS>ATOM
      1 C          -2.1974    3.1012   -2.7475 C.3     1  UNL1       -0.0370
      2 C          -0.9218    2.3876   -2.3796 C.3     1  UNL1        0.0766
      3 C          -0.1564    3.2858   -1.4157 C.3     1  UNL1       -0.0370
      4 O          -1.1586    1.1990   -1.7348 O.3     1  UNL1       -0.2731
      5 N          -0.5927    0.1269   -2.3338 N.3     1  UNL1       -0.0421
      6 C           0.7609    0.0376   -1.8878 C.3     1  UNL1        0.1379
      7 C           1.5805   -0.8813   -2.7266 C.3     1  UNL1       -0.0090
      8 C           2.9683   -1.0225   -2.2539 C.3     1  UNL1        0.0167
      9 N           3.1031   -1.6618   -0.9656 N.am    1  UNL1       -0.2810
     10 C           4.4090   -1.8178   -0.3651 C.2     1  UNL1        0.4006
     11 O           5.4209   -1.3934   -0.9733 O.2     1  UNL1       -0.2265
     12 O           4.5864   -2.4136    0.8476 O.3     1  UNL1       -0.4456
     13 C           5.7736   -2.6358    1.5545 C.3     1  UNL1        0.1191
     14 C           6.4285   -1.3503    1.8413 C.ar    1  UNL1       -0.0103
     15 C           6.0375   -0.5988    2.9270 C.ar    1  UNL1       -0.0554
     16 C           6.6677    0.6154    3.2221 C.ar    1  UNL1       -0.0614
     17 C           7.6965    1.0882    2.4317 C.ar    1  UNL1       -0.0617
     18 C           8.0836    0.3384    1.3527 C.ar    1  UNL1       -0.0614
     19 C           7.4519   -0.8579    1.0748 C.ar    1  UNL1       -0.0554
     20 C           0.8684   -0.0474   -0.4472 C.2     1  UNL1        0.2568
     21 O           0.0531   -0.5829    0.3409 O.2     1  UNL1       -0.2719
     22 N           2.0197    0.5372    0.2295 N.am    1  UNL1       -0.1961
     23 O           2.1350    0.4679    1.5694 O.3     1  UNL1       -0.2951
     24 S          -1.5454   -1.2441   -2.1470 S.O2    1  UNL1        0.0832
     25 O          -0.7789   -2.4450   -1.6446 O.2     1  UNL1       -0.1509
     26 O          -2.1071   -1.6928   -3.4954 O.2     1  UNL1       -0.1509
     27 C          -2.9043   -1.0270   -1.0963 C.ar    1  UNL1        0.1077
     28 C          -2.9715   -1.5124    0.1821 C.ar    1  UNL1       -0.0347
     29 C          -4.1082   -1.2628    0.9256 C.ar    1  UNL1       -0.0522
     30 C          -5.1650   -0.5543    0.4399 C.ar    1  UNL1       -0.0178
     31 C          -6.3774   -0.2762    1.2040 C.ar    1  UNL1       -0.0179
     32 C          -7.1085    0.8741    1.0063 C.ar    1  UNL1       -0.0540
     33 C          -8.2594    1.1186    1.7449 C.ar    1  UNL1       -0.0612
     34 C          -8.6984    0.2149    2.6948 C.ar    1  UNL1       -0.0617
     35 C          -7.9656   -0.9373    2.8925 C.ar    1  UNL1       -0.0612
     36 C          -6.8133   -1.1771    2.1498 C.ar    1  UNL1       -0.0540
     37 C          -5.1161   -0.0548   -0.8525 C.ar    1  UNL1       -0.0522
     38 C          -3.9837   -0.3054   -1.5878 C.ar    1  UNL1       -0.0347
     39 H          -3.0155    2.8137   -2.0421 H       1  UNL1        0.0255
     40 H          -1.9901    4.1997   -2.7025 H       1  UNL1        0.0255
     41 H          -2.4565    2.8059   -3.7848 H       1  UNL1        0.0255
     42 H          -0.3002    2.2765   -3.2960 H       1  UNL1        0.0611
     43 H          -0.6676    4.2490   -1.2446 H       1  UNL1        0.0255
     44 H           0.8512    3.5521   -1.8377 H       1  UNL1        0.0255
     45 H           0.0106    2.7915   -0.4357 H       1  UNL1        0.0255
     46 H           1.1988    1.0916   -2.1383 H       1  UNL1        0.0602
     47 H           1.6215   -0.4069   -3.7533 H       1  UNL1        0.0301
     48 H           1.1263   -1.8949   -2.8357 H       1  UNL1        0.0301
     49 H           3.5536   -0.0763   -2.3127 H       1  UNL1        0.0464
     50 H           3.5072   -1.7004   -2.9928 H       1  UNL1        0.0464
     51 H           2.2551   -2.0299   -0.4943 H       1  UNL1        0.1520
     52 H           5.5036   -3.1329    2.5206 H       1  UNL1        0.0749
     53 H           6.4645   -3.3330    0.9895 H       1  UNL1        0.0749
     54 H           5.2451   -0.8982    3.5904 H       1  UNL1        0.0621
     55 H           6.3493    1.1903    4.0748 H       1  UNL1        0.0618
     56 H           8.1839    2.0480    2.6771 H       1  UNL1        0.0618
     57 H           8.8808    0.6808    0.7200 H       1  UNL1        0.0618
     58 H           7.8100   -1.4137    0.2183 H       1  UNL1        0.0621
     59 H           2.7307    1.0099   -0.3646 H       1  UNL1        0.1822
     60 H           1.9473    1.3348    1.9696 H       1  UNL1        0.2414
     61 H          -2.1598   -2.0963    0.6292 H       1  UNL1        0.0637
     62 H          -4.1589   -1.6531    1.9507 H       1  UNL1        0.0624
     63 H          -6.7777    1.5978    0.2617 H       1  UNL1        0.0624
     64 H          -8.8053    2.0416    1.5543 H       1  UNL1        0.0618
     65 H          -9.5934    0.4277    3.2540 H       1  UNL1        0.0618
     66 H          -8.2969   -1.6500    3.6300 H       1  UNL1        0.0618
     67 H          -6.2314   -2.0817    2.2998 H       1  UNL1        0.0624
     68 H          -5.9327    0.5145   -1.2822 H       1  UNL1        0.0624
     69 H          -3.9687    0.1016   -2.6111 H       1  UNL1        0.0637
@<TRIPOS>BOND
     1     1     2    1
     2     2     3    1
     3     2     4    1
     4     4     5    1
     5     5     6    1
     6     6     7    1
     7     7     8    1
     8     8     9    1
     9     9    10   am
    10    10    11    2
    11    10    12    1
    12    12    13    1
    13    13    14    1
    14    14    15   ar
    15    15    16   ar
    16    16    17   ar
    17    17    18   ar
    18    18    19   ar
    19     6    20    1
    20    20    21    2
    21    20    22   am
    22    22    23    1
    23     5    24    1
    24    24    25    2
    25    24    26    2
    26    24    27    1
    27    27    28   ar
    28    28    29   ar
    29    29    30   ar
    30    30    31    1
    31    31    32   ar
    32    32    33   ar
    33    33    34   ar
    34    34    35   ar
    35    35    36   ar
    36    30    37   ar
    37    37    38   ar
    38    19    14   ar
    39    38    27   ar
    40    36    31   ar
    41     1    39    1
    42     1    40    1
    43     1    41    1
    44     2    42    1
    45     3    43    1
    46     3    44    1
    47     3    45    1
    48     6    46    1
    49     7    47    1
    50     7    48    1
    51     8    49    1
    52     8    50    1
    53     9    51    1
    54    13    52    1
    55    13    53    1
    56    15    54    1
    57    16    55    1
    58    17    56    1
    59    18    57    1
    60    19    58    1
    61    22    59    1
    62    23    60    1
    63    28    61    1
    64    29    62    1
    65    32    63    1
    66    33    64    1
    67    34    65    1
    68    35    66    1
    69    36    67    1
    70    37    68    1
    71    38    69    1
