@<TRIPOS>MOLECULE
*****
 69 72 0 0 0
SMALL
GASTEIGER

@<TRIPOS>ATOM
      1 C           6.0507    1.7337    3.2578 C.3     1  UNL1       -0.0397
      2 C           5.1881    1.0461    2.2208 C.ar    1  UNL1       -0.0504
      3 C           4.3530    1.7640    1.3933 C.ar    1  UNL1       -0.0581
      4 C           3.5664    1.1001    0.4418 C.ar    1  UNL1       -0.0494
      5 C           3.6011   -0.2671    0.3068 C.ar    1  UNL1        0.0369
      6 C           2.8141   -0.9652   -0.6588 C.2     1  UNL1        0.2472
      7 O           3.3939   -1.5137   -1.6597 O.2     1  UNL1       -0.2700
      8 N           1.3643   -1.1370   -0.6356 N.am    1  UNL1       -0.2872
      9 C           0.8818   -1.9228   -1.7259 C.3     1  UNL1        0.0169
     10 C           0.5076   -1.2161   -2.9749 C.3     1  UNL1       -0.0247
     11 C          -0.0072   -2.3047   -3.9297 C.3     1  UNL1       -0.0055
     12 N          -0.4318   -1.7424   -5.1805 N.3     1  UNL1       -0.3299
     13 C           0.6181   -0.5422    0.4275 C.3     1  UNL1        0.0867
     14 C          -0.2189    0.6183    0.1735 C.ar    1  UNL1        0.1348
     15 N           0.3128    1.8745    0.4727 N.ar    1  UNL1       -0.2229
     16 C          -0.2554    2.9864    0.2452 C.ar    1  UNL1        0.1352
     17 S           0.1771    4.7432    0.5048 S.2     1  UNL1        0.0322
     18 N          -1.3657    5.4371   -0.2033 N.ar    1  UNL1       -0.2128
     19 C          -2.0373    4.2928   -0.5560 C.ar    1  UNL1        0.0617
     20 C          -3.4087    4.5421   -1.2066 C.3     1  UNL1       -0.0209
     21 C          -1.5169    3.0973   -0.3475 C.ar    1  UNL1        0.0946
     22 C          -2.0594    1.8342   -0.6483 C.ar    1  UNL1        0.2645
     23 O          -3.1922    1.8002   -1.1844 O.2     1  UNL1       -0.2668
     24 N          -1.4208    0.6496   -0.3887 N.ar    1  UNL1       -0.2902
     25 C          -2.0967   -0.5002   -0.8516 C.3     1  UNL1        0.0528
     26 C          -3.3715   -0.8642   -0.1932 C.ar    1  UNL1       -0.0276
     27 C          -4.5926   -0.5772   -0.8516 C.ar    1  UNL1       -0.0569
     28 C          -5.8255   -0.8595   -0.3695 C.ar    1  UNL1       -0.0614
     29 C          -5.9174   -1.4782    0.8580 C.ar    1  UNL1       -0.0617
     30 C          -4.7917   -1.7892    1.5520 C.ar    1  UNL1       -0.0614
     31 C          -3.5439   -1.4765    1.0116 C.ar    1  UNL1       -0.0569
     32 C           0.1478   -1.4786    1.5255 C.3     1  UNL1       -0.0210
     33 C          -0.5583   -0.6320    2.6052 C.3     1  UNL1       -0.0606
     34 C           1.3294   -2.0927    2.2772 C.3     1  UNL1       -0.0606
     35 C           4.4579   -0.9544    1.1629 C.ar    1  UNL1       -0.0494
     36 C           5.2291   -0.2987    2.0950 C.ar    1  UNL1       -0.0581
     37 H           5.5227    2.6519    3.5543 H       1  UNL1        0.0278
     38 H           7.0359    1.9213    2.7933 H       1  UNL1        0.0278
     39 H           6.2423    1.0364    4.1059 H       1  UNL1        0.0278
     40 H           4.3211    2.8302    1.4968 H       1  UNL1        0.0620
     41 H           2.9312    1.6826   -0.2087 H       1  UNL1        0.0625
     42 H           1.8083   -2.5611   -2.0556 H       1  UNL1        0.0465
     43 H           0.1001   -2.6609   -1.4612 H       1  UNL1        0.0465
     44 H           1.4753   -0.8828   -3.4801 H       1  UNL1        0.0293
     45 H          -0.1909   -0.3858   -2.9066 H       1  UNL1        0.0293
     46 H          -0.8613   -2.7724   -3.4029 H       1  UNL1        0.0422
     47 H           0.8071   -3.0358   -4.0256 H       1  UNL1        0.0422
     48 H          -0.2782   -2.4692   -5.9163 H       1  UNL1        0.1182
     49 H           0.0954   -0.8555   -5.3560 H       1  UNL1        0.1182
     50 H           1.5029   -0.0436    1.0483 H       1  UNL1        0.0584
     51 H          -3.3062    4.3011   -2.2661 H       1  UNL1        0.0293
     52 H          -4.0831    3.8725   -0.6361 H       1  UNL1        0.0293
     53 H          -3.7186    5.5663   -1.0725 H       1  UNL1        0.0293
     54 H          -1.5019   -1.4269   -0.7472 H       1  UNL1        0.0543
     55 H          -2.3497   -0.3473   -1.9461 H       1  UNL1        0.0543
     56 H          -4.5369   -0.1433   -1.8332 H       1  UNL1        0.0621
     57 H          -6.7136   -0.6089   -0.9363 H       1  UNL1        0.0618
     58 H          -6.9304   -1.6881    1.2062 H       1  UNL1        0.0618
     59 H          -4.8935   -2.2727    2.5070 H       1  UNL1        0.0618
     60 H          -2.7021   -1.7833    1.5843 H       1  UNL1        0.0621
     61 H          -0.4498   -2.3226    1.1913 H       1  UNL1        0.0318
     62 H          -1.3155    0.0058    2.1194 H       1  UNL1        0.0233
     63 H          -0.8747   -1.2111    3.4646 H       1  UNL1        0.0233
     64 H           0.1912    0.1151    3.0174 H       1  UNL1        0.0233
     65 H           1.9813   -1.1954    2.5307 H       1  UNL1        0.0233
     66 H           1.9340   -2.7513    1.6590 H       1  UNL1        0.0233
     67 H           0.9952   -2.5869    3.1964 H       1  UNL1        0.0233
     68 H           4.4854   -2.0221    1.0536 H       1  UNL1        0.0625
     69 H           5.8955   -0.8629    2.7559 H       1  UNL1        0.0620
@<TRIPOS>BOND
     1     1     2    1
     2     2     3   ar
     3     3     4   ar
     4     4     5   ar
     5     5     6    1
     6     6     7    2
     7     6     8   am
     8     8     9    1
     9     9    10    1
    10    10    11    1
    11    11    12    1
    12     8    13    1
    13    13    14    1
    14    14    15   ar
    15    15    16   ar
    16    16    17   ar
    17    17    18   ar
    18    18    19   ar
    19    19    20    1
    20    19    21   ar
    21    21    22   ar
    22    22    23    2
    23    22    24   ar
    24    24    25    1
    25    25    26    1
    26    26    27   ar
    27    27    28   ar
    28    28    29   ar
    29    29    30   ar
    30    30    31   ar
    31    13    32    1
    32    32    33    1
    33    32    34    1
    34     5    35   ar
    35    35    36   ar
    36    36     2   ar
    37    24    14   ar
    38    31    26   ar
    39    21    16   ar
    40     1    37    1
    41     1    38    1
    42     1    39    1
    43     3    40    1
    44     4    41    1
    45     9    42    1
    46     9    43    1
    47    10    44    1
    48    10    45    1
    49    11    46    1
    50    11    47    1
    51    12    48    1
    52    12    49    1
    53    13    50    1
    54    20    51    1
    55    20    52    1
    56    20    53    1
    57    25    54    1
    58    25    55    1
    59    27    56    1
    60    28    57    1
    61    29    58    1
    62    30    59    1
    63    31    60    1
    64    32    61    1
    65    33    62    1
    66    33    63    1
    67    33    64    1
    68    34    65    1
    69    34    66    1
    70    34    67    1
    71    35    68    1
    72    36    69    1
