
     RDKit          3D

 51 55  0  0  0  0  0  0  0  0999 V2000
   -3.2871    4.2063    1.4820 C   0  0  0  0  0  0  0  0  0  0  0  0
   -3.4681    3.5132    0.1600 C   0  0  0  0  0  0  0  0  0  0  0  0
   -3.2348    2.0918    0.3171 N   0  0  0  0  0  0  0  0  0  0  0  0
   -4.1285    1.1701    0.6186 N   0  0  0  0  0  0  0  0  0  0  0  0
   -3.5604   -0.0413    0.6815 C   0  0  0  0  0  0  0  0  0  0  0  0
   -4.2142   -1.3545    0.9931 C   0  0  0  0  0  0  0  0  0  0  0  0
   -2.2044    0.1718    0.3913 C   0  0  0  0  0  0  0  0  0  0  0  0
   -2.0090    1.5051    0.1662 C   0  0  0  0  0  0  0  0  0  0  0  0
   -0.6014    1.7371   -0.1128 C   0  0  0  0  0  0  0  0  0  0  0  0
   -0.0981    2.8671   -0.3661 O   0  0  0  0  0  0  0  0  0  0  0  0
    0.0463    0.4733   -0.0404 N   0  0  0  0  0  0  0  0  0  0  0  0
    1.4769    0.3439   -0.1878 C   0  0  0  0  0  0  0  0  0  0  0  0
    2.1207    0.1966   -1.3792 C   0  0  0  0  0  0  0  0  0  0  0  0
    3.4967    0.0671   -1.4856 C   0  0  0  0  0  0  0  0  0  0  0  0
    4.1878   -0.0932   -2.7889 C   0  0  0  0  0  0  0  0  0  0  0  0
    4.1911    0.0975   -0.2833 C   0  0  0  0  0  0  0  0  0  0  0  0
    5.5211   -0.0045   -0.0827 N   0  0  0  0  0  0  0  0  0  0  0  0
    5.7106    0.0780    1.2187 N   0  0  0  0  0  0  0  0  0  0  0  0
    4.5355    0.2309    1.8661 C   0  0  0  0  0  0  0  0  0  0  0  0
    4.3517    0.3591    3.3357 C   0  0  0  0  0  0  0  0  0  0  0  0
    3.5855    0.2423    0.9171 N   0  0  0  0  0  0  0  0  0  0  0  0
    2.2229    0.3662    0.9677 C   0  0  0  0  0  0  0  0  0  0  0  0
   -0.9261   -0.5094    0.2181 C   0  0  0  0  0  0  0  0  0  0  0  0
   -0.9846   -1.6816   -0.6581 C   0  0  0  0  0  0  0  0  0  0  0  0
   -0.7856   -1.6813   -2.0204 C   0  0  0  0  0  0  0  0  0  0  0  0
   -0.8757   -2.8438   -2.7828 C   0  0  0  0  0  0  0  0  0  0  0  0
   -1.1708   -4.0399   -2.1843 C   0  0  0  0  0  0  0  0  0  0  0  0
   -1.2693   -5.1954   -2.8810 F   0  0  0  0  0  0  0  0  0  0  0  0
   -1.3740   -4.0737   -0.8369 C   0  0  0  0  0  0  0  0  0  0  0  0
   -1.2807   -2.9237   -0.1091 C   0  0  0  0  0  0  0  0  0  0  0  0
   -1.4933   -3.0184    1.2341 F   0  0  0  0  0  0  0  0  0  0  0  0
   -3.0027    5.2600    1.2980 H   0  0  0  0  0  0  0  0  0  0  0  0
   -4.2281    4.1260    2.0528 H   0  0  0  0  0  0  0  0  0  0  0  0
   -2.4954    3.7116    2.0688 H   0  0  0  0  0  0  0  0  0  0  0  0
   -4.4984    3.6419   -0.2296 H   0  0  0  0  0  0  0  0  0  0  0  0
   -2.7681    3.8950   -0.5921 H   0  0  0  0  0  0  0  0  0  0  0  0
   -4.0445   -2.0877    0.1537 H   0  0  0  0  0  0  0  0  0  0  0  0
   -3.8455   -1.7697    1.9440 H   0  0  0  0  0  0  0  0  0  0  0  0
   -5.3103   -1.1688    0.9856 H   0  0  0  0  0  0  0  0  0  0  0  0
    1.5682    0.1810   -2.3017 H   0  0  0  0  0  0  0  0  0  0  0  0
    5.0692    0.6005   -2.8205 H   0  0  0  0  0  0  0  0  0  0  0  0
    4.4408   -1.1217   -3.0350 H   0  0  0  0  0  0  0  0  0  0  0  0
    3.4908    0.3132   -3.5750 H   0  0  0  0  0  0  0  0  0  0  0  0
    5.3330    0.3491    3.8258 H   0  0  0  0  0  0  0  0  0  0  0  0
    3.8554    1.3132    3.6183 H   0  0  0  0  0  0  0  0  0  0  0  0
    3.7002   -0.4838    3.7056 H   0  0  0  0  0  0  0  0  0  0  0  0
    1.8011    0.4788    1.9576 H   0  0  0  0  0  0  0  0  0  0  0  0
   -0.6579   -0.9290    1.2526 H   0  0  0  0  0  0  0  0  0  0  0  0
   -0.5666   -0.7602   -2.4949 H   0  0  0  0  0  0  0  0  0  0  0  0
   -0.7093   -2.7814   -3.8455 H   0  0  0  0  0  0  0  0  0  0  0  0
   -1.6124   -5.0246   -0.3363 H   0  0  0  0  0  0  0  0  0  0  0  0
  1  2  1  0
  2  3  1  0
  3  4  1  0
  4  5  2  0
  5  6  1  0
  5  7  1  0
  7  8  2  0
  8  9  1  0
  9 10  2  0
  9 11  1  0
 11 12  1  0
 12 13  1  0
 13 14  2  0
 14 15  1  0
 14 16  1  0
 16 17  2  0
 17 18  1  0
 18 19  2  0
 19 20  1  0
 19 21  1  0
 21 22  1  0
 11 23  1  0
 23 24  1  0
 24 25  2  0
 25 26  1  0
 26 27  2  0
 27 28  1  0
 27 29  1  0
 29 30  2  0
 30 31  1  0
  8  3  1  0
 22 12  2  0
 30 24  1  0
 23  7  1  0
 21 16  1  0
  1 32  1  0
  1 33  1  0
  1 34  1  0
  2 35  1  0
  2 36  1  0
  6 37  1  0
  6 38  1  0
  6 39  1  0
 13 40  1  0
 15 41  1  0
 15 42  1  0
 15 43  1  0
 20 44  1  0
 20 45  1  0
 20 46  1  0
 22 47  1  0
 23 48  1  0
 25 49  1  0
 26 50  1  0
 29 51  1  0
M  END
$$$$
