@<TRIPOS>MOLECULE
*****
 51 55 0 0 0
SMALL
GASTEIGER

@<TRIPOS>ATOM
      1 C          -3.2871    4.2063    1.4820 C.3     1  UNL1       -0.0455
      2 C          -3.4681    3.5132    0.1600 C.3     1  UNL1        0.0396
      3 N          -3.2348    2.0918    0.3171 N.ar    1  UNL1       -0.2589
      4 N          -4.1285    1.1701    0.6186 N.ar    1  UNL1       -0.1755
      5 C          -3.5604   -0.0413    0.6815 C.ar    1  UNL1        0.0660
      6 C          -4.2142   -1.3545    0.9931 C.3     1  UNL1       -0.0203
      7 C          -2.2044    0.1718    0.3913 C.ar    1  UNL1        0.0305
      8 C          -2.0090    1.5051    0.1662 C.ar    1  UNL1        0.1293
      9 C          -0.6014    1.7371   -0.1128 C.2     1  UNL1        0.2700
     10 O          -0.0981    2.8671   -0.3661 O.2     1  UNL1       -0.2679
     11 N           0.0463    0.4733   -0.0404 N.am    1  UNL1       -0.2530
     12 C           1.4769    0.3439   -0.1878 C.ar    1  UNL1        0.0545
     13 C           2.1207    0.1966   -1.3792 C.ar    1  UNL1       -0.0324
     14 C           3.4967    0.0671   -1.4856 C.ar    1  UNL1       -0.0041
     15 C           4.1878   -0.0932   -2.7889 C.3     1  UNL1       -0.0361
     16 C           4.1911    0.0975   -0.2833 C.ar    1  UNL1        0.1641
     17 N           5.5211   -0.0045   -0.0827 N.ar    1  UNL1       -0.1292
     18 N           5.7106    0.0780    1.2187 N.ar    1  UNL1       -0.1340
     19 C           4.5355    0.2309    1.8661 C.ar    1  UNL1        0.1347
     20 C           4.3517    0.3591    3.3357 C.3     1  UNL1       -0.0041
     21 N           3.5855    0.2423    0.9171 N.ar    1  UNL1       -0.2846
     22 C           2.2229    0.3662    0.9677 C.ar    1  UNL1        0.0344
     23 C          -0.9261   -0.5094    0.2181 C.3     1  UNL1        0.0881
     24 C          -0.9846   -1.6816   -0.6581 C.ar    1  UNL1        0.0132
     25 C          -0.7856   -1.6813   -2.0204 C.ar    1  UNL1       -0.0510
     26 C          -0.8757   -2.8438   -2.7828 C.ar    1  UNL1       -0.0259
     27 C          -1.1708   -4.0399   -2.1843 C.ar    1  UNL1        0.1261
     28 F          -1.2693   -5.1954   -2.8810 F       1  UNL1       -0.2054
     29 C          -1.3740   -4.0737   -0.8369 C.ar    1  UNL1        0.0091
     30 C          -1.2807   -2.9237   -0.1091 C.ar    1  UNL1        0.1314
     31 F          -1.4933   -3.0184    1.2341 F       1  UNL1       -0.2050
     32 H          -3.0027    5.2600    1.2980 H       1  UNL1        0.0247
     33 H          -4.2281    4.1260    2.0528 H       1  UNL1        0.0247
     34 H          -2.4954    3.7116    2.0688 H       1  UNL1        0.0247
     35 H          -4.4984    3.6419   -0.2296 H       1  UNL1        0.0506
     36 H          -2.7681    3.8950   -0.5921 H       1  UNL1        0.0506
     37 H          -4.0445   -2.0877    0.1537 H       1  UNL1        0.0293
     38 H          -3.8455   -1.7697    1.9440 H       1  UNL1        0.0293
     39 H          -5.3103   -1.1688    0.9856 H       1  UNL1        0.0293
     40 H           1.5682    0.1810   -2.3017 H       1  UNL1        0.0640
     41 H           5.0692    0.6005   -2.8205 H       1  UNL1        0.0279
     42 H           4.4408   -1.1217   -3.0350 H       1  UNL1        0.0279
     43 H           3.4908    0.3132   -3.5750 H       1  UNL1        0.0279
     44 H           5.3330    0.3491    3.8258 H       1  UNL1        0.0308
     45 H           3.8554    1.3132    3.6183 H       1  UNL1        0.0308
     46 H           3.7002   -0.4838    3.7056 H       1  UNL1        0.0308
     47 H           1.8011    0.4788    1.9576 H       1  UNL1        0.0833
     48 H          -0.6579   -0.9290    1.2526 H       1  UNL1        0.0607
     49 H          -0.5666   -0.7602   -2.4949 H       1  UNL1        0.0623
     50 H          -0.7093   -2.7814   -3.8455 H       1  UNL1        0.0646
     51 H          -1.6124   -5.0246   -0.3363 H       1  UNL1        0.0675
@<TRIPOS>BOND
     1     1     2    1
     2     2     3    1
     3     3     4   ar
     4     4     5   ar
     5     5     6    1
     6     5     7   ar
     7     7     8   ar
     8     8     9    1
     9     9    10    2
    10     9    11   am
    11    11    12    1
    12    12    13   ar
    13    13    14   ar
    14    14    15    1
    15    14    16   ar
    16    16    17   ar
    17    17    18   ar
    18    18    19   ar
    19    19    20    1
    20    19    21   ar
    21    21    22   ar
    22    11    23    1
    23    23    24    1
    24    24    25   ar
    25    25    26   ar
    26    26    27   ar
    27    27    28    1
    28    27    29   ar
    29    29    30   ar
    30    30    31    1
    31     8     3   ar
    32    22    12   ar
    33    30    24   ar
    34    23     7    1
    35    21    16   ar
    36     1    32    1
    37     1    33    1
    38     1    34    1
    39     2    35    1
    40     2    36    1
    41     6    37    1
    42     6    38    1
    43     6    39    1
    44    13    40    1
    45    15    41    1
    46    15    42    1
    47    15    43    1
    48    20    44    1
    49    20    45    1
    50    20    46    1
    51    22    47    1
    52    23    48    1
    53    25    49    1
    54    26    50    1
    55    29    51    1
