@<TRIPOS>MOLECULE
*****
 40 42 0 0 0
SMALL
GASTEIGER

@<TRIPOS>ATOM
      1 C          -6.2350    0.1693   -1.0424 C.3     1  UNL1       -0.0397
      2 C          -4.9048    0.4073   -0.4299 C.ar    1  UNL1       -0.0502
      3 C          -4.6794    1.3562    0.5496 C.ar    1  UNL1       -0.0585
      4 C          -3.4091    1.5221    1.0754 C.ar    1  UNL1       -0.0568
      5 C          -2.3618    0.7190    0.6030 C.ar    1  UNL1       -0.0284
      6 C          -2.5717   -0.2284   -0.3707 C.ar    1  UNL1       -0.0414
      7 C          -3.8437   -0.3660   -0.8696 C.ar    1  UNL1       -0.0553
      8 C          -1.4117   -1.0332   -0.8154 C.3     1  UNL1       -0.0129
      9 C          -0.2602   -0.0210   -0.9158 C.3     1  UNL1        0.0248
     10 N           0.0631    0.4052    0.4076 N.3     1  UNL1       -0.1720
     11 S           1.0805   -0.6521    1.2745 S.O2    1  UNL1        0.0612
     12 O           1.3068   -0.0464    2.6436 O.2     1  UNL1       -0.1528
     13 O           0.5256   -2.0167    1.4633 O.2     1  UNL1       -0.1528
     14 C           2.6034   -0.7686    0.4059 C.ar    1  UNL1        0.1063
     15 C           2.8206   -1.7221   -0.5693 C.ar    1  UNL1       -0.0353
     16 C           4.0307   -1.7841   -1.2317 C.ar    1  UNL1       -0.0591
     17 C           5.0369   -0.8686   -0.9038 C.ar    1  UNL1       -0.0477
     18 C           4.8343    0.0826    0.0621 C.ar    1  UNL1        0.0607
     19 C           5.8607    1.0555    0.4322 C.2     1  UNL1        0.3369
     20 O           5.7052    1.9242    1.2994 O.2     1  UNL1       -0.2451
     21 O           7.0801    0.9826   -0.2448 O.3     1  UNL1       -0.4771
     22 C           3.6223    0.1369    0.7183 C.ar    1  UNL1       -0.0214
     23 C          -1.0130    0.9136    1.1817 C.3     1  UNL1        0.0458
     24 H          -6.0816   -0.2341   -2.0855 H       1  UNL1        0.0278
     25 H          -6.8413    1.0951   -1.0704 H       1  UNL1        0.0278
     26 H          -6.7275   -0.6441   -0.4693 H       1  UNL1        0.0278
     27 H          -5.4981    1.9615    0.8971 H       1  UNL1        0.0620
     28 H          -3.2554    2.2704    1.8408 H       1  UNL1        0.0621
     29 H          -4.0248   -1.1012   -1.6303 H       1  UNL1        0.0623
     30 H          -1.5947   -1.5081   -1.8126 H       1  UNL1        0.0326
     31 H          -1.2199   -1.8096   -0.0755 H       1  UNL1        0.0326
     32 H          -0.6811    0.8659   -1.4589 H       1  UNL1        0.0447
     33 H           0.6108   -0.4440   -1.4063 H       1  UNL1        0.0447
     34 H           2.0101   -2.4057   -0.7846 H       1  UNL1        0.0637
     35 H           4.1530   -2.5408   -1.9805 H       1  UNL1        0.0618
     36 H           5.9703   -0.9096   -1.4084 H       1  UNL1        0.0626
     37 H           7.6154    1.8489   -0.3995 H       1  UNL1        0.2954
     38 H           3.4586    0.8822    1.4776 H       1  UNL1        0.0645
     39 H          -0.9553    0.4903    2.2262 H       1  UNL1        0.0493
     40 H          -0.8180    2.0155    1.3407 H       1  UNL1        0.0493
@<TRIPOS>BOND
     1     1     2    1
     2     2     3   ar
     3     3     4   ar
     4     4     5   ar
     5     5     6   ar
     6     6     7   ar
     7     6     8    1
     8     8     9    1
     9     9    10    1
    10    10    11    1
    11    11    12    2
    12    11    13    2
    13    11    14    1
    14    14    15   ar
    15    15    16   ar
    16    16    17   ar
    17    17    18   ar
    18    18    19    1
    19    19    20    2
    20    19    21    1
    21    18    22   ar
    22    10    23    1
    23     7     2   ar
    24    22    14   ar
    25    23     5    1
    26     1    24    1
    27     1    25    1
    28     1    26    1
    29     3    27    1
    30     4    28    1
    31     7    29    1
    32     8    30    1
    33     8    31    1
    34     9    32    1
    35     9    33    1
    36    15    34    1
    37    16    35    1
    38    17    36    1
    39    21    37    1
    40    22    38    1
    41    23    39    1
    42    23    40    1
