
     RDKit          3D

 40 42  0  0  0  0  0  0  0  0999 V2000
   -6.2350    0.1693   -1.0424 C   0  0  0  0  0  0  0  0  0  0  0  0
   -4.9048    0.4073   -0.4299 C   0  0  0  0  0  0  0  0  0  0  0  0
   -4.6794    1.3562    0.5496 C   0  0  0  0  0  0  0  0  0  0  0  0
   -3.4091    1.5221    1.0754 C   0  0  0  0  0  0  0  0  0  0  0  0
   -2.3618    0.7190    0.6030 C   0  0  0  0  0  0  0  0  0  0  0  0
   -2.5717   -0.2284   -0.3707 C   0  0  0  0  0  0  0  0  0  0  0  0
   -3.8437   -0.3660   -0.8696 C   0  0  0  0  0  0  0  0  0  0  0  0
   -1.4117   -1.0332   -0.8154 C   0  0  0  0  0  0  0  0  0  0  0  0
   -0.2602   -0.0210   -0.9158 C   0  0  0  0  0  0  0  0  0  0  0  0
    0.0631    0.4052    0.4076 N   0  0  0  0  0  0  0  0  0  0  0  0
    1.0805   -0.6521    1.2745 S   0  0  0  0  0  6  0  0  0  0  0  0
    1.3068   -0.0464    2.6436 O   0  0  0  0  0  0  0  0  0  0  0  0
    0.5256   -2.0167    1.4633 O   0  0  0  0  0  0  0  0  0  0  0  0
    2.6034   -0.7686    0.4059 C   0  0  0  0  0  0  0  0  0  0  0  0
    2.8206   -1.7221   -0.5693 C   0  0  0  0  0  0  0  0  0  0  0  0
    4.0307   -1.7841   -1.2317 C   0  0  0  0  0  0  0  0  0  0  0  0
    5.0369   -0.8686   -0.9038 C   0  0  0  0  0  0  0  0  0  0  0  0
    4.8343    0.0826    0.0621 C   0  0  0  0  0  0  0  0  0  0  0  0
    5.8607    1.0555    0.4322 C   0  0  0  0  0  0  0  0  0  0  0  0
    5.7052    1.9242    1.2994 O   0  0  0  0  0  0  0  0  0  0  0  0
    7.0801    0.9826   -0.2448 O   0  0  0  0  0  0  0  0  0  0  0  0
    3.6223    0.1369    0.7183 C   0  0  0  0  0  0  0  0  0  0  0  0
   -1.0130    0.9136    1.1817 C   0  0  0  0  0  0  0  0  0  0  0  0
   -6.0816   -0.2341   -2.0855 H   0  0  0  0  0  0  0  0  0  0  0  0
   -6.8413    1.0951   -1.0704 H   0  0  0  0  0  0  0  0  0  0  0  0
   -6.7275   -0.6441   -0.4693 H   0  0  0  0  0  0  0  0  0  0  0  0
   -5.4981    1.9615    0.8971 H   0  0  0  0  0  0  0  0  0  0  0  0
   -3.2554    2.2704    1.8408 H   0  0  0  0  0  0  0  0  0  0  0  0
   -4.0248   -1.1012   -1.6303 H   0  0  0  0  0  0  0  0  0  0  0  0
   -1.5947   -1.5081   -1.8126 H   0  0  0  0  0  0  0  0  0  0  0  0
   -1.2199   -1.8096   -0.0755 H   0  0  0  0  0  0  0  0  0  0  0  0
   -0.6811    0.8659   -1.4589 H   0  0  0  0  0  0  0  0  0  0  0  0
    0.6108   -0.4440   -1.4063 H   0  0  0  0  0  0  0  0  0  0  0  0
    2.0101   -2.4057   -0.7846 H   0  0  0  0  0  0  0  0  0  0  0  0
    4.1530   -2.5408   -1.9805 H   0  0  0  0  0  0  0  0  0  0  0  0
    5.9703   -0.9096   -1.4084 H   0  0  0  0  0  0  0  0  0  0  0  0
    7.6154    1.8489   -0.3995 H   0  0  0  0  0  0  0  0  0  0  0  0
    3.4586    0.8822    1.4776 H   0  0  0  0  0  0  0  0  0  0  0  0
   -0.9553    0.4903    2.2262 H   0  0  0  0  0  0  0  0  0  0  0  0
   -0.8180    2.0155    1.3407 H   0  0  0  0  0  0  0  0  0  0  0  0
  1  2  1  0
  2  3  2  0
  3  4  1  0
  4  5  2  0
  5  6  1  0
  6  7  2  0
  6  8  1  0
  8  9  1  0
  9 10  1  0
 10 11  1  0
 11 12  2  0
 11 13  2  0
 11 14  1  0
 14 15  2  0
 15 16  1  0
 16 17  2  0
 17 18  1  0
 18 19  1  0
 19 20  2  0
 19 21  1  0
 18 22  2  0
 10 23  1  0
  7  2  1  0
 22 14  1  0
 23  5  1  0
  1 24  1  0
  1 25  1  0
  1 26  1  0
  3 27  1  0
  4 28  1  0
  7 29  1  0
  8 30  1  0
  8 31  1  0
  9 32  1  0
  9 33  1  0
 15 34  1  0
 16 35  1  0
 17 36  1  0
 21 37  1  0
 22 38  1  0
 23 39  1  0
 23 40  1  0
M  END
$$$$
