@<TRIPOS>MOLECULE
*****
 35 36 0 0 0
SMALL
GASTEIGER

@<TRIPOS>ATOM
      1 N          -5.7310   -0.6440    0.8324 N.3     1  UNL1       -0.3181
      2 CA         -4.4844    0.0185    0.4352 C.3     1  UNL1        0.1072
      3 C          -3.3682   -0.9241    0.7916 C.3     1  UNL1       -0.0020
      4 C          -2.0276   -0.4174    0.4599 C.ar    1  UNL1       -0.0432
      5 C          -1.3921   -0.6297   -0.7530 C.ar    1  UNL1       -0.0418
      6 C          -0.1143   -0.1205   -1.0075 C.ar    1  UNL1        0.0569
      7 I           0.5041   -0.6009   -2.9806 I       1  UNL1       -0.0400
      8 C           0.5960    0.6280   -0.0595 C.ar    1  UNL1        0.1545
      9 O           1.8226    1.0458   -0.4572 O.3     1  UNL1       -0.4539
     10 C           3.0682    0.5682   -0.2013 C.ar    1  UNL1        0.1307
     11 C           3.9034    1.3192    0.6368 C.ar    1  UNL1       -0.0026
     12 C           5.1874    0.9532    0.9827 C.ar    1  UNL1        0.0592
     13 I           6.4626    2.0581    2.2375 I       1  UNL1       -0.0399
     14 C           5.7364   -0.2255    0.4962 C.ar    1  UNL1        0.1432
     15 O           7.0153   -0.6567    0.7993 O.3     1  UNL1       -0.5047
     16 C           4.9635   -1.0084   -0.3344 C.ar    1  UNL1        0.0592
     17 I           5.7228   -2.8069   -1.1121 I       1  UNL1       -0.0399
     18 C           3.6927   -0.5778   -0.6338 C.ar    1  UNL1       -0.0026
     19 C          -0.1009    0.7949    1.1145 C.ar    1  UNL1        0.0569
     20 I           0.8627    1.9117    2.6104 I       1  UNL1       -0.0400
     21 C          -1.3552    0.3170    1.4140 C.ar    1  UNL1       -0.0418
     22 C          -4.5453    0.3338   -0.9978 C.2     1  UNL1        0.3220
     23 O          -4.3372    0.7412   -2.3043 O.3     1  UNL1       -0.4795
     24 OXT        -5.5513    0.0526   -1.7350 O.2     1  UNL1       -0.2492
     25 H1         -5.6547   -1.6663    0.7509 H       1  UNL1        0.1190
     26 H2         -6.4806   -0.2326    0.2337 H       1  UNL1        0.1190
     27 HA         -4.3918    0.9068    1.0909 H       1  UNL1        0.0577
     28 H          -3.5527   -1.9069    0.3215 H       1  UNL1        0.0334
     29 H          -3.4336   -1.0887    1.8933 H       1  UNL1        0.0334
     30 H          -2.0027   -1.2143   -1.4275 H       1  UNL1        0.0632
     31 H           3.6740    2.2620    1.1016 H       1  UNL1        0.0666
     32 H           7.7064    0.0256    1.1146 H       1  UNL1        0.2922
     33 H           3.1394   -1.2320   -1.2798 H       1  UNL1        0.0666
     34 H          -1.8065    0.5080    2.3681 H       1  UNL1        0.0632
     35 H          -3.7273    1.5079   -2.5873 H       1  UNL1        0.2951
@<TRIPOS>BOND
     1     1     2    1
     2     2     3    1
     3     3     4    1
     4     4     5   ar
     5     5     6   ar
     6     6     7    1
     7     6     8   ar
     8     8     9    1
     9     9    10    1
    10    10    11   ar
    11    11    12   ar
    12    12    13    1
    13    12    14   ar
    14    14    15    1
    15    14    16   ar
    16    16    17    1
    17    16    18   ar
    18     8    19   ar
    19    19    20    1
    20    19    21   ar
    21     2    22    1
    22    22    23    1
    23    22    24    2
    24    21     4   ar
    25    18    10   ar
    26     1    25    1
    27     1    26    1
    28     2    27    1
    29     3    28    1
    30     3    29    1
    31     5    30    1
    32    11    31    1
    33    15    32    1
    34    18    33    1
    35    21    34    1
    36    23    35    1
