@<TRIPOS>MOLECULE
*****
 62 65 0 0 0
SMALL
GASTEIGER

@<TRIPOS>ATOM
      1 C           8.0813   -1.6228   -1.1100 C.3     1  UNL1       -0.0423
      2 C           7.6798   -0.1914   -0.8429 C.3     1  UNL1        0.0842
      3 C           8.6041    0.7370   -1.5910 C.3     1  UNL1       -0.0423
      4 C           7.7916    0.0835    0.5909 C.1     1  UNL1        0.0740
      5 N           7.8880    0.3005    1.7316 N.1     1  UNL1       -0.1956
      6 C           6.2737   -0.0381   -1.2389 C.ar    1  UNL1        0.0304
      7 C           5.6119    0.2993   -2.3651 C.ar    1  UNL1        0.0415
      8 N           4.3037    0.3219   -2.3104 N.ar    1  UNL1       -0.2328
      9 C           3.6163    0.0751   -1.3656 C.ar    1  UNL1        0.1610
     10 N           2.2284    0.0074   -0.9894 N.pl3   1  UNL1       -0.3066
     11 C           1.2786    0.3188   -2.0334 C.3     1  UNL1        0.0298
     12 C           0.2664    1.2710   -1.4296 C.3     1  UNL1        0.0305
     13 N          -0.3286    0.5226   -0.3061 N.am    1  UNL1       -0.2982
     14 C          -1.6824    0.1556   -0.3882 C.2     1  UNL1        0.2195
     15 O          -2.3354    0.5088   -1.4028 O.2     1  UNL1       -0.2753
     16 C          -2.2977   -0.6166    0.6894 C.3     1  UNL1        0.0468
     17 C          -1.7948   -2.0660    0.6991 C.3     1  UNL1       -0.0412
     18 C          -2.1582   -2.7073    2.0042 C.3     1  UNL1       -0.0523
     19 C          -3.6442   -2.5953    2.2860 C.3     1  UNL1       -0.0523
     20 C          -4.1515   -1.2042    2.1388 C.3     1  UNL1       -0.0412
     21 C          -3.7742   -0.6577    0.7447 C.3     1  UNL1        0.0466
     22 C          -4.4382    0.6531    0.5405 C.2     1  UNL1        0.2180
     23 O          -3.7345    1.6734    0.4063 O.2     1  UNL1       -0.2755
     24 N          -5.8440    0.8066    0.4895 N.am    1  UNL1       -0.2971
     25 C          -6.4988    2.0856    0.2894 C.3     1  UNL1        0.1214
     26 C          -6.2187    2.8239   -0.9401 C.1     1  UNL1        0.0883
     27 N          -5.9921    3.4344   -1.9211 N.1     1  UNL1       -0.1943
     28 C          -7.9712    2.1480    0.7571 C.3     1  UNL1       -0.0154
     29 C          -6.9243    2.9161    1.4428 C.3     1  UNL1       -0.0154
     30 C           0.5620    0.2511    0.7938 C.3     1  UNL1        0.0305
     31 C           1.8607   -0.3512    0.3490 C.3     1  UNL1        0.0298
     32 S           4.9323   -0.3191   -0.1054 S.2     1  UNL1       -0.0557
     33 H           7.7168   -2.2265   -0.2375 H       1  UNL1        0.0248
     34 H           9.1882   -1.6443   -1.1877 H       1  UNL1        0.0248
     35 H           7.6649   -2.0263   -2.0356 H       1  UNL1        0.0248
     36 H           9.5244    0.2218   -1.8916 H       1  UNL1        0.0248
     37 H           8.8133    1.6482   -0.9769 H       1  UNL1        0.0248
     38 H           8.0658    1.0837   -2.4897 H       1  UNL1        0.0248
     39 H           6.1569    0.5470   -3.2982 H       1  UNL1        0.0839
     40 H           1.7409    0.7854   -2.9095 H       1  UNL1        0.0480
     41 H           0.7520   -0.6171   -2.3861 H       1  UNL1        0.0480
     42 H           0.8451    2.1287   -1.0185 H       1  UNL1        0.0480
     43 H          -0.5110    1.5876   -2.1456 H       1  UNL1        0.0480
     44 H          -1.9445   -0.1638    1.6575 H       1  UNL1        0.0402
     45 H          -2.3535   -2.6120   -0.1255 H       1  UNL1        0.0273
     46 H          -0.7408   -2.1754    0.4900 H       1  UNL1        0.0273
     47 H          -1.5449   -2.3172    2.8158 H       1  UNL1        0.0265
     48 H          -1.9464   -3.8020    1.9025 H       1  UNL1        0.0265
     49 H          -4.2372   -3.2820    1.6840 H       1  UNL1        0.0265
     50 H          -3.7741   -2.8988    3.3549 H       1  UNL1        0.0265
     51 H          -3.7299   -0.4884    2.8695 H       1  UNL1        0.0273
     52 H          -5.2383   -1.1900    2.2139 H       1  UNL1        0.0273
     53 H          -4.1349   -1.4317    0.0337 H       1  UNL1        0.0401
     54 H          -6.4294   -0.0679    0.6051 H       1  UNL1        0.1502
     55 H          -8.6929    2.6018    0.0649 H       1  UNL1        0.0297
     56 H          -8.3366    1.2389    1.3022 H       1  UNL1        0.0297
     57 H          -6.5519    2.6178    2.4256 H       1  UNL1        0.0297
     58 H          -6.9680    4.0243    1.3060 H       1  UNL1        0.0297
     59 H           0.8153    1.2628    1.2313 H       1  UNL1        0.0480
     60 H           0.1427   -0.3252    1.6223 H       1  UNL1        0.0480
     61 H           1.8271   -1.4637    0.3977 H       1  UNL1        0.0480
     62 H           2.6911   -0.0392    1.0204 H       1  UNL1        0.0480
@<TRIPOS>BOND
     1     1     2    1
     2     2     3    1
     3     2     4    1
     4     4     5    3
     5     2     6    1
     6     6     7   ar
     7     7     8   ar
     8     8     9   ar
     9     9    10    1
    10    10    11    1
    11    11    12    1
    12    12    13    1
    13    13    14   am
    14    14    15    2
    15    14    16    1
    16    16    17    1
    17    17    18    1
    18    18    19    1
    19    19    20    1
    20    20    21    1
    21    21    22    1
    22    22    23    2
    23    22    24   am
    24    24    25    1
    25    25    26    1
    26    26    27    3
    27    25    28    1
    28    28    29    1
    29    13    30    1
    30    30    31    1
    31     9    32   ar
    32    32     6   ar
    33    31    10    1
    34    21    16    1
    35    29    25    1
    36     1    33    1
    37     1    34    1
    38     1    35    1
    39     3    36    1
    40     3    37    1
    41     3    38    1
    42     7    39    1
    43    11    40    1
    44    11    41    1
    45    12    42    1
    46    12    43    1
    47    16    44    1
    48    17    45    1
    49    17    46    1
    50    18    47    1
    51    18    48    1
    52    19    49    1
    53    19    50    1
    54    20    51    1
    55    20    52    1
    56    21    53    1
    57    24    54    1
    58    28    55    1
    59    28    56    1
    60    29    57    1
    61    29    58    1
    62    30    59    1
    63    30    60    1
    64    31    61    1
    65    31    62    1
