
     RDKit          3D

 64 68  0  0  0  0  0  0  0  0999 V2000
   -5.9247   -3.2272    0.3240 C   0  0  0  0  0  0  0  0  0  0  0  0
   -4.5985   -3.7321    0.2270 N   0  0  0  0  0  0  0  0  0  0  0  0
   -3.7628   -3.5144    1.3496 C   0  0  0  0  0  0  0  0  0  0  0  0
   -2.8199   -2.3569    1.2293 C   0  0  0  0  0  0  0  0  0  0  0  0
   -3.0892   -1.5164    0.0031 C   0  0  0  0  0  0  0  0  0  0  0  0
   -4.3149   -0.8852    0.2014 O   0  0  0  0  0  0  0  0  0  0  0  0
   -2.0401   -0.4915   -0.1316 C   0  0  0  0  0  0  0  0  0  0  0  0
   -0.8348   -0.5539   -0.8000 C   0  0  0  0  0  0  0  0  0  0  0  0
   -0.1703    0.6062   -0.6736 N   0  0  0  0  0  0  0  0  0  0  0  0
    1.1033    0.9794   -1.1980 C   0  0  0  0  0  0  0  0  0  0  0  0
    1.2662    2.0918   -2.0059 C   0  0  0  0  0  0  0  0  0  0  0  0
    2.5036    2.4413   -2.5064 C   0  0  0  0  0  0  0  0  0  0  0  0
    3.5496    1.6625   -2.1820 N   0  0  0  0  0  0  0  0  0  0  0  0
    3.4394    0.5624   -1.3936 C   0  0  0  0  0  0  0  0  0  0  0  0
    4.5858   -0.2181   -1.0890 N   0  0  0  0  0  0  0  0  0  0  0  0
    4.4506   -1.3823   -0.2508 C   0  0  0  0  0  0  0  0  0  0  0  0
    3.9088   -0.9136    1.0849 C   0  0  0  0  0  0  0  0  0  0  0  0
    4.5195   -1.8152    2.1117 C   0  0  0  0  0  0  0  0  0  0  0  0
    5.8115   -2.2992    1.5260 C   0  0  0  0  0  0  0  0  0  0  0  0
    5.7508   -2.0553    0.0420 C   0  0  0  0  0  0  0  0  0  0  0  0
    2.2128    0.2671   -0.9331 N   0  0  0  0  0  0  0  0  0  0  0  0
   -0.9681    1.3905    0.0767 C   0  0  0  0  0  0  0  0  0  0  0  0
   -0.6303    2.7517    0.4606 C   0  0  0  0  0  0  0  0  0  0  0  0
    0.3393    2.9283    1.4218 C   0  0  0  0  0  0  0  0  0  0  0  0
    0.6723    4.2197    1.7984 C   0  0  0  0  0  0  0  0  0  0  0  0
    0.0179    5.2640    1.1936 C   0  0  0  0  0  0  0  0  0  0  0  0
   -0.9421    5.0707    0.2412 C   0  0  0  0  0  0  0  0  0  0  0  0
   -1.6029    6.2381   -0.3653 C   0  0  0  0  0  0  0  0  0  0  0  0
   -2.4075    5.8504   -1.3955 F   0  0  0  0  0  0  0  0  0  0  0  0
   -0.6680    7.1214   -0.8575 F   0  0  0  0  0  0  0  0  0  0  0  0
   -2.3803    6.8311    0.6072 F   0  0  0  0  0  0  0  0  0  0  0  0
   -1.2993    3.7838   -0.1591 C   0  0  0  0  0  0  0  0  0  0  0  0
   -2.0891    0.7428    0.4060 N   0  0  0  0  0  0  0  0  0  0  0  0
   -3.1788   -2.3622   -1.2453 C   0  0  0  0  0  0  0  0  0  0  0  0
   -3.9772   -3.6087   -1.0435 C   0  0  0  0  0  0  0  0  0  0  0  0
   -6.6181   -4.1187    0.3565 H   0  0  0  0  0  0  0  0  0  0  0  0
   -6.1461   -2.6583    1.2428 H   0  0  0  0  0  0  0  0  0  0  0  0
   -6.2343   -2.6814   -0.6064 H   0  0  0  0  0  0  0  0  0  0  0  0
   -4.4050   -3.4469    2.2583 H   0  0  0  0  0  0  0  0  0  0  0  0
   -3.1408   -4.4367    1.5026 H   0  0  0  0  0  0  0  0  0  0  0  0
   -1.7608   -2.6446    1.2307 H   0  0  0  0  0  0  0  0  0  0  0  0
   -2.9920   -1.6950    2.1145 H   0  0  0  0  0  0  0  0  0  0  0  0
   -4.2002   -0.0083    0.6175 H   0  0  0  0  0  0  0  0  0  0  0  0
   -0.4594   -1.4089   -1.3545 H   0  0  0  0  0  0  0  0  0  0  0  0
    0.3975    2.6902   -2.2416 H   0  0  0  0  0  0  0  0  0  0  0  0
    2.6384    3.3244   -3.1488 H   0  0  0  0  0  0  0  0  0  0  0  0
    5.5038    0.0410   -1.4602 H   0  0  0  0  0  0  0  0  0  0  0  0
    3.7296   -2.1179   -0.6996 H   0  0  0  0  0  0  0  0  0  0  0  0
    2.8060   -0.9521    1.0506 H   0  0  0  0  0  0  0  0  0  0  0  0
    4.2422    0.1322    1.2713 H   0  0  0  0  0  0  0  0  0  0  0  0
    3.8348   -2.6734    2.3734 H   0  0  0  0  0  0  0  0  0  0  0  0
    4.6748   -1.2489    3.0540 H   0  0  0  0  0  0  0  0  0  0  0  0
    5.8993   -3.3945    1.7668 H   0  0  0  0  0  0  0  0  0  0  0  0
    6.6856   -1.7982    1.9445 H   0  0  0  0  0  0  0  0  0  0  0  0
    5.7637   -3.0666   -0.4601 H   0  0  0  0  0  0  0  0  0  0  0  0
    6.6366   -1.5275   -0.3502 H   0  0  0  0  0  0  0  0  0  0  0  0
    0.8511    2.1020    1.8946 H   0  0  0  0  0  0  0  0  0  0  0  0
    1.4415    4.3703    2.5614 H   0  0  0  0  0  0  0  0  0  0  0  0
    0.2916    6.2701    1.5010 H   0  0  0  0  0  0  0  0  0  0  0  0
   -2.0535    3.6507   -0.9066 H   0  0  0  0  0  0  0  0  0  0  0  0
   -3.6504   -1.7690   -2.0553 H   0  0  0  0  0  0  0  0  0  0  0  0
   -2.1274   -2.5763   -1.5605 H   0  0  0  0  0  0  0  0  0  0  0  0
   -3.2761   -4.4808   -1.1650 H   0  0  0  0  0  0  0  0  0  0  0  0
   -4.7651   -3.7477   -1.8262 H   0  0  0  0  0  0  0  0  0  0  0  0
  1  2  1  0
  2  3  1  0
  3  4  1  0
  4  5  1  0
  5  6  1  0
  5  7  1  0
  7  8  2  0
  8  9  1  0
  9 10  1  0
 10 11  2  0
 11 12  1  0
 12 13  2  0
 13 14  1  0
 14 15  1  0
 15 16  1  0
 16 17  1  0
 17 18  1  0
 18 19  1  0
 19 20  1  0
 14 21  2  0
  9 22  1  0
 22 23  1  0
 23 24  2  0
 24 25  1  0
 25 26  2  0
 26 27  1  0
 27 28  1  0
 28 29  1  0
 28 30  1  0
 28 31  1  0
 27 32  2  0
 22 33  2  0
  5 34  1  0
 34 35  1  0
 35  2  1  0
 33  7  1  0
 21 10  1  0
 32 23  1  0
 20 16  1  0
  1 36  1  0
  1 37  1  0
  1 38  1  0
  3 39  1  0
  3 40  1  0
  4 41  1  0
  4 42  1  0
  6 43  1  0
  8 44  1  0
 11 45  1  0
 12 46  1  0
 15 47  1  0
 16 48  1  0
 17 49  1  0
 17 50  1  0
 18 51  1  0
 18 52  1  0
 19 53  1  0
 19 54  1  0
 20 55  1  0
 20 56  1  0
 24 57  1  0
 25 58  1  0
 26 59  1  0
 32 60  1  0
 34 61  1  0
 34 62  1  0
 35 63  1  0
 35 64  1  0
M  END
$$$$
