@<TRIPOS>MOLECULE
*****
 64 68 0 0 0
SMALL
GASTEIGER

@<TRIPOS>ATOM
      1 C          -5.9247   -3.2272    0.3240 C.3     1  UNL1       -0.0128
      2 N          -4.5985   -3.7321    0.2270 N.3     1  UNL1       -0.3051
      3 C          -3.7628   -3.5144    1.3496 C.3     1  UNL1        0.0016
      4 C          -2.8199   -2.3569    1.2293 C.3     1  UNL1       -0.0055
      5 C          -3.0892   -1.5164    0.0031 C.3     1  UNL1        0.1114
      6 O          -4.3149   -0.8852    0.2014 O.3     1  UNL1       -0.3823
      7 C          -2.0401   -0.4915   -0.1316 C.ar    1  UNL1        0.0916
      8 C          -0.8348   -0.5539   -0.8000 C.ar    1  UNL1        0.0373
      9 N          -0.1703    0.6062   -0.6736 N.ar    1  UNL1       -0.2833
     10 C           1.1033    0.9794   -1.1980 C.ar    1  UNL1        0.1441
     11 C           1.2662    2.0918   -2.0059 C.ar    1  UNL1       -0.0005
     12 C           2.5036    2.4413   -2.5064 C.ar    1  UNL1        0.0347
     13 N           3.5496    1.6625   -2.1820 N.ar    1  UNL1       -0.2228
     14 C           3.4394    0.5624   -1.3936 C.ar    1  UNL1        0.2172
     15 N           4.5858   -0.2181   -1.0890 N.pl3   1  UNL1       -0.3106
     16 C           4.4506   -1.3823   -0.2508 C.3     1  UNL1        0.0233
     17 C           3.9088   -0.9136    1.0849 C.3     1  UNL1       -0.0345
     18 C           4.5195   -1.8152    2.1117 C.3     1  UNL1       -0.0513
     19 C           5.8115   -2.2992    1.5260 C.3     1  UNL1       -0.0513
     20 C           5.7508   -2.0553    0.0420 C.3     1  UNL1       -0.0345
     21 N           2.2128    0.2671   -0.9331 N.ar    1  UNL1       -0.1967
     22 C          -0.9681    1.3905    0.0767 C.ar    1  UNL1        0.1467
     23 C          -0.6303    2.7517    0.4606 C.ar    1  UNL1        0.0184
     24 C           0.3393    2.9283    1.4218 C.ar    1  UNL1       -0.0511
     25 C           0.6723    4.2197    1.7984 C.ar    1  UNL1       -0.0606
     26 C           0.0179    5.2640    1.1936 C.ar    1  UNL1       -0.0501
     27 C          -0.9421    5.0707    0.2412 C.ar    1  UNL1        0.0555
     28 C          -1.6029    6.2381   -0.3653 C.3     1  UNL1        0.4174
     29 F          -2.4075    5.8504   -1.3955 F       1  UNL1       -0.1659
     30 F          -0.6680    7.1214   -0.8575 F       1  UNL1       -0.1659
     31 F          -2.3803    6.8311    0.6072 F       1  UNL1       -0.1659
     32 C          -1.2993    3.7838   -0.1591 C.ar    1  UNL1       -0.0395
     33 N          -2.0891    0.7428    0.4060 N.ar    1  UNL1       -0.2292
     34 C          -3.1788   -2.3622   -1.2453 C.3     1  UNL1       -0.0055
     35 C          -3.9772   -3.6087   -1.0435 C.3     1  UNL1        0.0016
     36 H          -6.6181   -4.1187    0.3565 H       1  UNL1        0.0391
     37 H          -6.1461   -2.6583    1.2428 H       1  UNL1        0.0391
     38 H          -6.2343   -2.6814   -0.6064 H       1  UNL1        0.0391
     39 H          -4.4050   -3.4469    2.2583 H       1  UNL1        0.0427
     40 H          -3.1408   -4.4367    1.5026 H       1  UNL1        0.0427
     41 H          -1.7608   -2.6446    1.2307 H       1  UNL1        0.0309
     42 H          -2.9920   -1.6950    2.1145 H       1  UNL1        0.0309
     43 H          -4.2002   -0.0083    0.6175 H       1  UNL1        0.2107
     44 H          -0.4594   -1.4089   -1.3545 H       1  UNL1        0.0833
     45 H           0.3975    2.6902   -2.2416 H       1  UNL1        0.0669
     46 H           2.6384    3.3244   -3.1488 H       1  UNL1        0.0832
     47 H           5.5038    0.0410   -1.4602 H       1  UNL1        0.1492
     48 H           3.7296   -2.1179   -0.6996 H       1  UNL1        0.0498
     49 H           2.8060   -0.9521    1.0506 H       1  UNL1        0.0283
     50 H           4.2422    0.1322    1.2713 H       1  UNL1        0.0283
     51 H           3.8348   -2.6734    2.3734 H       1  UNL1        0.0266
     52 H           4.6748   -1.2489    3.0540 H       1  UNL1        0.0266
     53 H           5.8993   -3.3945    1.7668 H       1  UNL1        0.0266
     54 H           6.6856   -1.7982    1.9445 H       1  UNL1        0.0266
     55 H           5.7637   -3.0666   -0.4601 H       1  UNL1        0.0283
     56 H           6.6366   -1.5275   -0.3502 H       1  UNL1        0.0283
     57 H           0.8511    2.1020    1.8946 H       1  UNL1        0.0625
     58 H           1.4415    4.3703    2.5614 H       1  UNL1        0.0618
     59 H           0.2916    6.2701    1.5010 H       1  UNL1        0.0623
     60 H          -2.0535    3.6507   -0.9066 H       1  UNL1        0.0630
     61 H          -3.6504   -1.7690   -2.0553 H       1  UNL1        0.0309
     62 H          -2.1274   -2.5763   -1.5605 H       1  UNL1        0.0309
     63 H          -3.2761   -4.4808   -1.1650 H       1  UNL1        0.0427
     64 H          -4.7651   -3.7477   -1.8262 H       1  UNL1        0.0427
@<TRIPOS>BOND
     1     1     2    1
     2     2     3    1
     3     3     4    1
     4     4     5    1
     5     5     6    1
     6     5     7    1
     7     7     8   ar
     8     8     9   ar
     9     9    10    1
    10    10    11   ar
    11    11    12   ar
    12    12    13   ar
    13    13    14   ar
    14    14    15    1
    15    15    16    1
    16    16    17    1
    17    17    18    1
    18    18    19    1
    19    19    20    1
    20    14    21   ar
    21     9    22   ar
    22    22    23    1
    23    23    24   ar
    24    24    25   ar
    25    25    26   ar
    26    26    27   ar
    27    27    28    1
    28    28    29    1
    29    28    30    1
    30    28    31    1
    31    27    32   ar
    32    22    33   ar
    33     5    34    1
    34    34    35    1
    35    35     2    1
    36    33     7   ar
    37    21    10   ar
    38    32    23   ar
    39    20    16    1
    40     1    36    1
    41     1    37    1
    42     1    38    1
    43     3    39    1
    44     3    40    1
    45     4    41    1
    46     4    42    1
    47     6    43    1
    48     8    44    1
    49    11    45    1
    50    12    46    1
    51    15    47    1
    52    16    48    1
    53    17    49    1
    54    17    50    1
    55    18    51    1
    56    18    52    1
    57    19    53    1
    58    19    54    1
    59    20    55    1
    60    20    56    1
    61    24    57    1
    62    25    58    1
    63    26    59    1
    64    32    60    1
    65    34    61    1
    66    34    62    1
    67    35    63    1
    68    35    64    1
