@<TRIPOS>MOLECULE
*****
 26 27 0 0 0
SMALL
GASTEIGER

@<TRIPOS>ATOM
      1 C          -3.6175    1.2086    1.5129 C.3     1  UNL1        0.0140
      2 C          -3.4743    0.4948    0.2251 C.2     1  UNL1        0.2317
      3 O          -4.4627    0.3613   -0.5336 O.2     1  UNL1       -0.2742
      4 N          -2.2357   -0.0572   -0.1954 N.am    1  UNL1       -0.1928
      5 C          -1.9619   -0.7760   -1.4259 C.3     1  UNL1        0.0433
      6 C          -0.5319   -0.2977   -1.7156 C.3     1  UNL1        0.0094
      7 C          -0.0200   -0.1601   -0.3296 C.2     1  UNL1        0.0682
      8 C           1.4057   -0.1801   -0.0103 C.ar    1  UNL1       -0.0021
      9 C           2.3636   -0.3263   -0.9627 C.ar    1  UNL1       -0.0515
     10 C           3.6974   -0.3402   -0.6218 C.ar    1  UNL1       -0.0428
     11 C           4.1307   -0.2091    0.6804 C.ar    1  UNL1        0.0410
     12 CL          5.8379   -0.2347    1.0477 Cl      1  UNL1       -0.0835
     13 C           3.1593   -0.0591    1.6606 C.ar    1  UNL1       -0.0428
     14 C           1.8249   -0.0452    1.3204 C.ar    1  UNL1       -0.0515
     15 N          -1.0092   -0.0283    0.4852 N.2     1  UNL1       -0.1815
     16 H          -4.5763    0.9102    2.0069 H       1  UNL1        0.0323
     17 H          -2.8112    0.9754    2.2275 H       1  UNL1        0.0323
     18 H          -3.6192    2.3146    1.3845 H       1  UNL1        0.0323
     19 H          -2.5779   -0.3959   -2.2645 H       1  UNL1        0.0489
     20 H          -1.9925   -1.8666   -1.3110 H       1  UNL1        0.0489
     21 H          -0.5177    0.6321   -2.2882 H       1  UNL1        0.0345
     22 H          -0.0395   -1.1439   -2.2322 H       1  UNL1        0.0345
     23 H           2.0417   -0.4326   -2.0079 H       1  UNL1        0.0624
     24 H           4.4523   -0.4592   -1.4052 H       1  UNL1        0.0632
     25 H           3.4830    0.0448    2.6858 H       1  UNL1        0.0632
     26 H           1.0509    0.0704    2.0670 H       1  UNL1        0.0624
@<TRIPOS>BOND
     1     1     2    1
     2     2     3    2
     3     2     4   am
     4     4     5    1
     5     5     6    1
     6     6     7    1
     7     7     8    1
     8     8     9   ar
     9     9    10   ar
    10    10    11   ar
    11    11    12    1
    12    11    13   ar
    13    13    14   ar
    14     7    15    2
    15    15     4    1
    16    14     8   ar
    17     1    16    1
    18     1    17    1
    19     1    18    1
    20     5    19    1
    21     5    20    1
    22     6    21    1
    23     6    22    1
    24     9    23    1
    25    10    24    1
    26    13    25    1
    27    14    26    1
