
     RDKit          3D

 26 27  0  0  0  0  0  0  0  0999 V2000
   -3.6175    1.2086    1.5129 C   0  0  0  0  0  0  0  0  0  0  0  0
   -3.4743    0.4948    0.2251 C   0  0  0  0  0  0  0  0  0  0  0  0
   -4.4627    0.3613   -0.5336 O   0  0  0  0  0  0  0  0  0  0  0  0
   -2.2357   -0.0572   -0.1954 N   0  0  0  0  0  0  0  0  0  0  0  0
   -1.9619   -0.7760   -1.4259 C   0  0  0  0  0  0  0  0  0  0  0  0
   -0.5319   -0.2977   -1.7156 C   0  0  0  0  0  0  0  0  0  0  0  0
   -0.0200   -0.1601   -0.3296 C   0  0  0  0  0  0  0  0  0  0  0  0
    1.4057   -0.1801   -0.0103 C   0  0  0  0  0  0  0  0  0  0  0  0
    2.3636   -0.3263   -0.9627 C   0  0  0  0  0  0  0  0  0  0  0  0
    3.6974   -0.3402   -0.6218 C   0  0  0  0  0  0  0  0  0  0  0  0
    4.1307   -0.2091    0.6804 C   0  0  0  0  0  0  0  0  0  0  0  0
    5.8379   -0.2347    1.0477 Cl  0  0  0  0  0  0  0  0  0  0  0  0
    3.1593   -0.0591    1.6606 C   0  0  0  0  0  0  0  0  0  0  0  0
    1.8249   -0.0452    1.3204 C   0  0  0  0  0  0  0  0  0  0  0  0
   -1.0092   -0.0283    0.4852 N   0  0  0  0  0  0  0  0  0  0  0  0
   -4.5763    0.9102    2.0069 H   0  0  0  0  0  0  0  0  0  0  0  0
   -2.8112    0.9754    2.2275 H   0  0  0  0  0  0  0  0  0  0  0  0
   -3.6192    2.3146    1.3845 H   0  0  0  0  0  0  0  0  0  0  0  0
   -2.5779   -0.3959   -2.2645 H   0  0  0  0  0  0  0  0  0  0  0  0
   -1.9925   -1.8666   -1.3110 H   0  0  0  0  0  0  0  0  0  0  0  0
   -0.5177    0.6321   -2.2882 H   0  0  0  0  0  0  0  0  0  0  0  0
   -0.0395   -1.1439   -2.2322 H   0  0  0  0  0  0  0  0  0  0  0  0
    2.0417   -0.4326   -2.0079 H   0  0  0  0  0  0  0  0  0  0  0  0
    4.4523   -0.4592   -1.4052 H   0  0  0  0  0  0  0  0  0  0  0  0
    3.4830    0.0448    2.6858 H   0  0  0  0  0  0  0  0  0  0  0  0
    1.0509    0.0704    2.0670 H   0  0  0  0  0  0  0  0  0  0  0  0
  1  2  1  0
  2  3  2  0
  2  4  1  0
  4  5  1  0
  5  6  1  0
  6  7  1  0
  7  8  1  0
  8  9  2  0
  9 10  1  0
 10 11  2  0
 11 12  1  0
 11 13  1  0
 13 14  2  0
  7 15  2  0
 15  4  1  0
 14  8  1  0
  1 16  1  0
  1 17  1  0
  1 18  1  0
  5 19  1  0
  5 20  1  0
  6 21  1  0
  6 22  1  0
  9 23  1  0
 10 24  1  0
 13 25  1  0
 14 26  1  0
M  END
$$$$
