
     RDKit          3D

 53 57  0  0  0  0  0  0  0  0999 V2000
   -2.0651   -2.5922   -1.9545 C   0  0  0  0  0  0  0  0  0  0  0  0
   -1.5024   -2.1555   -0.7321 O   0  0  0  0  0  0  0  0  0  0  0  0
   -1.8999   -0.9752   -0.1223 C   0  0  0  0  0  0  0  0  0  0  0  0
   -2.8684   -0.1818   -0.6969 C   0  0  0  0  0  0  0  0  0  0  0  0
   -3.2723    0.9912   -0.1029 C   0  0  0  0  0  0  0  0  0  0  0  0
   -4.2944    1.8574   -0.6811 C   0  0  0  0  0  0  0  0  0  0  0  0
   -4.2395    3.2165   -0.4812 C   0  0  0  0  0  0  0  0  0  0  0  0
   -5.2002    4.0492   -1.0224 C   0  0  0  0  0  0  0  0  0  0  0  0
   -5.1190    5.3865   -0.8073 F   0  0  0  0  0  0  0  0  0  0  0  0
   -6.2342    3.5248   -1.7756 C   0  0  0  0  0  0  0  0  0  0  0  0
   -6.3051    2.1592   -1.9871 C   0  0  0  0  0  0  0  0  0  0  0  0
   -7.3190    1.6386   -2.7260 F   0  0  0  0  0  0  0  0  0  0  0  0
   -5.3358    1.3328   -1.4394 C   0  0  0  0  0  0  0  0  0  0  0  0
   -2.6833    1.3589    1.0879 C   0  0  0  0  0  0  0  0  0  0  0  0
   -1.7238    0.5534    1.6378 C   0  0  0  0  0  0  0  0  0  0  0  0
   -1.2942   -0.6240    1.0757 C   0  0  0  0  0  0  0  0  0  0  0  0
   -0.3001   -1.4726    1.6316 N   0  0  0  0  0  0  0  0  0  0  0  0
   -0.6190   -2.6607    2.1867 C   0  0  0  0  0  0  0  0  0  0  0  0
   -1.8429   -2.9814    2.1878 O   0  0  0  0  0  0  0  0  0  0  0  0
    0.3544   -3.4889    2.7300 C   0  0  0  0  0  0  0  0  0  0  0  0
    1.6624   -3.0490    2.6800 C   0  0  0  0  0  0  0  0  0  0  0  0
    2.0103   -1.8372    2.1168 C   0  0  0  0  0  0  0  0  0  0  0  0
    3.3063   -1.3888    2.0611 C   0  0  0  0  0  0  0  0  0  0  0  0
    3.6711   -0.1613    1.4923 C   0  0  0  0  0  0  0  0  0  0  0  0
    5.3396    0.3461    1.4774 S   0  0  0  0  0  6  0  0  0  0  0  0
    6.0266    0.0427    2.7767 O   0  0  0  0  0  0  0  0  0  0  0  0
    5.3983    1.8579    1.3208 O   0  0  0  0  0  0  0  0  0  0  0  0
    6.2612   -0.3433    0.2077 N   0  0  0  0  0  0  0  0  0  0  0  0
    5.9879   -0.1382   -1.1636 C   0  0  0  0  0  0  0  0  0  0  0  0
    5.0249    0.6018   -1.8069 C   0  0  0  0  0  0  0  0  0  0  0  0
    5.2132    0.4624   -3.1797 C   0  0  0  0  0  0  0  0  0  0  0  0
    6.2302   -0.3161   -3.3180 O   0  0  0  0  0  0  0  0  0  0  0  0
    6.7105   -0.6880   -2.1708 N   0  0  0  0  0  0  0  0  0  0  0  0
    2.6344    0.5881    0.9806 C   0  0  0  0  0  0  0  0  0  0  0  0
    1.3110    0.1487    1.0281 C   0  0  0  0  0  0  0  0  0  0  0  0
    0.9875   -1.0644    1.5949 C   0  0  0  0  0  0  0  0  0  0  0  0
   -3.1087   -2.9197   -1.8455 H   0  0  0  0  0  0  0  0  0  0  0  0
   -2.0244   -1.7431   -2.6832 H   0  0  0  0  0  0  0  0  0  0  0  0
   -1.4720   -3.4191   -2.3953 H   0  0  0  0  0  0  0  0  0  0  0  0
   -3.3434   -0.4658   -1.6447 H   0  0  0  0  0  0  0  0  0  0  0  0
   -3.4214    3.6362    0.1155 H   0  0  0  0  0  0  0  0  0  0  0  0
   -7.0071    4.1463   -2.2169 H   0  0  0  0  0  0  0  0  0  0  0  0
   -5.3553    0.2668   -1.5806 H   0  0  0  0  0  0  0  0  0  0  0  0
   -2.9837    2.2914    1.5889 H   0  0  0  0  0  0  0  0  0  0  0  0
   -1.2616    0.8432    2.5735 H   0  0  0  0  0  0  0  0  0  0  0  0
    0.0640   -4.4394    3.1695 H   0  0  0  0  0  0  0  0  0  0  0  0
    2.4579   -3.6572    3.0896 H   0  0  0  0  0  0  0  0  0  0  0  0
    4.1009   -1.9830    2.4634 H   0  0  0  0  0  0  0  0  0  0  0  0
    7.0972   -0.9692    0.4287 H   0  0  0  0  0  0  0  0  0  0  0  0
    4.2736    1.1793   -1.3151 H   0  0  0  0  0  0  0  0  0  0  0  0
    4.6074    0.9291   -3.9335 H   0  0  0  0  0  0  0  0  0  0  0  0
    2.8553    1.5604    0.5299 H   0  0  0  0  0  0  0  0  0  0  0  0
    0.5101    0.7464    0.6226 H   0  0  0  0  0  0  0  0  0  0  0  0
  1  2  1  0
  2  3  1  0
  3  4  2  0
  4  5  1  0
  5  6  1  0
  6  7  2  0
  7  8  1  0
  8  9  1  0
  8 10  2  0
 10 11  1  0
 11 12  1  0
 11 13  2  0
  5 14  2  0
 14 15  1  0
 15 16  2  0
 16 17  1  0
 17 18  1  0
 18 19  2  0
 18 20  1  0
 20 21  2  0
 21 22  1  0
 22 23  2  0
 23 24  1  0
 24 25  1  0
 25 26  2  0
 25 27  2  0
 25 28  1  0
 28 29  1  0
 29 30  1  0
 30 31  2  0
 31 32  1  0
 32 33  1  0
 24 34  2  0
 34 35  1  0
 35 36  2  0
 16  3  1  0
 36 17  1  0
 13  6  1  0
 36 22  1  0
 33 29  2  0
  1 37  1  0
  1 38  1  0
  1 39  1  0
  4 40  1  0
  7 41  1  0
 10 42  1  0
 13 43  1  0
 14 44  1  0
 15 45  1  0
 20 46  1  0
 21 47  1  0
 23 48  1  0
 28 49  1  0
 30 50  1  0
 31 51  1  0
 34 52  1  0
 35 53  1  0
M  END
$$$$
