@<TRIPOS>MOLECULE
*****
 53 57 0 0 0
SMALL
GASTEIGER

@<TRIPOS>ATOM
      1 C          -2.0651   -2.5922   -1.9545 C.3     1  UNL1        0.0789
      2 O          -1.5024   -2.1555   -0.7321 O.3     1  UNL1       -0.4930
      3 C          -1.8999   -0.9752   -0.1223 C.ar    1  UNL1        0.1445
      4 C          -2.8684   -0.1818   -0.6969 C.ar    1  UNL1       -0.0102
      5 C          -3.2723    0.9912   -0.1029 C.ar    1  UNL1       -0.0141
      6 C          -4.2944    1.8574   -0.6811 C.ar    1  UNL1       -0.0123
      7 C          -4.2395    3.2165   -0.4812 C.ar    1  UNL1       -0.0186
      8 C          -5.2002    4.0492   -1.0224 C.ar    1  UNL1        0.1267
      9 F          -5.1190    5.3865   -0.8073 F       1  UNL1       -0.2054
     10 C          -6.2342    3.5248   -1.7756 C.ar    1  UNL1        0.0088
     11 C          -6.3051    2.1592   -1.9871 C.ar    1  UNL1        0.1267
     12 F          -7.3190    1.6386   -2.7260 F       1  UNL1       -0.2054
     13 C          -5.3358    1.3328   -1.4394 C.ar    1  UNL1       -0.0186
     14 C          -2.6833    1.3589    1.0879 C.ar    1  UNL1       -0.0518
     15 C          -1.7238    0.5534    1.6378 C.ar    1  UNL1       -0.0336
     16 C          -1.2942   -0.6240    1.0757 C.ar    1  UNL1        0.0916
     17 N          -0.3001   -1.4726    1.6316 N.ar    1  UNL1       -0.2734
     18 C          -0.6190   -2.6607    2.1867 C.ar    1  UNL1        0.2563
     19 O          -1.8429   -2.9814    2.1878 O.2     1  UNL1       -0.2673
     20 C           0.3544   -3.4889    2.7300 C.ar    1  UNL1        0.0039
     21 C           1.6624   -3.0490    2.6800 C.ar    1  UNL1       -0.0474
     22 C           2.0103   -1.8372    2.1168 C.ar    1  UNL1        0.0009
     23 C           3.3063   -1.3888    2.0611 C.ar    1  UNL1       -0.0259
     24 C           3.6711   -0.1613    1.4923 C.ar    1  UNL1        0.1092
     25 S           5.3396    0.3461    1.4774 S.O2    1  UNL1        0.0736
     26 O           6.0266    0.0427    2.7767 O.2     1  UNL1       -0.1499
     27 O           5.3983    1.8579    1.3208 O.2     1  UNL1       -0.1499
     28 N           6.2612   -0.3433    0.2077 N.pl3   1  UNL1       -0.1968
     29 C           5.9879   -0.1382   -1.1636 C.ar    1  UNL1        0.1805
     30 C           5.0249    0.6018   -1.8069 C.ar    1  UNL1        0.0203
     31 C           5.2132    0.4624   -3.1797 C.ar    1  UNL1        0.1261
     32 O           6.2302   -0.3161   -3.3180 O.2     1  UNL1       -0.3611
     33 N           6.7105   -0.6880   -2.1708 N.ar    1  UNL1       -0.0620
     34 C           2.6344    0.5881    0.9806 C.ar    1  UNL1       -0.0331
     35 C           1.3110    0.1487    1.0281 C.ar    1  UNL1       -0.0353
     36 C           0.9875   -1.0644    1.5949 C.ar    1  UNL1        0.0574
     37 H          -3.1087   -2.9197   -1.8455 H       1  UNL1        0.0660
     38 H          -2.0244   -1.7431   -2.6832 H       1  UNL1        0.0660
     39 H          -1.4720   -3.4191   -2.3953 H       1  UNL1        0.0660
     40 H          -3.3434   -0.4658   -1.6447 H       1  UNL1        0.0661
     41 H          -3.4214    3.6362    0.1155 H       1  UNL1        0.0652
     42 H          -7.0071    4.1463   -2.2169 H       1  UNL1        0.0675
     43 H          -5.3553    0.2668   -1.5806 H       1  UNL1        0.0652
     44 H          -2.9837    2.2914    1.5889 H       1  UNL1        0.0624
     45 H          -1.2616    0.8432    2.5735 H       1  UNL1        0.0640
     46 H           0.0640   -4.4394    3.1695 H       1  UNL1        0.0672
     47 H           2.4579   -3.6572    3.0896 H       1  UNL1        0.0626
     48 H           4.1009   -1.9830    2.4634 H       1  UNL1        0.0644
     49 H           7.0972   -0.9692    0.4287 H       1  UNL1        0.1753
     50 H           4.2736    1.1793   -1.3151 H       1  UNL1        0.0685
     51 H           4.6074    0.9291   -3.9335 H       1  UNL1        0.1058
     52 H           2.8553    1.5604    0.5299 H       1  UNL1        0.0638
     53 H           0.5101    0.7464    0.6226 H       1  UNL1        0.0639
@<TRIPOS>BOND
     1     1     2    1
     2     2     3    1
     3     3     4   ar
     4     4     5   ar
     5     5     6    1
     6     6     7   ar
     7     7     8   ar
     8     8     9    1
     9     8    10   ar
    10    10    11   ar
    11    11    12    1
    12    11    13   ar
    13     5    14   ar
    14    14    15   ar
    15    15    16   ar
    16    16    17    1
    17    17    18   ar
    18    18    19    2
    19    18    20   ar
    20    20    21   ar
    21    21    22   ar
    22    22    23   ar
    23    23    24   ar
    24    24    25    1
    25    25    26    2
    26    25    27    2
    27    25    28    1
    28    28    29    1
    29    29    30   ar
    30    30    31   ar
    31    31    32   ar
    32    32    33   ar
    33    24    34   ar
    34    34    35   ar
    35    35    36   ar
    36    16     3   ar
    37    36    17   ar
    38    13     6   ar
    39    36    22   ar
    40    33    29   ar
    41     1    37    1
    42     1    38    1
    43     1    39    1
    44     4    40    1
    45     7    41    1
    46    10    42    1
    47    13    43    1
    48    14    44    1
    49    15    45    1
    50    20    46    1
    51    21    47    1
    52    23    48    1
    53    28    49    1
    54    30    50    1
    55    31    51    1
    56    34    52    1
    57    35    53    1
