@<TRIPOS>MOLECULE
*****
 61 68 0 0 0
SMALL
GASTEIGER

@<TRIPOS>ATOM
      1 C          -3.1129   -0.5951    2.1662 C.3     1  UNL1       -0.0155
      2 N          -3.8729   -0.7594    0.9786 N.3     1  UNL1       -0.3136
      3 C          -3.1189   -0.7246   -0.2591 C.3     1  UNL1        0.0423
      4 C          -2.0971   -1.7988   -0.2094 C.3     1  UNL1        0.0107
      5 C          -1.1233   -1.6686   -1.3381 C.3     1  UNL1        0.1402
      6 O          -1.1452   -0.5606   -2.0508 O.3     1  UNL1       -0.3282
      7 C          -1.4121    0.6782   -1.4755 C.3     1  UNL1        0.1741
      8 C          -1.7007    1.5580   -2.6977 C.3     1  UNL1       -0.0136
      9 C          -2.6042    0.6496   -0.5987 C.3     1  UNL1        0.1214
     10 O          -2.4734    1.3360    0.5908 O.3     1  UNL1       -0.3735
     11 C          -3.4161    2.3698    0.7276 C.3     1  UNL1        0.0371
     12 N          -0.1925    1.1779   -0.8151 N.ar    1  UNL1       -0.3070
     13 C           0.1531    2.4460   -0.5800 C.ar    1  UNL1        0.0527
     14 C          -0.4812    3.6331   -0.8182 C.ar    1  UNL1       -0.0375
     15 C           0.0847    4.8397   -0.4763 C.ar    1  UNL1       -0.0598
     16 C           1.3244    4.9288    0.1273 C.ar    1  UNL1       -0.0611
     17 C           1.9719    3.7390    0.3723 C.ar    1  UNL1       -0.0520
     18 C           1.4127    2.5246    0.0331 C.ar    1  UNL1        0.0081
     19 C           1.8214    1.2282    0.1636 C.ar    1  UNL1        0.0151
     20 C           2.9820    0.6780    0.6923 C.ar    1  UNL1       -0.0078
     21 C           3.1723   -0.7069    0.7104 C.ar    1  UNL1        0.0518
     22 C           2.1654   -1.5051    0.1854 C.ar    1  UNL1        0.0221
     23 C           2.0280   -2.8715    0.0630 C.ar    1  UNL1        0.0085
     24 C           2.8064   -3.9591    0.3853 C.ar    1  UNL1       -0.0520
     25 C           2.3590   -5.2556    0.1196 C.ar    1  UNL1       -0.0611
     26 C           1.1254   -5.4137   -0.4701 C.ar    1  UNL1       -0.0598
     27 C           0.3366   -4.3302   -0.7976 C.ar    1  UNL1       -0.0375
     28 C           0.7859   -3.0565   -0.5319 C.ar    1  UNL1        0.0524
     29 N           0.2122   -1.8809   -0.7540 N.ar    1  UNL1       -0.3115
     30 C           1.0191   -0.9037   -0.3340 C.ar    1  UNL1        0.0774
     31 C           0.8456    0.4572   -0.3479 C.ar    1  UNL1        0.0772
     32 C           4.4458   -0.9848    1.3058 C.2     1  UNL1        0.2453
     33 O           5.0280   -2.0545    1.5281 O.2     1  UNL1       -0.2702
     34 N           5.0438    0.2719    1.6587 N.am    1  UNL1       -0.3072
     35 C           4.1712    1.3173    1.2982 C.3     1  UNL1        0.0385
     36 H          -3.2516   -1.4436    2.8948 H       1  UNL1        0.0388
     37 H          -3.5419    0.2858    2.7307 H       1  UNL1        0.0388
     38 H          -2.0484   -0.3994    2.0704 H       1  UNL1        0.0388
     39 H          -4.4929   -1.5766    1.0426 H       1  UNL1        0.1220
     40 H          -3.8705   -1.0448   -1.0484 H       1  UNL1        0.0489
     41 H          -1.5960   -1.8984    0.7789 H       1  UNL1        0.0325
     42 H          -2.6442   -2.7819   -0.3222 H       1  UNL1        0.0325
     43 H          -1.2377   -2.5454   -2.0436 H       1  UNL1        0.0839
     44 H          -1.9249    0.9307   -3.6194 H       1  UNL1        0.0277
     45 H          -0.8396    2.1501   -3.0077 H       1  UNL1        0.0277
     46 H          -2.6601    2.1204   -2.5848 H       1  UNL1        0.0277
     47 H          -3.4687    1.1536   -1.1333 H       1  UNL1        0.0660
     48 H          -3.2997    2.9041    1.6693 H       1  UNL1        0.0524
     49 H          -3.4643    2.9961   -0.1758 H       1  UNL1        0.0524
     50 H          -4.4297    1.8729    0.7845 H       1  UNL1        0.0524
     51 H          -1.4325    3.6242   -1.2696 H       1  UNL1        0.0638
     52 H          -0.4301    5.7783   -0.6714 H       1  UNL1        0.0618
     53 H           1.7722    5.8798    0.3975 H       1  UNL1        0.0618
     54 H           2.9415    3.7823    0.8430 H       1  UNL1        0.0624
     55 H           3.7684   -3.8772    0.8432 H       1  UNL1        0.0624
     56 H           2.9645   -6.1102    0.3700 H       1  UNL1        0.0618
     57 H           0.7928   -6.4108   -0.6691 H       1  UNL1        0.0618
     58 H          -0.6364   -4.4351   -1.2618 H       1  UNL1        0.0638
     59 H           5.9746    0.3800    2.1088 H       1  UNL1        0.1493
     60 H           4.6381    1.9641    0.5251 H       1  UNL1        0.0512
     61 H           3.8726    1.8977    2.1967 H       1  UNL1        0.0512
@<TRIPOS>BOND
     1     1     2    1
     2     2     3    1
     3     3     4    1
     4     4     5    1
     5     5     6    1
     6     6     7    1
     7     7     8    1
     8     7     9    1
     9     9    10    1
    10    10    11    1
    11     7    12    1
    12    12    13   ar
    13    13    14   ar
    14    14    15   ar
    15    15    16   ar
    16    16    17   ar
    17    17    18   ar
    18    18    19   ar
    19    19    20   ar
    20    20    21   ar
    21    21    22   ar
    22    22    23   ar
    23    23    24   ar
    24    24    25   ar
    25    25    26   ar
    26    26    27   ar
    27    27    28   ar
    28    28    29   ar
    29    29    30   ar
    30    30    31   ar
    31    21    32    1
    32    32    33    2
    33    32    34   am
    34    34    35    1
    35     9     3    1
    36    31    12   ar
    37    29     5    1
    38    18    13   ar
    39    31    19   ar
    40    35    20    1
    41    30    22   ar
    42    28    23   ar
    43     1    36    1
    44     1    37    1
    45     1    38    1
    46     2    39    1
    47     3    40    1
    48     4    41    1
    49     4    42    1
    50     5    43    1
    51     8    44    1
    52     8    45    1
    53     8    46    1
    54     9    47    1
    55    11    48    1
    56    11    49    1
    57    11    50    1
    58    14    51    1
    59    15    52    1
    60    16    53    1
    61    17    54    1
    62    24    55    1
    63    25    56    1
    64    26    57    1
    65    27    58    1
    66    34    59    1
    67    35    60    1
    68    35    61    1
