
     RDKit          3D

 61 68  0  0  0  0  0  0  0  0999 V2000
   -3.1129   -0.5951    2.1662 C   0  0  0  0  0  0  0  0  0  0  0  0
   -3.8729   -0.7594    0.9786 N   0  0  0  0  0  0  0  0  0  0  0  0
   -3.1189   -0.7246   -0.2591 C   0  0  2  0  0  0  0  0  0  0  0  0
   -2.0971   -1.7988   -0.2094 C   0  0  0  0  0  0  0  0  0  0  0  0
   -1.1233   -1.6686   -1.3381 C   0  0  1  0  0  0  0  0  0  0  0  0
   -1.1452   -0.5606   -2.0508 O   0  0  0  0  0  0  0  0  0  0  0  0
   -1.4121    0.6782   -1.4755 C   0  0  1  0  0  0  0  0  0  0  0  0
   -1.7007    1.5580   -2.6977 C   0  0  0  0  0  0  0  0  0  0  0  0
   -2.6042    0.6496   -0.5987 C   0  0  2  0  0  0  0  0  0  0  0  0
   -2.4734    1.3360    0.5908 O   0  0  0  0  0  0  0  0  0  0  0  0
   -3.4161    2.3698    0.7276 C   0  0  0  0  0  0  0  0  0  0  0  0
   -0.1925    1.1779   -0.8151 N   0  0  0  0  0  0  0  0  0  0  0  0
    0.1531    2.4460   -0.5800 C   0  0  0  0  0  0  0  0  0  0  0  0
   -0.4812    3.6331   -0.8182 C   0  0  0  0  0  0  0  0  0  0  0  0
    0.0847    4.8397   -0.4763 C   0  0  0  0  0  0  0  0  0  0  0  0
    1.3244    4.9288    0.1273 C   0  0  0  0  0  0  0  0  0  0  0  0
    1.9719    3.7390    0.3723 C   0  0  0  0  0  0  0  0  0  0  0  0
    1.4127    2.5246    0.0331 C   0  0  0  0  0  0  0  0  0  0  0  0
    1.8214    1.2282    0.1636 C   0  0  0  0  0  0  0  0  0  0  0  0
    2.9820    0.6780    0.6923 C   0  0  0  0  0  0  0  0  0  0  0  0
    3.1723   -0.7069    0.7104 C   0  0  0  0  0  0  0  0  0  0  0  0
    2.1654   -1.5051    0.1854 C   0  0  0  0  0  0  0  0  0  0  0  0
    2.0280   -2.8715    0.0630 C   0  0  0  0  0  0  0  0  0  0  0  0
    2.8064   -3.9591    0.3853 C   0  0  0  0  0  0  0  0  0  0  0  0
    2.3590   -5.2556    0.1196 C   0  0  0  0  0  0  0  0  0  0  0  0
    1.1254   -5.4137   -0.4701 C   0  0  0  0  0  0  0  0  0  0  0  0
    0.3366   -4.3302   -0.7976 C   0  0  0  0  0  0  0  0  0  0  0  0
    0.7859   -3.0565   -0.5319 C   0  0  0  0  0  0  0  0  0  0  0  0
    0.2122   -1.8809   -0.7540 N   0  0  0  0  0  0  0  0  0  0  0  0
    1.0191   -0.9037   -0.3340 C   0  0  0  0  0  0  0  0  0  0  0  0
    0.8456    0.4572   -0.3479 C   0  0  0  0  0  0  0  0  0  0  0  0
    4.4458   -0.9848    1.3058 C   0  0  0  0  0  0  0  0  0  0  0  0
    5.0280   -2.0545    1.5281 O   0  0  0  0  0  0  0  0  0  0  0  0
    5.0438    0.2719    1.6587 N   0  0  0  0  0  0  0  0  0  0  0  0
    4.1712    1.3173    1.2982 C   0  0  0  0  0  0  0  0  0  0  0  0
   -3.2516   -1.4436    2.8948 H   0  0  0  0  0  0  0  0  0  0  0  0
   -3.5419    0.2858    2.7307 H   0  0  0  0  0  0  0  0  0  0  0  0
   -2.0484   -0.3994    2.0704 H   0  0  0  0  0  0  0  0  0  0  0  0
   -4.4929   -1.5766    1.0426 H   0  0  0  0  0  0  0  0  0  0  0  0
   -3.8705   -1.0448   -1.0484 H   0  0  0  0  0  0  0  0  0  0  0  0
   -1.5960   -1.8984    0.7789 H   0  0  0  0  0  0  0  0  0  0  0  0
   -2.6442   -2.7819   -0.3222 H   0  0  0  0  0  0  0  0  0  0  0  0
   -1.2377   -2.5454   -2.0436 H   0  0  0  0  0  0  0  0  0  0  0  0
   -1.9249    0.9307   -3.6194 H   0  0  0  0  0  0  0  0  0  0  0  0
   -0.8396    2.1501   -3.0077 H   0  0  0  0  0  0  0  0  0  0  0  0
   -2.6601    2.1204   -2.5848 H   0  0  0  0  0  0  0  0  0  0  0  0
   -3.4687    1.1536   -1.1333 H   0  0  0  0  0  0  0  0  0  0  0  0
   -3.2997    2.9041    1.6693 H   0  0  0  0  0  0  0  0  0  0  0  0
   -3.4643    2.9961   -0.1758 H   0  0  0  0  0  0  0  0  0  0  0  0
   -4.4297    1.8729    0.7845 H   0  0  0  0  0  0  0  0  0  0  0  0
   -1.4325    3.6242   -1.2696 H   0  0  0  0  0  0  0  0  0  0  0  0
   -0.4301    5.7783   -0.6714 H   0  0  0  0  0  0  0  0  0  0  0  0
    1.7722    5.8798    0.3975 H   0  0  0  0  0  0  0  0  0  0  0  0
    2.9415    3.7823    0.8430 H   0  0  0  0  0  0  0  0  0  0  0  0
    3.7684   -3.8772    0.8432 H   0  0  0  0  0  0  0  0  0  0  0  0
    2.9645   -6.1102    0.3700 H   0  0  0  0  0  0  0  0  0  0  0  0
    0.7928   -6.4108   -0.6691 H   0  0  0  0  0  0  0  0  0  0  0  0
   -0.6364   -4.4351   -1.2618 H   0  0  0  0  0  0  0  0  0  0  0  0
    5.9746    0.3800    2.1088 H   0  0  0  0  0  0  0  0  0  0  0  0
    4.6381    1.9641    0.5251 H   0  0  0  0  0  0  0  0  0  0  0  0
    3.8726    1.8977    2.1967 H   0  0  0  0  0  0  0  0  0  0  0  0
  1  2  1  0
  2  3  1  0
  3  4  1  0
  4  5  1  0
  5  6  1  0
  6  7  1  0
  7  8  1  6
  7  9  1  0
  9 10  1  0
 10 11  1  0
  7 12  1  0
 12 13  1  0
 13 14  2  0
 14 15  1  0
 15 16  2  0
 16 17  1  0
 17 18  2  0
 18 19  1  0
 19 20  2  0
 20 21  1  0
 21 22  2  0
 22 23  1  0
 23 24  2  0
 24 25  1  0
 25 26  2  0
 26 27  1  0
 27 28  2  0
 28 29  1  0
 29 30  1  0
 30 31  2  0
 21 32  1  0
 32 33  2  0
 32 34  1  0
 34 35  1  0
  9  3  1  0
 31 12  1  0
 29  5  1  0
 18 13  1  0
 31 19  1  0
 35 20  1  0
 30 22  1  0
 28 23  1  0
  1 36  1  0
  1 37  1  0
  1 38  1  0
  2 39  1  0
  3 40  1  6
  4 41  1  0
  4 42  1  0
  5 43  1  6
  8 44  1  0
  8 45  1  0
  8 46  1  0
  9 47  1  6
 11 48  1  0
 11 49  1  0
 11 50  1  0
 14 51  1  0
 15 52  1  0
 16 53  1  0
 17 54  1  0
 24 55  1  0
 25 56  1  0
 26 57  1  0
 27 58  1  0
 34 59  1  0
 35 60  1  0
 35 61  1  0
M  END
$$$$
