@<TRIPOS>MOLECULE
*****
 44 46 0 0 0
SMALL
GASTEIGER

@<TRIPOS>ATOM
      1 C          -3.5058    2.1846   -0.2152 C.3     1  UNL1       -0.0379
      2 C          -4.0220    0.7897   -0.4031 C.ar    1  UNL1       -0.0281
      3 C          -5.3717    0.5979   -0.6149 C.ar    1  UNL1       -0.0387
      4 C          -5.9209   -0.6626   -0.7940 C.ar    1  UNL1        0.0413
      5 CL         -7.6350   -0.9098   -1.0633 Cl      1  UNL1       -0.0835
      6 C          -5.1099   -1.7850   -0.7640 C.ar    1  UNL1       -0.0416
      7 C          -3.7625   -1.5961   -0.5528 C.ar    1  UNL1       -0.0390
      8 C          -3.2108   -0.3209   -0.3722 C.ar    1  UNL1        0.0328
      9 N          -1.8363   -0.1808   -0.1637 N.pl3   1  UNL1       -0.3267
     10 C          -0.9853    0.5478   -1.0451 C.3     1  UNL1        0.0281
     11 C           0.4801    0.0548   -0.9105 C.3     1  UNL1        0.0319
     12 N           0.8909    0.1511    0.4618 N.am    1  UNL1       -0.2825
     13 C           2.1710    0.2265    0.9351 C.2     1  UNL1        0.3050
     14 O           2.3202    0.3689    2.2350 O.2     1  UNL1       -0.2524
     15 N           3.4193    0.1819    0.2647 N.am    1  UNL1       -0.2811
     16 C           3.5545   -0.0728   -1.1310 C.3     1  UNL1        0.0396
     17 C           4.8525   -0.7487   -1.4790 C.3     1  UNL1        0.0635
     18 O           5.9361   -0.2897   -0.7959 O.3     1  UNL1       -0.3767
     19 C           5.7424   -0.4069    0.5924 C.3     1  UNL1        0.0635
     20 C           4.6331    0.4809    1.0428 C.3     1  UNL1        0.0396
     21 C          -0.1863    0.1745    1.5028 C.3     1  UNL1        0.0319
     22 C          -1.2262   -0.8102    1.0140 C.3     1  UNL1        0.0281
     23 H          -4.3403    2.8562    0.0971 H       1  UNL1        0.0278
     24 H          -3.1364    2.5600   -1.1752 H       1  UNL1        0.0278
     25 H          -2.7401    2.2557    0.5566 H       1  UNL1        0.0278
     26 H          -6.0359    1.4733   -0.6429 H       1  UNL1        0.0635
     27 H          -5.5226   -2.7798   -0.9023 H       1  UNL1        0.0633
     28 H          -3.1240   -2.4802   -0.5293 H       1  UNL1        0.0637
     29 H          -1.3019    0.3562   -2.0884 H       1  UNL1        0.0479
     30 H          -0.9462    1.6334   -0.8983 H       1  UNL1        0.0479
     31 H           1.0752    0.7516   -1.5171 H       1  UNL1        0.0480
     32 H           0.5287   -0.9534   -1.3519 H       1  UNL1        0.0480
     33 H           2.7313   -0.7603   -1.4750 H       1  UNL1        0.0488
     34 H           3.4425    0.9019   -1.6926 H       1  UNL1        0.0488
     35 H           5.0651   -0.6139   -2.5678 H       1  UNL1        0.0575
     36 H           4.6824   -1.8447   -1.3555 H       1  UNL1        0.0575
     37 H           6.6924   -0.0411    1.0514 H       1  UNL1        0.0575
     38 H           5.5517   -1.4297    0.9129 H       1  UNL1        0.0575
     39 H           4.8306    1.5594    0.8475 H       1  UNL1        0.0488
     40 H           4.4074    0.3083    2.0947 H       1  UNL1        0.0488
     41 H          -0.6616    1.1746    1.5251 H       1  UNL1        0.0480
     42 H           0.2333   -0.1425    2.4665 H       1  UNL1        0.0480
     43 H          -1.9806   -1.0277    1.7845 H       1  UNL1        0.0479
     44 H          -0.6788   -1.7325    0.7309 H       1  UNL1        0.0479
@<TRIPOS>BOND
     1     1     2    1
     2     2     3   ar
     3     3     4   ar
     4     4     5    1
     5     4     6   ar
     6     6     7   ar
     7     7     8   ar
     8     8     9    1
     9     9    10    1
    10    10    11    1
    11    11    12    1
    12    12    13   am
    13    13    14    2
    14    13    15   am
    15    15    16    1
    16    16    17    1
    17    17    18    1
    18    18    19    1
    19    19    20    1
    20    12    21    1
    21    21    22    1
    22     8     2   ar
    23    22     9    1
    24    20    15    1
    25     1    23    1
    26     1    24    1
    27     1    25    1
    28     3    26    1
    29     6    27    1
    30     7    28    1
    31    10    29    1
    32    10    30    1
    33    11    31    1
    34    11    32    1
    35    16    33    1
    36    16    34    1
    37    17    35    1
    38    17    36    1
    39    19    37    1
    40    19    38    1
    41    20    39    1
    42    20    40    1
    43    21    41    1
    44    21    42    1
    45    22    43    1
    46    22    44    1
