
     RDKit          3D

 44 46  0  0  0  0  0  0  0  0999 V2000
   -3.5058    2.1846   -0.2152 C   0  0  0  0  0  0  0  0  0  0  0  0
   -4.0220    0.7897   -0.4031 C   0  0  0  0  0  0  0  0  0  0  0  0
   -5.3717    0.5979   -0.6149 C   0  0  0  0  0  0  0  0  0  0  0  0
   -5.9209   -0.6626   -0.7940 C   0  0  0  0  0  0  0  0  0  0  0  0
   -7.6350   -0.9098   -1.0633 Cl  0  0  0  0  0  0  0  0  0  0  0  0
   -5.1099   -1.7850   -0.7640 C   0  0  0  0  0  0  0  0  0  0  0  0
   -3.7625   -1.5961   -0.5528 C   0  0  0  0  0  0  0  0  0  0  0  0
   -3.2108   -0.3209   -0.3722 C   0  0  0  0  0  0  0  0  0  0  0  0
   -1.8363   -0.1808   -0.1637 N   0  0  0  0  0  0  0  0  0  0  0  0
   -0.9853    0.5478   -1.0451 C   0  0  0  0  0  0  0  0  0  0  0  0
    0.4801    0.0548   -0.9105 C   0  0  0  0  0  0  0  0  0  0  0  0
    0.8909    0.1511    0.4618 N   0  0  0  0  0  0  0  0  0  0  0  0
    2.1710    0.2265    0.9351 C   0  0  0  0  0  0  0  0  0  0  0  0
    2.3202    0.3689    2.2350 O   0  0  0  0  0  0  0  0  0  0  0  0
    3.4193    0.1819    0.2647 N   0  0  0  0  0  0  0  0  0  0  0  0
    3.5545   -0.0728   -1.1310 C   0  0  0  0  0  0  0  0  0  0  0  0
    4.8525   -0.7487   -1.4790 C   0  0  0  0  0  0  0  0  0  0  0  0
    5.9361   -0.2897   -0.7959 O   0  0  0  0  0  0  0  0  0  0  0  0
    5.7424   -0.4069    0.5924 C   0  0  0  0  0  0  0  0  0  0  0  0
    4.6331    0.4809    1.0428 C   0  0  0  0  0  0  0  0  0  0  0  0
   -0.1863    0.1745    1.5028 C   0  0  0  0  0  0  0  0  0  0  0  0
   -1.2262   -0.8102    1.0140 C   0  0  0  0  0  0  0  0  0  0  0  0
   -4.3403    2.8562    0.0971 H   0  0  0  0  0  0  0  0  0  0  0  0
   -3.1364    2.5600   -1.1752 H   0  0  0  0  0  0  0  0  0  0  0  0
   -2.7401    2.2557    0.5566 H   0  0  0  0  0  0  0  0  0  0  0  0
   -6.0359    1.4733   -0.6429 H   0  0  0  0  0  0  0  0  0  0  0  0
   -5.5226   -2.7798   -0.9023 H   0  0  0  0  0  0  0  0  0  0  0  0
   -3.1240   -2.4802   -0.5293 H   0  0  0  0  0  0  0  0  0  0  0  0
   -1.3019    0.3562   -2.0884 H   0  0  0  0  0  0  0  0  0  0  0  0
   -0.9462    1.6334   -0.8983 H   0  0  0  0  0  0  0  0  0  0  0  0
    1.0752    0.7516   -1.5171 H   0  0  0  0  0  0  0  0  0  0  0  0
    0.5287   -0.9534   -1.3519 H   0  0  0  0  0  0  0  0  0  0  0  0
    2.7313   -0.7603   -1.4750 H   0  0  0  0  0  0  0  0  0  0  0  0
    3.4425    0.9019   -1.6926 H   0  0  0  0  0  0  0  0  0  0  0  0
    5.0651   -0.6139   -2.5678 H   0  0  0  0  0  0  0  0  0  0  0  0
    4.6824   -1.8447   -1.3555 H   0  0  0  0  0  0  0  0  0  0  0  0
    6.6924   -0.0411    1.0514 H   0  0  0  0  0  0  0  0  0  0  0  0
    5.5517   -1.4297    0.9129 H   0  0  0  0  0  0  0  0  0  0  0  0
    4.8306    1.5594    0.8475 H   0  0  0  0  0  0  0  0  0  0  0  0
    4.4074    0.3083    2.0947 H   0  0  0  0  0  0  0  0  0  0  0  0
   -0.6616    1.1746    1.5251 H   0  0  0  0  0  0  0  0  0  0  0  0
    0.2333   -0.1425    2.4665 H   0  0  0  0  0  0  0  0  0  0  0  0
   -1.9806   -1.0277    1.7845 H   0  0  0  0  0  0  0  0  0  0  0  0
   -0.6788   -1.7325    0.7309 H   0  0  0  0  0  0  0  0  0  0  0  0
  1  2  1  0
  2  3  2  0
  3  4  1  0
  4  5  1  0
  4  6  2  0
  6  7  1  0
  7  8  2  0
  8  9  1  0
  9 10  1  0
 10 11  1  0
 11 12  1  0
 12 13  1  0
 13 14  2  0
 13 15  1  0
 15 16  1  0
 16 17  1  0
 17 18  1  0
 18 19  1  0
 19 20  1  0
 12 21  1  0
 21 22  1  0
  8  2  1  0
 22  9  1  0
 20 15  1  0
  1 23  1  0
  1 24  1  0
  1 25  1  0
  3 26  1  0
  6 27  1  0
  7 28  1  0
 10 29  1  0
 10 30  1  0
 11 31  1  0
 11 32  1  0
 16 33  1  0
 16 34  1  0
 17 35  1  0
 17 36  1  0
 19 37  1  0
 19 38  1  0
 20 39  1  0
 20 40  1  0
 21 41  1  0
 21 42  1  0
 22 43  1  0
 22 44  1  0
M  END
$$$$
