
     RDKit          3D

 48 51  0  0  0  0  0  0  0  0999 V2000
    1.0967   -4.1696    0.4346 C   0  0  0  0  0  0  0  0  0  0  0  0
    2.0193   -3.0017    0.2810 C   0  0  0  0  0  0  0  0  0  0  0  0
    3.3702   -3.1559    0.2440 C   0  0  0  0  0  0  0  0  0  0  0  0
    4.2457   -2.1044    0.1039 C   0  0  0  0  0  0  0  0  0  0  0  0
    3.6945   -0.8544   -0.0008 C   0  0  0  0  0  0  0  0  0  0  0  0
    4.5282    0.3386   -0.1535 C   0  0  0  0  0  0  0  0  0  0  0  0
    3.9832    1.4804   -0.2474 O   0  0  0  0  0  0  0  0  0  0  0  0
    5.9439    0.2921   -0.2039 N   0  0  0  0  0  0  0  0  0  0  0  0
    6.7099    1.5117   -0.3567 C   0  0  0  0  0  0  0  0  0  0  0  0
    7.1125    2.1106   -1.5303 C   0  0  0  0  0  0  0  0  0  0  0  0
    7.8153    3.2489   -1.1680 C   0  0  0  0  0  0  0  0  0  0  0  0
    7.8247    3.3143    0.1390 O   0  0  0  0  0  0  0  0  0  0  0  0
    7.1810    2.3036    0.6345 N   0  0  0  0  0  0  0  0  0  0  0  0
    2.3166   -0.6654    0.0338 C   0  0  0  0  0  0  0  0  0  0  0  0
    1.4563   -1.7223    0.1738 C   0  0  0  0  0  0  0  0  0  0  0  0
    0.0485   -1.6287    0.2191 N   0  0  0  0  0  0  0  0  0  0  0  0
   -0.7549   -0.4825    0.1348 C   0  0  0  0  0  0  0  0  0  0  0  0
   -0.2027    0.6332    0.0008 O   0  0  0  0  0  0  0  0  0  0  0  0
   -2.2114   -0.5132    0.1945 C   0  0  0  0  0  0  0  0  0  0  0  0
   -2.9658   -1.6500    0.3385 C   0  0  0  0  0  0  0  0  0  0  0  0
   -4.2904   -1.3091    0.3556 N   0  0  0  0  0  0  0  0  0  0  0  0
   -4.3769    0.0184    0.2251 N   0  0  0  0  0  0  0  0  0  0  0  0
   -5.5598    0.8073    0.1916 C   0  0  0  0  0  0  0  0  0  0  0  0
   -6.5539    0.5787   -0.7337 C   0  0  0  0  0  0  0  0  0  0  0  0
   -7.6889    1.3830   -0.7181 C   0  0  0  0  0  0  0  0  0  0  0  0
   -7.8515    2.4039    0.1952 C   0  0  0  0  0  0  0  0  0  0  0  0
   -6.8494    2.6295    1.1231 C   0  0  0  0  0  0  0  0  0  0  0  0
   -5.7199    1.8268    1.1054 C   0  0  0  0  0  0  0  0  0  0  0  0
   -4.7596    2.0671    2.0188 F   0  0  0  0  0  0  0  0  0  0  0  0
   -3.1073    0.5209    0.1251 C   0  0  0  0  0  0  0  0  0  0  0  0
   -2.7239    1.8831   -0.0272 N   0  0  0  0  0  0  0  0  0  0  0  0
    0.4352   -4.1683   -0.4577 H   0  0  0  0  0  0  0  0  0  0  0  0
    0.4464   -4.0489    1.3207 H   0  0  0  0  0  0  0  0  0  0  0  0
    1.7137   -5.0909    0.4890 H   0  0  0  0  0  0  0  0  0  0  0  0
    3.7514   -4.1811    0.3326 H   0  0  0  0  0  0  0  0  0  0  0  0
    5.3242   -2.2713    0.0788 H   0  0  0  0  0  0  0  0  0  0  0  0
    6.4172   -0.6249   -0.1299 H   0  0  0  0  0  0  0  0  0  0  0  0
    6.8918    1.7196   -2.5137 H   0  0  0  0  0  0  0  0  0  0  0  0
    8.2657    3.9417   -1.8895 H   0  0  0  0  0  0  0  0  0  0  0  0
    1.9342    0.3321   -0.0520 H   0  0  0  0  0  0  0  0  0  0  0  0
   -0.4981   -2.5355    0.3318 H   0  0  0  0  0  0  0  0  0  0  0  0
   -2.6706   -2.6887    0.4317 H   0  0  0  0  0  0  0  0  0  0  0  0
   -6.4177   -0.2255   -1.4475 H   0  0  0  0  0  0  0  0  0  0  0  0
   -8.4766    1.2081   -1.4450 H   0  0  0  0  0  0  0  0  0  0  0  0
   -8.7287    3.0241    0.2058 H   0  0  0  0  0  0  0  0  0  0  0  0
   -6.9449    3.4273    1.8590 H   0  0  0  0  0  0  0  0  0  0  0  0
   -2.7591    2.3022   -0.9950 H   0  0  0  0  0  0  0  0  0  0  0  0
   -2.4141    2.4861    0.7484 H   0  0  0  0  0  0  0  0  0  0  0  0
  1  2  1  0
  2  3  2  0
  3  4  1  0
  4  5  2  0
  5  6  1  0
  6  7  2  0
  6  8  1  0
  8  9  1  0
  9 10  1  0
 10 11  2  0
 11 12  1  0
 12 13  1  0
  5 14  1  0
 14 15  2  0
 15 16  1  0
 16 17  1  0
 17 18  2  0
 17 19  1  0
 19 20  1  0
 20 21  2  0
 21 22  1  0
 22 23  1  0
 23 24  2  0
 24 25  1  0
 25 26  2  0
 26 27  1  0
 27 28  2  0
 28 29  1  0
 22 30  1  0
 30 31  1  0
 15  2  1  0
 30 19  2  0
 13  9  2  0
 28 23  1  0
  1 32  1  0
  1 33  1  0
  1 34  1  0
  3 35  1  0
  4 36  1  0
  8 37  1  0
 10 38  1  0
 11 39  1  0
 14 40  1  0
 16 41  1  0
 20 42  1  0
 24 43  1  0
 25 44  1  0
 26 45  1  0
 27 46  1  0
 31 47  1  0
 31 48  1  0
M  END
$$$$
