@<TRIPOS>MOLECULE
*****
 48 51 0 0 0
SMALL
GASTEIGER

@<TRIPOS>ATOM
      1 C           1.0967   -4.1696    0.4346 C.3     1  UNL1       -0.0380
      2 C           2.0193   -3.0017    0.2810 C.ar    1  UNL1       -0.0292
      3 C           3.3702   -3.1559    0.2440 C.ar    1  UNL1       -0.0564
      4 C           4.2457   -2.1044    0.1039 C.ar    1  UNL1       -0.0493
      5 C           3.6945   -0.8544   -0.0008 C.ar    1  UNL1        0.0388
      6 C           4.5282    0.3386   -0.1535 C.2     1  UNL1        0.2494
      7 O           3.9832    1.4804   -0.2474 O.2     1  UNL1       -0.2698
      8 N           5.9439    0.2921   -0.2039 N.am    1  UNL1       -0.2637
      9 C           6.7099    1.5117   -0.3567 C.ar    1  UNL1        0.1679
     10 C           7.1125    2.1106   -1.5303 C.ar    1  UNL1        0.0192
     11 C           7.8153    3.2489   -1.1680 C.ar    1  UNL1        0.1261
     12 O           7.8247    3.3143    0.1390 O.2     1  UNL1       -0.3611
     13 N           7.1810    2.3036    0.6345 N.ar    1  UNL1       -0.0631
     14 C           2.3166   -0.6654    0.0338 C.ar    1  UNL1       -0.0281
     15 C           1.4563   -1.7223    0.1738 C.ar    1  UNL1        0.0373
     16 N           0.0485   -1.6287    0.2191 N.am    1  UNL1       -0.2811
     17 C          -0.7549   -0.4825    0.1348 C.2     1  UNL1        0.2531
     18 O          -0.2027    0.6332    0.0008 O.2     1  UNL1       -0.2697
     19 C          -2.2114   -0.5132    0.1945 C.ar    1  UNL1        0.0961
     20 C          -2.9658   -1.6500    0.3385 C.ar    1  UNL1        0.0638
     21 N          -4.2904   -1.3091    0.3556 N.ar    1  UNL1       -0.1722
     22 N          -4.3769    0.0184    0.2251 N.ar    1  UNL1       -0.2154
     23 C          -5.5598    0.8073    0.1916 C.ar    1  UNL1        0.1025
     24 C          -6.5539    0.5787   -0.7337 C.ar    1  UNL1       -0.0334
     25 C          -7.6889    1.3830   -0.7181 C.ar    1  UNL1       -0.0596
     26 C          -7.8515    2.4039    0.1952 C.ar    1  UNL1       -0.0589
     27 C          -6.8494    2.6295    1.1231 C.ar    1  UNL1       -0.0243
     28 C          -5.7199    1.8268    1.1054 C.ar    1  UNL1        0.1487
     29 F          -4.7596    2.0671    2.0188 F       1  UNL1       -0.2033
     30 C          -3.1073    0.5209    0.1251 C.ar    1  UNL1        0.1321
     31 N          -2.7239    1.8831   -0.0272 N.pl3   1  UNL1       -0.3424
     32 H           0.4352   -4.1683   -0.4577 H       1  UNL1        0.0278
     33 H           0.4464   -4.0489    1.3207 H       1  UNL1        0.0278
     34 H           1.7137   -5.0909    0.4890 H       1  UNL1        0.0278
     35 H           3.7514   -4.1811    0.3326 H       1  UNL1        0.0621
     36 H           5.3242   -2.2713    0.0788 H       1  UNL1        0.0625
     37 H           6.4172   -0.6249   -0.1299 H       1  UNL1        0.1566
     38 H           6.8918    1.7196   -2.5137 H       1  UNL1        0.0684
     39 H           8.2657    3.9417   -1.8895 H       1  UNL1        0.1058
     40 H           1.9342    0.3321   -0.0520 H       1  UNL1        0.0644
     41 H          -0.4981   -2.5355    0.3318 H       1  UNL1        0.1551
     42 H          -2.6706   -2.6887    0.4317 H       1  UNL1        0.0856
     43 H          -6.4177   -0.2255   -1.4475 H       1  UNL1        0.0640
     44 H          -8.4766    1.2081   -1.4450 H       1  UNL1        0.0618
     45 H          -8.7287    3.0241    0.2058 H       1  UNL1        0.0618
     46 H          -6.9449    3.4273    1.8590 H       1  UNL1        0.0647
     47 H          -2.7591    2.3022   -0.9950 H       1  UNL1        0.1437
     48 H          -2.4141    2.4861    0.7484 H       1  UNL1        0.1437
@<TRIPOS>BOND
     1     1     2    1
     2     2     3   ar
     3     3     4   ar
     4     4     5   ar
     5     5     6    1
     6     6     7    2
     7     6     8   am
     8     8     9    1
     9     9    10   ar
    10    10    11   ar
    11    11    12   ar
    12    12    13   ar
    13     5    14   ar
    14    14    15   ar
    15    15    16    1
    16    16    17   am
    17    17    18    2
    18    17    19    1
    19    19    20   ar
    20    20    21   ar
    21    21    22   ar
    22    22    23    1
    23    23    24   ar
    24    24    25   ar
    25    25    26   ar
    26    26    27   ar
    27    27    28   ar
    28    28    29    1
    29    22    30   ar
    30    30    31    1
    31    15     2   ar
    32    30    19   ar
    33    13     9   ar
    34    28    23   ar
    35     1    32    1
    36     1    33    1
    37     1    34    1
    38     3    35    1
    39     4    36    1
    40     8    37    1
    41    10    38    1
    42    11    39    1
    43    14    40    1
    44    16    41    1
    45    20    42    1
    46    24    43    1
    47    25    44    1
    48    26    45    1
    49    27    46    1
    50    31    47    1
    51    31    48    1
