@<TRIPOS>MOLECULE
*****
 50 52 0 0 0
SMALL
GASTEIGER

@<TRIPOS>ATOM
      1 C          -6.4231    1.4434    1.5106 C.3     1  UNL1       -0.0128
      2 N          -5.4633    0.7971    0.6419 N.3     1  UNL1       -0.3052
      3 C          -5.9714   -0.4955    0.1919 C.3     1  UNL1        0.0003
      4 C          -5.0326   -1.0383   -0.8593 C.3     1  UNL1       -0.0175
      5 C          -3.6947   -0.3659   -0.8576 C.3     1  UNL1        0.0845
      6 S          -2.5172   -1.4188   -1.6545 S.O2    1  UNL1        0.0047
      7 O          -2.3694   -2.6670   -0.7953 O.2     1  UNL1       -0.1689
      8 O          -3.0855   -1.7956   -3.0060 O.2     1  UNL1       -0.1689
      9 C          -0.9627   -0.6655   -1.8883 C.ar    1  UNL1        0.1497
     10 C          -0.7801    0.0664   -3.0413 C.ar    1  UNL1        0.0694
     11 CL         -2.0416    0.2593   -4.2409 Cl      1  UNL1       -0.0815
     12 C           0.4385    0.6600   -3.2438 C.ar    1  UNL1       -0.0395
     13 C           1.4464    0.5069   -2.2870 C.ar    1  UNL1       -0.0354
     14 C           1.3027   -0.2091   -1.1357 C.ar    1  UNL1        0.0785
     15 N           2.2605   -0.4130   -0.1243 N.am    1  UNL1       -0.2661
     16 C           3.5915    0.0870   -0.0864 C.2     1  UNL1        0.3082
     17 O           3.9506    0.7847   -1.0584 O.2     1  UNL1       -0.2521
     18 N           4.4683   -0.1959    1.0075 N.am    1  UNL1       -0.2678
     19 C           5.7811    0.2648    1.1018 C.ar    1  UNL1        0.0559
     20 C           6.4387    1.0448    0.1896 C.ar    1  UNL1       -0.0388
     21 C           7.7614    1.4667    0.3584 C.ar    1  UNL1       -0.0572
     22 C           8.4267    1.0767    1.4953 C.ar    1  UNL1       -0.0249
     23 C           7.7847    0.2852    2.4383 C.ar    1  UNL1        0.1434
     24 F           8.4912   -0.0625    3.5295 F       1  UNL1       -0.2039
     25 C           6.4893   -0.1153    2.2508 C.ar    1  UNL1        0.0972
     26 CL          5.7646   -1.1137    3.4985 Cl      1  UNL1       -0.0786
     27 C           0.0438   -0.8019   -0.9623 C.ar    1  UNL1        0.1644
     28 O          -0.1726   -1.5442    0.1828 O.3     1  UNL1       -0.5032
     29 C          -3.2006    0.0793    0.4562 C.3     1  UNL1       -0.0175
     30 C          -4.2834    0.4885    1.4267 C.3     1  UNL1        0.0003
     31 H          -5.9392    2.3660    1.9006 H       1  UNL1        0.0391
     32 H          -6.6450    0.7283    2.3284 H       1  UNL1        0.0391
     33 H          -7.3513    1.6869    0.9683 H       1  UNL1        0.0391
     34 H          -6.0229   -1.1382    1.0972 H       1  UNL1        0.0427
     35 H          -6.9817   -0.3719   -0.1939 H       1  UNL1        0.0427
     36 H          -4.9482   -2.1281   -0.6741 H       1  UNL1        0.0296
     37 H          -5.5424   -0.9226   -1.8367 H       1  UNL1        0.0296
     38 H          -3.7973    0.5416   -1.5251 H       1  UNL1        0.0541
     39 H           0.6029    1.2388   -4.1418 H       1  UNL1        0.0633
     40 H           2.3578    0.9920   -2.5102 H       1  UNL1        0.0638
     41 H           2.0154   -1.0032    0.7382 H       1  UNL1        0.1565
     42 H           4.0737   -0.7991    1.7905 H       1  UNL1        0.1564
     43 H           5.9695    1.3779   -0.7137 H       1  UNL1        0.0637
     44 H           8.2286    2.0741   -0.3826 H       1  UNL1        0.0619
     45 H           9.4497    1.4077    1.6177 H       1  UNL1        0.0647
     46 H          -0.2244   -1.0091    1.0594 H       1  UNL1        0.2923
     47 H          -2.4937    0.9297    0.3856 H       1  UNL1        0.0296
     48 H          -2.6422   -0.7396    0.9778 H       1  UNL1        0.0296
     49 H          -4.5700   -0.3782    2.0715 H       1  UNL1        0.0427
     50 H          -3.9810    1.3594    2.0041 H       1  UNL1        0.0427
@<TRIPOS>BOND
     1     1     2    1
     2     2     3    1
     3     3     4    1
     4     4     5    1
     5     5     6    1
     6     6     7    2
     7     6     8    2
     8     6     9    1
     9     9    10   ar
    10    10    11    1
    11    10    12   ar
    12    12    13   ar
    13    13    14   ar
    14    14    15    1
    15    15    16   am
    16    16    17    2
    17    16    18   am
    18    18    19    1
    19    19    20   ar
    20    20    21   ar
    21    21    22   ar
    22    22    23   ar
    23    23    24    1
    24    23    25   ar
    25    25    26    1
    26    14    27   ar
    27    27    28    1
    28     5    29    1
    29    29    30    1
    30    30     2    1
    31    27     9   ar
    32    25    19   ar
    33     1    31    1
    34     1    32    1
    35     1    33    1
    36     3    34    1
    37     3    35    1
    38     4    36    1
    39     4    37    1
    40     5    38    1
    41    12    39    1
    42    13    40    1
    43    15    41    1
    44    18    42    1
    45    20    43    1
    46    21    44    1
    47    22    45    1
    48    28    46    1
    49    29    47    1
    50    29    48    1
    51    30    49    1
    52    30    50    1
