
     RDKit          3D

 50 52  0  0  0  0  0  0  0  0999 V2000
   -6.4231    1.4434    1.5106 C   0  0  0  0  0  0  0  0  0  0  0  0
   -5.4633    0.7971    0.6419 N   0  0  0  0  0  0  0  0  0  0  0  0
   -5.9714   -0.4955    0.1919 C   0  0  0  0  0  0  0  0  0  0  0  0
   -5.0326   -1.0383   -0.8593 C   0  0  0  0  0  0  0  0  0  0  0  0
   -3.6947   -0.3659   -0.8576 C   0  0  0  0  0  0  0  0  0  0  0  0
   -2.5172   -1.4188   -1.6545 S   0  0  0  0  0  6  0  0  0  0  0  0
   -2.3694   -2.6670   -0.7953 O   0  0  0  0  0  0  0  0  0  0  0  0
   -3.0855   -1.7956   -3.0060 O   0  0  0  0  0  0  0  0  0  0  0  0
   -0.9627   -0.6655   -1.8883 C   0  0  0  0  0  0  0  0  0  0  0  0
   -0.7801    0.0664   -3.0413 C   0  0  0  0  0  0  0  0  0  0  0  0
   -2.0416    0.2593   -4.2409 Cl  0  0  0  0  0  0  0  0  0  0  0  0
    0.4385    0.6600   -3.2438 C   0  0  0  0  0  0  0  0  0  0  0  0
    1.4464    0.5069   -2.2870 C   0  0  0  0  0  0  0  0  0  0  0  0
    1.3027   -0.2091   -1.1357 C   0  0  0  0  0  0  0  0  0  0  0  0
    2.2605   -0.4130   -0.1243 N   0  0  0  0  0  0  0  0  0  0  0  0
    3.5915    0.0870   -0.0864 C   0  0  0  0  0  0  0  0  0  0  0  0
    3.9506    0.7847   -1.0584 O   0  0  0  0  0  0  0  0  0  0  0  0
    4.4683   -0.1959    1.0075 N   0  0  0  0  0  0  0  0  0  0  0  0
    5.7811    0.2648    1.1018 C   0  0  0  0  0  0  0  0  0  0  0  0
    6.4387    1.0448    0.1896 C   0  0  0  0  0  0  0  0  0  0  0  0
    7.7614    1.4667    0.3584 C   0  0  0  0  0  0  0  0  0  0  0  0
    8.4267    1.0767    1.4953 C   0  0  0  0  0  0  0  0  0  0  0  0
    7.7847    0.2852    2.4383 C   0  0  0  0  0  0  0  0  0  0  0  0
    8.4912   -0.0625    3.5295 F   0  0  0  0  0  0  0  0  0  0  0  0
    6.4893   -0.1153    2.2508 C   0  0  0  0  0  0  0  0  0  0  0  0
    5.7646   -1.1137    3.4985 Cl  0  0  0  0  0  0  0  0  0  0  0  0
    0.0438   -0.8019   -0.9623 C   0  0  0  0  0  0  0  0  0  0  0  0
   -0.1726   -1.5442    0.1828 O   0  0  0  0  0  0  0  0  0  0  0  0
   -3.2006    0.0793    0.4562 C   0  0  0  0  0  0  0  0  0  0  0  0
   -4.2834    0.4885    1.4267 C   0  0  0  0  0  0  0  0  0  0  0  0
   -5.9392    2.3660    1.9006 H   0  0  0  0  0  0  0  0  0  0  0  0
   -6.6450    0.7283    2.3284 H   0  0  0  0  0  0  0  0  0  0  0  0
   -7.3513    1.6869    0.9683 H   0  0  0  0  0  0  0  0  0  0  0  0
   -6.0229   -1.1382    1.0972 H   0  0  0  0  0  0  0  0  0  0  0  0
   -6.9817   -0.3719   -0.1939 H   0  0  0  0  0  0  0  0  0  0  0  0
   -4.9482   -2.1281   -0.6741 H   0  0  0  0  0  0  0  0  0  0  0  0
   -5.5424   -0.9226   -1.8367 H   0  0  0  0  0  0  0  0  0  0  0  0
   -3.7973    0.5416   -1.5251 H   0  0  0  0  0  0  0  0  0  0  0  0
    0.6029    1.2388   -4.1418 H   0  0  0  0  0  0  0  0  0  0  0  0
    2.3578    0.9920   -2.5102 H   0  0  0  0  0  0  0  0  0  0  0  0
    2.0154   -1.0032    0.7382 H   0  0  0  0  0  0  0  0  0  0  0  0
    4.0737   -0.7991    1.7905 H   0  0  0  0  0  0  0  0  0  0  0  0
    5.9695    1.3779   -0.7137 H   0  0  0  0  0  0  0  0  0  0  0  0
    8.2286    2.0741   -0.3826 H   0  0  0  0  0  0  0  0  0  0  0  0
    9.4497    1.4077    1.6177 H   0  0  0  0  0  0  0  0  0  0  0  0
   -0.2244   -1.0091    1.0594 H   0  0  0  0  0  0  0  0  0  0  0  0
   -2.4937    0.9297    0.3856 H   0  0  0  0  0  0  0  0  0  0  0  0
   -2.6422   -0.7396    0.9778 H   0  0  0  0  0  0  0  0  0  0  0  0
   -4.5700   -0.3782    2.0715 H   0  0  0  0  0  0  0  0  0  0  0  0
   -3.9810    1.3594    2.0041 H   0  0  0  0  0  0  0  0  0  0  0  0
  1  2  1  0
  2  3  1  0
  3  4  1  0
  4  5  1  0
  5  6  1  0
  6  7  2  0
  6  8  2  0
  6  9  1  0
  9 10  2  0
 10 11  1  0
 10 12  1  0
 12 13  2  0
 13 14  1  0
 14 15  1  0
 15 16  1  0
 16 17  2  0
 16 18  1  0
 18 19  1  0
 19 20  2  0
 20 21  1  0
 21 22  2  0
 22 23  1  0
 23 24  1  0
 23 25  2  0
 25 26  1  0
 14 27  2  0
 27 28  1  0
  5 29  1  0
 29 30  1  0
 30  2  1  0
 27  9  1  0
 25 19  1  0
  1 31  1  0
  1 32  1  0
  1 33  1  0
  3 34  1  0
  3 35  1  0
  4 36  1  0
  4 37  1  0
  5 38  1  0
 12 39  1  0
 13 40  1  0
 15 41  1  0
 18 42  1  0
 20 43  1  0
 21 44  1  0
 22 45  1  0
 28 46  1  0
 29 47  1  0
 29 48  1  0
 30 49  1  0
 30 50  1  0
M  END
$$$$
