@<TRIPOS>MOLECULE
*****
 37 40 0 0 0
SMALL
GASTEIGER

@<TRIPOS>ATOM
      1 C           3.0405   -1.4025    1.4095 C.3     1  UNL1       -0.0390
      2 C           3.5265   -0.4948    0.3481 C.ar    1  UNL1       -0.0399
      3 C           4.8802   -0.2993    0.1038 C.ar    1  UNL1       -0.0401
      4 C           5.3269    0.5492   -0.8784 C.ar    1  UNL1        0.0278
      5 N           4.4165    1.2049   -1.6192 N.ar    1  UNL1       -0.2626
      6 C           3.0982    1.0413   -1.4124 C.ar    1  UNL1        0.0355
      7 C           2.6339    0.1790   -0.4142 C.ar    1  UNL1        0.0032
      8 C           1.1915    0.0763   -0.2867 C.ar    1  UNL1       -0.0131
      9 C           0.5547   -1.1202   -0.2006 C.ar    1  UNL1       -0.0166
     10 C          -0.8322   -1.2285   -0.0728 C.ar    1  UNL1        0.1480
     11 F          -1.2870   -2.4555    0.0012 F       1  UNL1       -0.2033
     12 C          -1.5631   -0.0801   -0.0347 C.ar    1  UNL1        0.0877
     13 C          -0.9593    1.1659   -0.1192 C.ar    1  UNL1       -0.0197
     14 C           0.4301    1.2123   -0.2455 C.ar    1  UNL1       -0.0486
     15 C          -1.6461    2.4719   -0.0901 C.3     1  UNL1       -0.0187
     16 C          -3.0921    2.4127    0.0552 C.3     1  UNL1        0.0118
     17 C          -3.6785    1.0494    0.1347 C.ar    1  UNL1        0.1383
     18 N          -4.9981    0.7110    0.2597 N.ar    1  UNL1       -0.1340
     19 N          -5.0788   -0.5741    0.2937 N.ar    1  UNL1       -0.1343
     20 C          -3.8203   -1.1530    0.1932 C.ar    1  UNL1        0.1349
     21 C          -3.6501   -2.6232    0.2061 C.3     1  UNL1       -0.0041
     22 N          -2.9917   -0.1057    0.0974 N.ar    1  UNL1       -0.2801
     23 H           3.0986   -2.4445    1.0354 H       1  UNL1        0.0278
     24 H           3.8194   -1.3452    2.2227 H       1  UNL1        0.0278
     25 H           2.0483   -1.1220    1.7727 H       1  UNL1        0.0278
     26 H           5.5780   -0.8403    0.7159 H       1  UNL1        0.0635
     27 H           6.3860    0.6892   -1.0545 H       1  UNL1        0.0829
     28 H           2.3809    1.5868   -2.0293 H       1  UNL1        0.0836
     29 H           1.1217   -2.0218   -0.2341 H       1  UNL1        0.0653
     30 H           0.9535    2.1658   -0.3157 H       1  UNL1        0.0627
     31 H          -1.1970    3.0583    0.7512 H       1  UNL1        0.0318
     32 H          -1.3425    2.9834   -1.0555 H       1  UNL1        0.0318
     33 H          -3.5785    2.9121   -0.8149 H       1  UNL1        0.0347
     34 H          -3.4190    2.9847    0.9712 H       1  UNL1        0.0347
     35 H          -4.7381   -3.0300    0.2888 H       1  UNL1        0.0308
     36 H          -3.3816   -3.0737   -0.7664 H       1  UNL1        0.0308
     37 H          -3.2313   -3.0399    1.1206 H       1  UNL1        0.0308
@<TRIPOS>BOND
     1     1     2    1
     2     2     3   ar
     3     3     4   ar
     4     4     5   ar
     5     5     6   ar
     6     6     7   ar
     7     7     8    1
     8     8     9   ar
     9     9    10   ar
    10    10    11    1
    11    10    12   ar
    12    12    13   ar
    13    13    14   ar
    14    13    15    1
    15    15    16    1
    16    16    17    1
    17    17    18   ar
    18    18    19   ar
    19    19    20   ar
    20    20    21    1
    21    20    22   ar
    22     7     2   ar
    23    14     8   ar
    24    22    17   ar
    25    22    12    1
    26     1    23    1
    27     1    24    1
    28     1    25    1
    29     3    26    1
    30     4    27    1
    31     6    28    1
    32     9    29    1
    33    14    30    1
    34    15    31    1
    35    15    32    1
    36    16    33    1
    37    16    34    1
    38    21    35    1
    39    21    36    1
    40    21    37    1
