
     RDKit          3D

 37 40  0  0  0  0  0  0  0  0999 V2000
    3.0405   -1.4025    1.4095 C   0  0  0  0  0  0  0  0  0  0  0  0
    3.5265   -0.4948    0.3481 C   0  0  0  0  0  0  0  0  0  0  0  0
    4.8802   -0.2993    0.1038 C   0  0  0  0  0  0  0  0  0  0  0  0
    5.3269    0.5492   -0.8784 C   0  0  0  0  0  0  0  0  0  0  0  0
    4.4165    1.2049   -1.6192 N   0  0  0  0  0  0  0  0  0  0  0  0
    3.0982    1.0413   -1.4124 C   0  0  0  0  0  0  0  0  0  0  0  0
    2.6339    0.1790   -0.4142 C   0  0  0  0  0  0  0  0  0  0  0  0
    1.1915    0.0763   -0.2867 C   0  0  0  0  0  0  0  0  0  0  0  0
    0.5547   -1.1202   -0.2006 C   0  0  0  0  0  0  0  0  0  0  0  0
   -0.8322   -1.2285   -0.0728 C   0  0  0  0  0  0  0  0  0  0  0  0
   -1.2870   -2.4555    0.0012 F   0  0  0  0  0  0  0  0  0  0  0  0
   -1.5631   -0.0801   -0.0347 C   0  0  0  0  0  0  0  0  0  0  0  0
   -0.9593    1.1659   -0.1192 C   0  0  0  0  0  0  0  0  0  0  0  0
    0.4301    1.2123   -0.2455 C   0  0  0  0  0  0  0  0  0  0  0  0
   -1.6461    2.4719   -0.0901 C   0  0  0  0  0  0  0  0  0  0  0  0
   -3.0921    2.4127    0.0552 C   0  0  0  0  0  0  0  0  0  0  0  0
   -3.6785    1.0494    0.1347 C   0  0  0  0  0  0  0  0  0  0  0  0
   -4.9981    0.7110    0.2597 N   0  0  0  0  0  0  0  0  0  0  0  0
   -5.0788   -0.5741    0.2937 N   0  0  0  0  0  0  0  0  0  0  0  0
   -3.8203   -1.1530    0.1932 C   0  0  0  0  0  0  0  0  0  0  0  0
   -3.6501   -2.6232    0.2061 C   0  0  0  0  0  0  0  0  0  0  0  0
   -2.9917   -0.1057    0.0974 N   0  0  0  0  0  0  0  0  0  0  0  0
    3.0986   -2.4445    1.0354 H   0  0  0  0  0  0  0  0  0  0  0  0
    3.8194   -1.3452    2.2227 H   0  0  0  0  0  0  0  0  0  0  0  0
    2.0483   -1.1220    1.7727 H   0  0  0  0  0  0  0  0  0  0  0  0
    5.5780   -0.8403    0.7159 H   0  0  0  0  0  0  0  0  0  0  0  0
    6.3860    0.6892   -1.0545 H   0  0  0  0  0  0  0  0  0  0  0  0
    2.3809    1.5868   -2.0293 H   0  0  0  0  0  0  0  0  0  0  0  0
    1.1217   -2.0218   -0.2341 H   0  0  0  0  0  0  0  0  0  0  0  0
    0.9535    2.1658   -0.3157 H   0  0  0  0  0  0  0  0  0  0  0  0
   -1.1970    3.0583    0.7512 H   0  0  0  0  0  0  0  0  0  0  0  0
   -1.3425    2.9834   -1.0555 H   0  0  0  0  0  0  0  0  0  0  0  0
   -3.5785    2.9121   -0.8149 H   0  0  0  0  0  0  0  0  0  0  0  0
   -3.4190    2.9847    0.9712 H   0  0  0  0  0  0  0  0  0  0  0  0
   -4.7381   -3.0300    0.2888 H   0  0  0  0  0  0  0  0  0  0  0  0
   -3.3816   -3.0737   -0.7664 H   0  0  0  0  0  0  0  0  0  0  0  0
   -3.2313   -3.0399    1.1206 H   0  0  0  0  0  0  0  0  0  0  0  0
  1  2  1  0
  2  3  2  0
  3  4  1  0
  4  5  2  0
  5  6  1  0
  6  7  2  0
  7  8  1  0
  8  9  2  0
  9 10  1  0
 10 11  1  0
 10 12  2  0
 12 13  1  0
 13 14  2  0
 13 15  1  0
 15 16  1  0
 16 17  1  0
 17 18  2  0
 18 19  1  0
 19 20  2  0
 20 21  1  0
 20 22  1  0
  7  2  1  0
 14  8  1  0
 22 17  1  0
 22 12  1  0
  1 23  1  0
  1 24  1  0
  1 25  1  0
  3 26  1  0
  4 27  1  0
  6 28  1  0
  9 29  1  0
 14 30  1  0
 15 31  1  0
 15 32  1  0
 16 33  1  0
 16 34  1  0
 21 35  1  0
 21 36  1  0
 21 37  1  0
M  END
$$$$
