@<TRIPOS>MOLECULE
*****
 24 24 0 0 0
SMALL
GASTEIGER

@<TRIPOS>ATOM
      1 O           3.0226    1.3952    0.2441 O.3     1  UNK1       -0.3934
      2 C           2.4722    0.1043    0.1349 C.3     1  UNK1        0.0620
      3 C           0.9923    0.2497    0.3891 C.3     1  UNK1        0.0596
      4 N           0.4545    1.1427   -0.6061 N.3     1  UNK1       -0.3064
      5 C          -0.9424    1.4116   -0.3624 C.3     0  UNK0        0.0249
      6 C          -1.6930    0.1080   -0.4786 C.3     1  UNK1        0.0959
      7 O          -3.0657    0.2675   -0.3852 O.3     1  UNK1       -0.3879
      8 C          -1.1824   -0.7895    0.6472 C.3     1  UNK1        0.1095
      9 O          -1.9347   -1.9258    0.7898 O.3     1  UNK1       -0.3866
     10 C           0.2736   -1.0833    0.3176 C.3     1  UNK1        0.1009
     11 O           0.3403   -1.5177   -1.0222 O.3     1  UNK1       -0.3875
     12 H           3.8218    1.4927   -0.3339 H       1  UNK1        0.2095
     13 H           2.6667   -0.2226   -0.9058 H       1  UNK1        0.0573
     14 H           2.9223   -0.5992    0.8526 H       1  UNK1        0.0573
     15 H           0.8006    0.6736    1.3915 H       1  UNK1        0.0509
     16 H           0.6179    0.7782   -1.5685 H       1  UNK1        0.1224
     17 H          -1.3322    2.0917   -1.1417 H       0  UNK0        0.0450
     18 H          -1.0424    1.8128    0.6586 H       0  UNK0        0.0450
     19 H          -1.4057   -0.3935   -1.4267 H       1  UNK1        0.0633
     20 H          -3.2845    1.0813    0.1180 H       1  UNK1        0.2099
     21 H          -1.1761   -0.1611    1.5616 H       1  UNK1        0.0646
     22 H          -2.7788   -1.6619    1.2601 H       1  UNK1        0.2100
     23 H           0.7153   -1.8420    0.9638 H       1  UNK1        0.0636
     24 H           0.7379   -2.4129   -1.0981 H       1  UNK1        0.2100
@<TRIPOS>BOND
     1     1     2    1
     2     2     3    1
     3     3     4    1
     4     4     5    1
     5     5     6    1
     6     6     7    1
     7     6     8    1
     8     8     9    1
     9     8    10    1
    10    10    11    1
    11    10     3    1
    12     1    12    1
    13     2    13    1
    14     2    14    1
    15     3    15    1
    16     4    16    1
    17     5    17    1
    18     5    18    1
    19     6    19    1
    20     7    20    1
    21     8    21    1
    22     9    22    1
    23    10    23    1
    24    11    24    1
