
     RDKit          3D

 24 24  0  0  0  0  0  0  0  0999 V2000
    3.0226    1.3952    0.2441 O   0  0  0  0  0  0  0  0  0  0  0  0
    2.4722    0.1043    0.1349 C   0  0  0  0  0  0  0  0  0  0  0  0
    0.9923    0.2497    0.3891 C   0  0  1  0  0  0  0  0  0  0  0  0
    0.4545    1.1427   -0.6061 N   0  0  0  0  0  0  0  0  0  0  0  0
   -0.9424    1.4116   -0.3624 C   0  0  0  0  0  0  0  0  0  0  0  0
   -1.6930    0.1080   -0.4786 C   0  0  2  0  0  0  0  0  0  0  0  0
   -3.0657    0.2675   -0.3852 O   0  0  0  0  0  0  0  0  0  0  0  0
   -1.1824   -0.7895    0.6472 C   0  0  1  0  0  0  0  0  0  0  0  0
   -1.9347   -1.9258    0.7898 O   0  0  0  0  0  0  0  0  0  0  0  0
    0.2736   -1.0833    0.3176 C   0  0  1  0  0  0  0  0  0  0  0  0
    0.3403   -1.5177   -1.0222 O   0  0  0  0  0  0  0  0  0  0  0  0
    3.8218    1.4927   -0.3339 H   0  0  0  0  0  0  0  0  0  0  0  0
    2.6667   -0.2226   -0.9058 H   0  0  0  0  0  0  0  0  0  0  0  0
    2.9223   -0.5992    0.8526 H   0  0  0  0  0  0  0  0  0  0  0  0
    0.8006    0.6736    1.3915 H   0  0  0  0  0  0  0  0  0  0  0  0
    0.6179    0.7782   -1.5685 H   0  0  0  0  0  0  0  0  0  0  0  0
   -1.3322    2.0917   -1.1417 H   0  0  0  0  0  0  0  0  0  0  0  0
   -1.0424    1.8128    0.6586 H   0  0  0  0  0  0  0  0  0  0  0  0
   -1.4057   -0.3935   -1.4267 H   0  0  0  0  0  0  0  0  0  0  0  0
   -3.2845    1.0813    0.1180 H   0  0  0  0  0  0  0  0  0  0  0  0
   -1.1761   -0.1611    1.5616 H   0  0  0  0  0  0  0  0  0  0  0  0
   -2.7788   -1.6619    1.2601 H   0  0  0  0  0  0  0  0  0  0  0  0
    0.7153   -1.8420    0.9638 H   0  0  0  0  0  0  0  0  0  0  0  0
    0.7379   -2.4129   -1.0981 H   0  0  0  0  0  0  0  0  0  0  0  0
  1  2  1  0
  2  3  1  0
  3  4  1  0
  4  5  1  0
  5  6  1  0
  6  7  1  0
  6  8  1  0
  8  9  1  0
  8 10  1  0
 10 11  1  0
 10  3  1  0
  1 12  1  0
  2 13  1  0
  2 14  1  0
  3 15  1  1
  4 16  1  0
  5 17  1  0
  5 18  1  0
  6 19  1  6
  7 20  1  0
  8 21  1  1
  9 22  1  0
 10 23  1  1
 11 24  1  0
M  END
$$$$
