
     RDKit          3D

 72 76  0  0  0  0  0  0  0  0999 V2000
    5.9203   -1.1741    0.7545 O   0  0  0  0  0  0  0  0  0  0  0  0
    5.3171   -0.7645   -0.2896 C   0  0  0  0  0  0  0  0  0  0  0  0
    4.7057   -1.7698   -1.0933 N   0  0  0  0  0  0  0  0  0  0  0  0
    4.7750   -3.1324   -0.7313 C   0  0  0  0  0  0  0  0  0  0  0  0
    4.1149   -3.5679    0.4725 C   0  0  0  0  0  0  0  0  0  0  0  0
    4.3208   -4.8112    0.8209 O   0  0  0  0  0  0  0  0  0  0  0  0
    3.2713   -2.7939    1.3035 N   0  0  0  0  0  0  0  0  0  0  0  0
    2.7350   -3.3082    2.5596 C   0  0  0  0  0  0  0  0  0  0  0  0
    1.6186   -2.4429    2.9488 C   0  0  0  0  0  0  0  0  0  0  0  0
    1.3327   -1.5586    1.7609 C   0  0  2  0  0  0  0  0  0  0  0  0
    0.3691   -2.2101    0.9446 N   0  0  0  0  0  0  0  0  0  0  0  0
   -0.0332   -1.5299   -0.2436 C   0  0  1  0  0  0  0  0  0  0  0  0
   -1.0508   -2.3772   -0.9636 C   0  0  0  0  0  0  0  0  0  0  0  0
   -2.4674   -1.9354   -0.6761 C   0  0  0  0  0  0  0  0  0  0  0  0
   -2.7022   -0.6118   -1.3715 C   0  0  1  0  0  0  0  0  0  0  0  0
   -2.8794   -0.9223   -2.7389 O   0  0  0  0  0  0  0  0  0  0  0  0
   -3.9229    0.0682   -0.9168 C   0  0  0  0  0  0  0  0  0  0  0  0
   -4.2233    1.2821   -1.4969 C   0  0  0  0  0  0  0  0  0  0  0  0
   -5.3513    1.9705   -1.1183 C   0  0  0  0  0  0  0  0  0  0  0  0
   -6.2223    1.4719   -0.1457 C   0  0  0  0  0  0  0  0  0  0  0  0
   -7.4112    2.2100    0.2429 C   0  0  0  0  0  0  0  0  0  0  0  0
   -8.3081    1.7854    1.1854 C   0  0  0  0  0  0  0  0  0  0  0  0
   -9.4101    2.5291    1.5062 N   0  0  0  0  0  0  0  0  0  0  0  0
   -9.6442    3.7053    0.9005 C   0  0  0  0  0  0  0  0  0  0  0  0
   -8.7389    4.1345   -0.0513 C   0  0  0  0  0  0  0  0  0  0  0  0
   -7.6567    3.3995   -0.3632 N   0  0  0  0  0  0  0  0  0  0  0  0
   -5.8806    0.2597    0.4026 C   0  0  0  0  0  0  0  0  0  0  0  0
   -4.7535   -0.4088    0.0117 N   0  0  0  0  0  0  0  0  0  0  0  0
   -1.5053    0.2476   -1.1399 C   0  0  0  0  0  0  0  0  0  0  0  0
   -0.6719   -0.1963    0.0489 C   0  0  0  0  0  0  0  0  0  0  0  0
    2.7267   -1.4783    1.1056 C   0  0  0  0  0  0  0  0  0  0  0  0
    5.2962    0.6496   -0.5763 C   0  0  0  0  0  0  0  0  0  0  0  0
    4.6703    1.1515   -1.6911 C   0  0  0  0  0  0  0  0  0  0  0  0
    4.6768    2.5247   -1.9223 C   0  0  0  0  0  0  0  0  0  0  0  0
    5.2952    3.3821   -1.0595 C   0  0  0  0  0  0  0  0  0  0  0  0
    5.9241    2.8938    0.0575 C   0  0  0  0  0  0  0  0  0  0  0  0
    6.5870    3.8485    0.9757 C   0  0  0  0  0  0  0  0  0  0  0  0
    7.7424    3.2757    1.4729 F   0  0  0  0  0  0  0  0  0  0  0  0
    6.8796    5.0388    0.3652 F   0  0  0  0  0  0  0  0  0  0  0  0
    5.7449    4.0406    2.0671 F   0  0  0  0  0  0  0  0  0  0  0  0
    5.9085    1.5413    0.2704 C   0  0  0  0  0  0  0  0  0  0  0  0
    4.2087   -1.4538   -1.9541 H   0  0  0  0  0  0  0  0  0  0  0  0
    4.3730   -3.7656   -1.5815 H   0  0  0  0  0  0  0  0  0  0  0  0
    5.8815   -3.4372   -0.7006 H   0  0  0  0  0  0  0  0  0  0  0  0
    2.4204   -4.3784    2.4189 H   0  0  0  0  0  0  0  0  0  0  0  0
    3.5491   -3.3429    3.3409 H   0  0  0  0  0  0  0  0  0  0  0  0
    0.7327   -3.1032    3.1764 H   0  0  0  0  0  0  0  0  0  0  0  0
    1.8182   -1.8204    3.8651 H   0  0  0  0  0  0  0  0  0  0  0  0
    1.0855   -0.5618    2.1047 H   0  0  0  0  0  0  0  0  0  0  0  0
    0.6596   -3.1866    0.7252 H   0  0  0  0  0  0  0  0  0  0  0  0
    0.8552   -1.4304   -0.9023 H   0  0  0  0  0  0  0  0  0  0  0  0
   -0.9500   -3.4218   -0.6094 H   0  0  0  0  0  0  0  0  0  0  0  0
   -0.8756   -2.4069   -2.0647 H   0  0  0  0  0  0  0  0  0  0  0  0
   -2.6207   -1.8309    0.4024 H   0  0  0  0  0  0  0  0  0  0  0  0
   -3.1652   -2.7113   -1.0511 H   0  0  0  0  0  0  0  0  0  0  0  0
   -3.8262   -1.2457   -2.8043 H   0  0  0  0  0  0  0  0  0  0  0  0
   -3.5637    1.7079   -2.2656 H   0  0  0  0  0  0  0  0  0  0  0  0
   -5.6057    2.9126   -1.5523 H   0  0  0  0  0  0  0  0  0  0  0  0
   -8.1425    0.8418    1.6878 H   0  0  0  0  0  0  0  0  0  0  0  0
  -10.5133    4.2990    1.1486 H   0  0  0  0  0  0  0  0  0  0  0  0
   -8.9465    5.0818   -0.5248 H   0  0  0  0  0  0  0  0  0  0  0  0
   -6.5048   -0.1903    1.1615 H   0  0  0  0  0  0  0  0  0  0  0  0
   -1.8493    1.2786   -0.9173 H   0  0  0  0  0  0  0  0  0  0  0  0
   -0.8848    0.3325   -2.0579 H   0  0  0  0  0  0  0  0  0  0  0  0
   -1.2931   -0.3113    0.9573 H   0  0  0  0  0  0  0  0  0  0  0  0
    0.0546    0.6000    0.2531 H   0  0  0  0  0  0  0  0  0  0  0  0
    2.6275   -1.1644    0.0670 H   0  0  0  0  0  0  0  0  0  0  0  0
    3.3342   -0.7576    1.6819 H   0  0  0  0  0  0  0  0  0  0  0  0
    4.1734    0.5086   -2.3927 H   0  0  0  0  0  0  0  0  0  0  0  0
    4.1873    2.9340   -2.7965 H   0  0  0  0  0  0  0  0  0  0  0  0
    5.2777    4.4431   -1.2753 H   0  0  0  0  0  0  0  0  0  0  0  0
    6.4040    1.1639    1.1497 H   0  0  0  0  0  0  0  0  0  0  0  0
  1  2  2  0
  2  3  1  0
  3  4  1  0
  4  5  1  0
  5  6  2  0
  5  7  1  0
  7  8  1  0
  8  9  1  0
  9 10  1  0
 10 11  1  0
 11 12  1  0
 12 13  1  0
 13 14  1  0
 14 15  1  0
 15 16  1  6
 15 17  1  0
 17 18  2  0
 18 19  1  0
 19 20  2  0
 20 21  1  0
 21 22  2  0
 22 23  1  0
 23 24  2  0
 24 25  1  0
 25 26  2  0
 20 27  1  0
 27 28  2  0
 15 29  1  0
 29 30  1  0
 10 31  1  0
  2 32  1  0
 32 33  2  0
 33 34  1  0
 34 35  2  0
 35 36  1  0
 36 37  1  0
 37 38  1  0
 37 39  1  0
 37 40  1  0
 36 41  2  0
 31  7  1  0
 41 32  1  0
 30 12  1  0
 28 17  1  0
 26 21  1  0
  3 42  1  0
  4 43  1  0
  4 44  1  0
  8 45  1  0
  8 46  1  0
  9 47  1  0
  9 48  1  0
 10 49  1  1
 11 50  1  0
 12 51  1  6
 13 52  1  0
 13 53  1  0
 14 54  1  0
 14 55  1  0
 16 56  1  0
 18 57  1  0
 19 58  1  0
 22 59  1  0
 24 60  1  0
 25 61  1  0
 27 62  1  0
 29 63  1  0
 29 64  1  0
 30 65  1  0
 30 66  1  0
 31 67  1  0
 31 68  1  0
 33 69  1  0
 34 70  1  0
 35 71  1  0
 41 72  1  0
M  END
$$$$
