@<TRIPOS>MOLECULE
*****
 72 76 0 0 0
SMALL
GASTEIGER

@<TRIPOS>ATOM
      1 O           5.9203   -1.1741    0.7545 O.2     1  UNL1       -0.2702
      2 C           5.3171   -0.7645   -0.2896 C.2     1  UNL1        0.2445
      3 N           4.7057   -1.7698   -1.0933 N.am    1  UNL1       -0.3027
      4 C           4.7750   -3.1324   -0.7313 C.3     1  UNL1        0.0886
      5 C           4.1149   -3.5679    0.4725 C.2     1  UNL1        0.2328
      6 O           4.3208   -4.8112    0.8209 O.2     1  UNL1       -0.2739
      7 N           3.2713   -2.7939    1.3035 N.am    1  UNL1       -0.2987
      8 C           2.7350   -3.3082    2.5596 C.3     1  UNL1        0.0162
      9 C           1.6186   -2.4429    2.9488 C.3     1  UNL1       -0.0202
     10 C           1.3327   -1.5586    1.7609 C.3     1  UNL1        0.0250
     11 N           0.3691   -2.2101    0.9446 N.3     1  UNL1       -0.3090
     12 C          -0.0332   -1.5299   -0.2436 C.3     1  UNL1        0.0081
     13 C          -1.0508   -2.3772   -0.9636 C.3     1  UNL1       -0.0346
     14 C          -2.4674   -1.9354   -0.6761 C.3     1  UNL1       -0.0170
     15 C          -2.7022   -0.6118   -1.3715 C.3     1  UNL1        0.1077
     16 O          -2.8794   -0.9223   -2.7389 O.3     1  UNL1       -0.3824
     17 C          -3.9229    0.0682   -0.9168 C.ar    1  UNL1        0.0727
     18 C          -4.2233    1.2821   -1.4969 C.ar    1  UNL1       -0.0369
     19 C          -5.3513    1.9705   -1.1183 C.ar    1  UNL1       -0.0493
     20 C          -6.2223    1.4719   -0.1457 C.ar    1  UNL1        0.0199
     21 C          -7.4112    2.2100    0.2429 C.ar    1  UNL1        0.0904
     22 C          -8.3081    1.7854    1.1854 C.ar    1  UNL1        0.0536
     23 N          -9.4101    2.5291    1.5062 N.ar    1  UNL1       -0.2596
     24 C          -9.6442    3.7053    0.9005 C.ar    1  UNL1        0.0457
     25 C          -8.7389    4.1345   -0.0513 C.ar    1  UNL1        0.0464
     26 N          -7.6567    3.3995   -0.3632 N.ar    1  UNL1       -0.2519
     27 C          -5.8806    0.2597    0.4026 C.ar    1  UNL1        0.0372
     28 N          -4.7535   -0.4088    0.0117 N.ar    1  UNL1       -0.2563
     29 C          -1.5053    0.2476   -1.1399 C.3     1  UNL1       -0.0170
     30 C          -0.6719   -0.1963    0.0489 C.3     1  UNL1       -0.0346
     31 C           2.7267   -1.4783    1.1056 C.3     1  UNL1        0.0302
     32 C           5.2962    0.6496   -0.5763 C.ar    1  UNL1        0.0372
     33 C           4.6703    1.1515   -1.6911 C.ar    1  UNL1       -0.0496
     34 C           4.6768    2.5247   -1.9223 C.ar    1  UNL1       -0.0605
     35 C           5.2952    3.3821   -1.0595 C.ar    1  UNL1       -0.0501
     36 C           5.9241    2.8938    0.0575 C.ar    1  UNL1        0.0555
     37 C           6.5870    3.8485    0.9757 C.3     1  UNL1        0.4174
     38 F           7.7424    3.2757    1.4729 F       1  UNL1       -0.1659
     39 F           6.8796    5.0388    0.3652 F       1  UNL1       -0.1659
     40 F           5.7449    4.0406    2.0671 F       1  UNL1       -0.1659
     41 C           5.9085    1.5413    0.2704 C.ar    1  UNL1       -0.0380
     42 H           4.2087   -1.4538   -1.9541 H       1  UNL1        0.1495
     43 H           4.3730   -3.7656   -1.5815 H       1  UNL1        0.0558
     44 H           5.8815   -3.4372   -0.7006 H       1  UNL1        0.0558
     45 H           2.4204   -4.3784    2.4189 H       1  UNL1        0.0465
     46 H           3.5491   -3.3429    3.3409 H       1  UNL1        0.0465
     47 H           0.7327   -3.1032    3.1764 H       1  UNL1        0.0296
     48 H           1.8182   -1.8204    3.8651 H       1  UNL1        0.0296
     49 H           1.0855   -0.5618    2.1047 H       1  UNL1        0.0476
     50 H           0.6596   -3.1866    0.7252 H       1  UNL1        0.1225
     51 H           0.8552   -1.4304   -0.9023 H       1  UNL1        0.0460
     52 H          -0.9500   -3.4218   -0.6094 H       1  UNL1        0.0281
     53 H          -0.8756   -2.4069   -2.0647 H       1  UNL1        0.0281
     54 H          -2.6207   -1.8309    0.4024 H       1  UNL1        0.0297
     55 H          -3.1652   -2.7113   -1.0511 H       1  UNL1        0.0297
     56 H          -3.8262   -1.2457   -2.8043 H       1  UNL1        0.2107
     57 H          -3.5637    1.7079   -2.2656 H       1  UNL1        0.0637
     58 H          -5.6057    2.9126   -1.5523 H       1  UNL1        0.0625
     59 H          -8.1425    0.8418    1.6878 H       1  UNL1        0.0851
     60 H         -10.5133    4.2990    1.1486 H       1  UNL1        0.0845
     61 H          -8.9465    5.0818   -0.5248 H       1  UNL1        0.0845
     62 H          -6.5048   -0.1903    1.1615 H       1  UNL1        0.0836
     63 H          -1.8493    1.2786   -0.9173 H       1  UNL1        0.0297
     64 H          -0.8848    0.3325   -2.0579 H       1  UNL1        0.0297
     65 H          -1.2931   -0.3113    0.9573 H       1  UNL1        0.0281
     66 H           0.0546    0.6000    0.2531 H       1  UNL1        0.0281
     67 H           2.6275   -1.1644    0.0670 H       1  UNL1        0.0480
     68 H           3.3342   -0.7576    1.6819 H       1  UNL1        0.0480
     69 H           4.1734    0.5086   -2.3927 H       1  UNL1        0.0625
     70 H           4.1873    2.9340   -2.7965 H       1  UNL1        0.0618
     71 H           5.2777    4.4431   -1.2753 H       1  UNL1        0.0623
     72 H           6.4040    1.1639    1.1497 H       1  UNL1        0.0631
@<TRIPOS>BOND
     1     1     2    2
     2     2     3   am
     3     3     4    1
     4     4     5    1
     5     5     6    2
     6     5     7   am
     7     7     8    1
     8     8     9    1
     9     9    10    1
    10    10    11    1
    11    11    12    1
    12    12    13    1
    13    13    14    1
    14    14    15    1
    15    15    16    1
    16    15    17    1
    17    17    18   ar
    18    18    19   ar
    19    19    20   ar
    20    20    21    1
    21    21    22   ar
    22    22    23   ar
    23    23    24   ar
    24    24    25   ar
    25    25    26   ar
    26    20    27   ar
    27    27    28   ar
    28    15    29    1
    29    29    30    1
    30    10    31    1
    31     2    32    1
    32    32    33   ar
    33    33    34   ar
    34    34    35   ar
    35    35    36   ar
    36    36    37    1
    37    37    38    1
    38    37    39    1
    39    37    40    1
    40    36    41   ar
    41    31     7    1
    42    41    32   ar
    43    30    12    1
    44    28    17   ar
    45    26    21   ar
    46     3    42    1
    47     4    43    1
    48     4    44    1
    49     8    45    1
    50     8    46    1
    51     9    47    1
    52     9    48    1
    53    10    49    1
    54    11    50    1
    55    12    51    1
    56    13    52    1
    57    13    53    1
    58    14    54    1
    59    14    55    1
    60    16    56    1
    61    18    57    1
    62    19    58    1
    63    22    59    1
    64    24    60    1
    65    25    61    1
    66    27    62    1
    67    29    63    1
    68    29    64    1
    69    30    65    1
    70    30    66    1
    71    31    67    1
    72    31    68    1
    73    33    69    1
    74    34    70    1
    75    35    71    1
    76    41    72    1
