@<TRIPOS>MOLECULE
*****
 46 48 0 0 0
SMALL
GASTEIGER

@<TRIPOS>ATOM
      1 C           8.1533   -2.5053   -1.8039 C.3     1  UNL1        0.0805
      2 O           7.6522   -1.3191   -1.2511 O.3     1  UNL1       -0.4786
      3 C           6.3404   -1.2897   -0.7549 C.ar    1  UNL1        0.2332
      4 C           5.8343   -0.1379   -0.2105 C.ar    1  UNL1        0.0899
      5 N           4.5647   -0.1491    0.2574 N.ar    1  UNL1       -0.2435
      6 C           3.7731   -1.2333    0.2157 C.ar    1  UNL1        0.1439
      7 C           2.4034   -1.2112    0.7304 C.2     1  UNL1        0.2681
      8 O           1.6840   -2.2418    0.6784 O.2     1  UNL1       -0.2681
      9 N           1.8264   -0.0497    1.3036 N.am    1  UNL1       -0.2789
     10 C           0.4726   -0.0544    1.8039 C.ar    1  UNL1        0.0525
     11 C           0.2043   -0.3858    3.1098 C.ar    1  UNL1        0.0519
     12 N          -1.0651   -0.3758    3.5270 N.ar    1  UNL1       -0.2255
     13 C          -2.0708   -0.0540    2.7117 C.ar    1  UNL1        0.2188
     14 F          -3.3126   -0.0637    3.2244 F       1  UNL1       -0.1835
     15 C          -1.8847    0.2900    1.3881 C.ar    1  UNL1        0.0359
     16 C          -3.0628    0.6151    0.5822 C.3     1  UNL1        0.0966
     17 C          -4.0746   -0.5273    0.7127 C.3     1  UNL1       -0.0352
     18 C          -2.8327    0.8287   -0.8690 C.3     1  UNL1        0.0224
     19 C          -3.8329    1.7296   -1.5097 C.3     1  UNL1        0.1997
     20 C          -4.3773    1.1213   -2.7753 C.3     1  UNL1        0.4266
     21 F          -5.0112   -0.0782   -2.6054 F       1  UNL1       -0.1669
     22 F          -5.2959    2.0198   -3.2986 F       1  UNL1       -0.1669
     23 F          -3.3797    0.9222   -3.7172 F       1  UNL1       -0.1669
     24 O          -4.8839    2.1277   -0.6500 O.2     1  UNL1       -0.4534
     25 C          -4.5711    2.4719    0.6526 C.2     1  UNL1        0.2765
     26 N          -5.1934    3.5902    1.3235 N.pl3   1  UNL1       -0.3134
     27 N          -3.6988    1.7541    1.2529 N.2     1  UNL1       -0.2256
     28 C          -0.5822    0.2804    0.9578 C.ar    1  UNL1       -0.0292
     29 C           4.3040   -2.3783   -0.3358 C.ar    1  UNL1        0.0619
     30 N           5.5695   -2.4043   -0.8136 N.ar    1  UNL1       -0.2178
     31 H           9.2348   -2.6395   -1.6441 H       1  UNL1        0.0660
     32 H           8.0045   -2.4911   -2.9225 H       1  UNL1        0.0660
     33 H           7.6508   -3.4140   -1.3861 H       1  UNL1        0.0660
     34 H           6.4578    0.7443   -0.1688 H       1  UNL1        0.0884
     35 H           2.4130    0.8120    1.3528 H       1  UNL1        0.1552
     36 H           1.0283   -0.6546    3.7971 H       1  UNL1        0.0849
     37 H          -4.1808   -1.0441   -0.2631 H       1  UNL1        0.0256
     38 H          -5.0770   -0.1758    0.9977 H       1  UNL1        0.0256
     39 H          -3.6859   -1.3352    1.3930 H       1  UNL1        0.0256
     40 H          -1.8340    1.2107   -1.1562 H       1  UNL1        0.0330
     41 H          -2.8793   -0.1914   -1.3577 H       1  UNL1        0.0330
     42 H          -3.3460    2.6970   -1.8523 H       1  UNL1        0.0826
     43 H          -6.2227    3.5791    1.4551 H       1  UNL1        0.1466
     44 H          -4.6040    4.3606    1.6497 H       1  UNL1        0.1466
     45 H          -0.3494    0.5304   -0.0433 H       1  UNL1        0.0641
     46 H           3.7375   -3.2806   -0.4048 H       1  UNL1        0.0854
@<TRIPOS>BOND
     1     1     2    1
     2     2     3    1
     3     3     4   ar
     4     4     5   ar
     5     5     6   ar
     6     6     7    1
     7     7     8    2
     8     7     9   am
     9     9    10    1
    10    10    11   ar
    11    11    12   ar
    12    12    13   ar
    13    13    14    1
    14    13    15   ar
    15    15    16    1
    16    16    17    1
    17    16    18    1
    18    18    19    1
    19    19    20    1
    20    20    21    1
    21    20    22    1
    22    20    23    1
    23    19    24    1
    24    24    25    1
    25    25    26    1
    26    25    27    2
    27    15    28   ar
    28     6    29   ar
    29    29    30   ar
    30    30     3   ar
    31    28    10   ar
    32    27    16    1
    33     1    31    1
    34     1    32    1
    35     1    33    1
    36     4    34    1
    37     9    35    1
    38    11    36    1
    39    17    37    1
    40    17    38    1
    41    17    39    1
    42    18    40    1
    43    18    41    1
    44    19    42    1
    45    26    43    1
    46    26    44    1
    47    28    45    1
    48    29    46    1
