
     RDKit          3D

 46 48  0  0  0  0  0  0  0  0999 V2000
    8.1533   -2.5053   -1.8039 C   0  0  0  0  0  0  0  0  0  0  0  0
    7.6522   -1.3191   -1.2511 O   0  0  0  0  0  0  0  0  0  0  0  0
    6.3404   -1.2897   -0.7549 C   0  0  0  0  0  0  0  0  0  0  0  0
    5.8343   -0.1379   -0.2105 C   0  0  0  0  0  0  0  0  0  0  0  0
    4.5647   -0.1491    0.2574 N   0  0  0  0  0  0  0  0  0  0  0  0
    3.7731   -1.2333    0.2157 C   0  0  0  0  0  0  0  0  0  0  0  0
    2.4034   -1.2112    0.7304 C   0  0  0  0  0  0  0  0  0  0  0  0
    1.6840   -2.2418    0.6784 O   0  0  0  0  0  0  0  0  0  0  0  0
    1.8264   -0.0497    1.3036 N   0  0  0  0  0  0  0  0  0  0  0  0
    0.4726   -0.0544    1.8039 C   0  0  0  0  0  0  0  0  0  0  0  0
    0.2043   -0.3858    3.1098 C   0  0  0  0  0  0  0  0  0  0  0  0
   -1.0651   -0.3758    3.5270 N   0  0  0  0  0  0  0  0  0  0  0  0
   -2.0708   -0.0540    2.7117 C   0  0  0  0  0  0  0  0  0  0  0  0
   -3.3126   -0.0637    3.2244 F   0  0  0  0  0  0  0  0  0  0  0  0
   -1.8847    0.2900    1.3881 C   0  0  0  0  0  0  0  0  0  0  0  0
   -3.0628    0.6151    0.5822 C   0  0  2  0  0  0  0  0  0  0  0  0
   -4.0746   -0.5273    0.7127 C   0  0  0  0  0  0  0  0  0  0  0  0
   -2.8327    0.8287   -0.8690 C   0  0  0  0  0  0  0  0  0  0  0  0
   -3.8329    1.7296   -1.5097 C   0  0  1  0  0  0  0  0  0  0  0  0
   -4.3773    1.1213   -2.7753 C   0  0  0  0  0  0  0  0  0  0  0  0
   -5.0112   -0.0782   -2.6054 F   0  0  0  0  0  0  0  0  0  0  0  0
   -5.2959    2.0198   -3.2986 F   0  0  0  0  0  0  0  0  0  0  0  0
   -3.3797    0.9222   -3.7172 F   0  0  0  0  0  0  0  0  0  0  0  0
   -4.8839    2.1277   -0.6500 O   0  0  0  0  0  0  0  0  0  0  0  0
   -4.5711    2.4719    0.6526 C   0  0  0  0  0  0  0  0  0  0  0  0
   -5.1934    3.5902    1.3235 N   0  0  0  0  0  0  0  0  0  0  0  0
   -3.6988    1.7541    1.2529 N   0  0  0  0  0  0  0  0  0  0  0  0
   -0.5822    0.2804    0.9578 C   0  0  0  0  0  0  0  0  0  0  0  0
    4.3040   -2.3783   -0.3358 C   0  0  0  0  0  0  0  0  0  0  0  0
    5.5695   -2.4043   -0.8136 N   0  0  0  0  0  0  0  0  0  0  0  0
    9.2348   -2.6395   -1.6441 H   0  0  0  0  0  0  0  0  0  0  0  0
    8.0045   -2.4911   -2.9225 H   0  0  0  0  0  0  0  0  0  0  0  0
    7.6508   -3.4140   -1.3861 H   0  0  0  0  0  0  0  0  0  0  0  0
    6.4578    0.7443   -0.1688 H   0  0  0  0  0  0  0  0  0  0  0  0
    2.4130    0.8120    1.3528 H   0  0  0  0  0  0  0  0  0  0  0  0
    1.0283   -0.6546    3.7971 H   0  0  0  0  0  0  0  0  0  0  0  0
   -4.1808   -1.0441   -0.2631 H   0  0  0  0  0  0  0  0  0  0  0  0
   -5.0770   -0.1758    0.9977 H   0  0  0  0  0  0  0  0  0  0  0  0
   -3.6859   -1.3352    1.3930 H   0  0  0  0  0  0  0  0  0  0  0  0
   -1.8340    1.2107   -1.1562 H   0  0  0  0  0  0  0  0  0  0  0  0
   -2.8793   -0.1914   -1.3577 H   0  0  0  0  0  0  0  0  0  0  0  0
   -3.3460    2.6970   -1.8523 H   0  0  0  0  0  0  0  0  0  0  0  0
   -6.2227    3.5791    1.4551 H   0  0  0  0  0  0  0  0  0  0  0  0
   -4.6040    4.3606    1.6497 H   0  0  0  0  0  0  0  0  0  0  0  0
   -0.3494    0.5304   -0.0433 H   0  0  0  0  0  0  0  0  0  0  0  0
    3.7375   -3.2806   -0.4048 H   0  0  0  0  0  0  0  0  0  0  0  0
  1  2  1  0
  2  3  1  0
  3  4  2  0
  4  5  1  0
  5  6  2  0
  6  7  1  0
  7  8  2  0
  7  9  1  0
  9 10  1  0
 10 11  2  0
 11 12  1  0
 12 13  2  0
 13 14  1  0
 13 15  1  0
 15 16  1  0
 16 17  1  6
 16 18  1  0
 18 19  1  0
 19 20  1  0
 20 21  1  0
 20 22  1  0
 20 23  1  0
 19 24  1  0
 24 25  1  0
 25 26  1  0
 25 27  2  0
 15 28  2  0
  6 29  1  0
 29 30  2  0
 30  3  1  0
 28 10  1  0
 27 16  1  0
  1 31  1  0
  1 32  1  0
  1 33  1  0
  4 34  1  0
  9 35  1  0
 11 36  1  0
 17 37  1  0
 17 38  1  0
 17 39  1  0
 18 40  1  0
 18 41  1  0
 19 42  1  6
 26 43  1  0
 26 44  1  0
 28 45  1  0
 29 46  1  0
M  END
$$$$
