@<TRIPOS>MOLECULE
*****
 15 14 0 0 0
SMALL
GASTEIGER

@<TRIPOS>ATOM
      1 N1         -1.3528   -1.5382   -0.1806 N.3     1  <1>        -0.3177
      2 C1         -0.6205   -0.4628    0.3924 C.3     1  <1>         0.1144
      3 C2          0.8535   -0.4932    0.0675 C.3     1  <1>         0.0451
      4 S1          1.5890    0.9505    0.8879 S.3     1  <1>        -0.0093
      5 O1          3.2869    1.0089    0.5766 O.3     1  <1>        -0.3288
      6 C3         -1.1596    0.7867   -0.2381 C.2     1  <1>         0.3226
      7 O2         -0.7456    2.0812    0.0156 O.3     1  <1>        -0.4795
      8 O3         -2.0810    0.6992   -1.0882 O.2     1  <1>        -0.2492
      9 H1         -1.6209   -2.3181    0.4062 H       1  <1>         0.1190
     10 H2         -1.8483   -1.3487   -1.0469 H       1  <1>         0.1190
     11 H3         -0.7714   -0.4468    1.4934 H       1  <1>         0.0583
     12 H4          1.3381   -1.4477    0.3566 H       1  <1>         0.0419
     13 H5          0.9425   -0.3764   -1.0348 H       1  <1>         0.0419
     14 H6          3.6094    0.0669    0.6531 H       1  <1>         0.2273
     15 H7         -1.4193    2.8385    0.0848 H       1  <1>         0.2951
@<TRIPOS>BOND
     1     1     2    1
     2     2     3    1
     3     3     4    1
     4     4     5    1
     5     2     6    1
     6     6     7    1
     7     6     8    2
     8     1     9    1
     9     1    10    1
    10     2    11    1
    11     3    12    1
    12     3    13    1
    13     5    14    1
    14     7    15    1
