@<TRIPOS>MOLECULE
*****
 70 74 0 0 0
SMALL
GASTEIGER

@<TRIPOS>ATOM
      1 C          -6.2380   -4.1200    0.5897 C.3     1  UNL1        0.0365
      2 O          -5.5531   -2.9587    0.3652 O.3     1  UNL1       -0.3809
      3 C          -5.4965   -2.5644   -0.9443 C.3     1  UNL1        0.0714
      4 C          -4.7317   -1.2732   -1.1595 C.3     1  UNL1        0.1112
      5 C          -3.2903   -1.4386   -0.9194 C.2     1  UNL1        0.2367
      6 O          -2.6058   -2.1855   -1.7078 O.2     1  UNL1       -0.2737
      7 N          -2.5394   -0.8464    0.1271 N.am    1  UNL1       -0.2824
      8 C          -1.1203   -1.0889    0.2520 C.ar    1  UNL1        0.0576
      9 C          -0.6375   -2.1299    1.0159 C.ar    1  UNL1       -0.0384
     10 C           0.7076   -2.3997    1.1624 C.ar    1  UNL1       -0.0593
     11 C           1.6064   -1.5775    0.5050 C.ar    1  UNL1       -0.0518
     12 C           1.1389   -0.5254   -0.2681 C.ar    1  UNL1        0.0107
     13 C           1.7647    0.4392   -1.0246 C.ar    1  UNL1        0.0284
     14 C           3.2246    0.5330   -1.1532 C.ar    1  UNL1        0.1132
     15 N           4.0379    0.3493   -0.1045 N.ar    1  UNL1       -0.2113
     16 C           5.3823    0.4174   -0.1544 C.ar    1  UNL1        0.2202
     17 N           6.1962    0.2211    0.9832 N.pl3   1  UNL1       -0.2809
     18 C           7.5939    0.2663    0.9766 C.ar    1  UNL1        0.0744
     19 C           8.4679    0.4812   -0.0529 C.ar    1  UNL1        0.0467
     20 N           9.7491    0.4334    0.4176 N.ar    1  UNL1       -0.2724
     21 C          10.9203    0.6175   -0.3979 C.3     1  UNL1        0.0303
     22 N           9.6800    0.1961    1.7012 N.ar    1  UNL1       -0.1748
     23 C           8.4078    0.0838    2.1054 C.ar    1  UNL1        0.0811
     24 C           7.9527   -0.1805    3.4786 C.3     1  UNL1       -0.0188
     25 N           5.9050    0.6911   -1.3602 N.ar    1  UNL1       -0.2198
     26 C           5.1541    0.8876   -2.4578 C.ar    1  UNL1        0.0685
     27 C           3.7906    0.8134   -2.3818 C.ar    1  UNL1        0.1674
     28 F           3.0189    1.0064   -3.4686 F       1  UNL1       -0.2016
     29 C           0.7952    1.2359   -1.5860 C.ar    1  UNL1        0.0121
     30 N          -0.4294    0.7897   -1.1961 N.ar    1  UNL1       -0.3586
     31 C          -0.2320   -0.2691   -0.4034 C.ar    1  UNL1        0.0686
     32 N          -5.3125   -0.1755   -0.4380 N.3     1  UNL1       -0.2873
     33 C          -6.7560   -0.1123   -0.6091 C.3     1  UNL1        0.0125
     34 C          -7.3057    1.1939   -0.1067 C.3     1  UNL1        0.0114
     35 N          -6.4164    1.7801    0.8805 N.3     1  UNL1       -0.3029
     36 C          -7.0062    2.9221    1.5070 C.3     1  UNL1       -0.0127
     37 C          -5.1236    2.1367    0.3033 C.3     1  UNL1        0.0114
     38 C          -4.7243    1.1044   -0.7383 C.3     1  UNL1        0.0125
     39 H          -6.2156   -4.3343    1.6776 H       1  UNL1        0.0523
     40 H          -5.7932   -4.9891    0.0766 H       1  UNL1        0.0523
     41 H          -7.3011   -3.9594    0.3210 H       1  UNL1        0.0523
     42 H          -5.0026   -3.3853   -1.5163 H       1  UNL1        0.0580
     43 H          -6.4955   -2.4506   -1.3527 H       1  UNL1        0.0580
     44 H          -4.8630   -1.0390   -2.2181 H       1  UNL1        0.0582
     45 H          -3.0286   -0.2508    0.8045 H       1  UNL1        0.1549
     46 H          -1.3705   -2.7494    1.5134 H       1  UNL1        0.0637
     47 H           1.0916   -3.2135    1.7594 H       1  UNL1        0.0618
     48 H           2.6553   -1.7750    0.6099 H       1  UNL1        0.0624
     49 H           5.6876    0.0299    1.8848 H       1  UNL1        0.1551
     50 H           8.2010    0.6599   -1.0724 H       1  UNL1        0.0845
     51 H          11.2803   -0.4012   -0.6738 H       1  UNL1        0.0473
     52 H          11.6928    1.2173    0.1052 H       1  UNL1        0.0473
     53 H          10.6338    1.1035   -1.3707 H       1  UNL1        0.0473
     54 H           7.0671    0.4250    3.7496 H       1  UNL1        0.0294
     55 H           7.7654   -1.2516    3.6301 H       1  UNL1        0.0294
     56 H           8.7608    0.1565    4.1878 H       1  UNL1        0.0294
     57 H           5.6369    1.1038   -3.3980 H       1  UNL1        0.0861
     58 H           0.9875    2.0703   -2.2260 H       1  UNL1        0.0814
     59 H          -1.3580    1.1922   -1.4607 H       1  UNL1        0.1654
     60 H          -6.9527   -0.1778   -1.6981 H       1  UNL1        0.0439
     61 H          -7.2136   -0.9967   -0.1366 H       1  UNL1        0.0439
     62 H          -7.5589    1.8779   -0.9268 H       1  UNL1        0.0439
     63 H          -8.2447    0.9411    0.4601 H       1  UNL1        0.0439
     64 H          -6.2545    3.6262    1.9220 H       1  UNL1        0.0391
     65 H          -7.5943    2.5461    2.3916 H       1  UNL1        0.0391
     66 H          -7.7305    3.4631    0.8782 H       1  UNL1        0.0391
     67 H          -5.1265    3.1686   -0.1064 H       1  UNL1        0.0439
     68 H          -4.3744    2.1228    1.1129 H       1  UNL1        0.0439
     69 H          -3.6972    1.0366   -0.9907 H       1  UNL1        0.0439
     70 H          -5.2601    1.4533   -1.6757 H       1  UNL1        0.0439
@<TRIPOS>BOND
     1     1     2    1
     2     2     3    1
     3     3     4    1
     4     4     5    1
     5     5     6    2
     6     5     7   am
     7     7     8    1
     8     8     9   ar
     9     9    10   ar
    10    10    11   ar
    11    11    12   ar
    12    12    13   ar
    13    13    14    1
    14    14    15   ar
    15    15    16   ar
    16    16    17    1
    17    17    18    1
    18    18    19   ar
    19    19    20   ar
    20    20    21    1
    21    20    22   ar
    22    22    23   ar
    23    23    24    1
    24    16    25   ar
    25    25    26   ar
    26    26    27   ar
    27    27    28    1
    28    13    29   ar
    29    29    30   ar
    30    30    31   ar
    31     4    32    1
    32    32    33    1
    33    33    34    1
    34    34    35    1
    35    35    36    1
    36    35    37    1
    37    37    38    1
    38    31     8   ar
    39    38    32    1
    40    31    12   ar
    41    27    14   ar
    42    23    18   ar
    43     1    39    1
    44     1    40    1
    45     1    41    1
    46     3    42    1
    47     3    43    1
    48     4    44    1
    49     7    45    1
    50     9    46    1
    51    10    47    1
    52    11    48    1
    53    17    49    1
    54    19    50    1
    55    21    51    1
    56    21    52    1
    57    21    53    1
    58    24    54    1
    59    24    55    1
    60    24    56    1
    61    26    57    1
    62    29    58    1
    63    30    59    1
    64    33    60    1
    65    33    61    1
    66    34    62    1
    67    34    63    1
    68    36    64    1
    69    36    65    1
    70    36    66    1
    71    37    67    1
    72    37    68    1
    73    38    69    1
    74    38    70    1
