
     RDKit          3D

 70 74  0  0  0  0  0  0  0  0999 V2000
   -6.2380   -4.1200    0.5897 C   0  0  0  0  0  0  0  0  0  0  0  0
   -5.5531   -2.9587    0.3652 O   0  0  0  0  0  0  0  0  0  0  0  0
   -5.4965   -2.5644   -0.9443 C   0  0  0  0  0  0  0  0  0  0  0  0
   -4.7317   -1.2732   -1.1595 C   0  0  2  0  0  0  0  0  0  0  0  0
   -3.2903   -1.4386   -0.9194 C   0  0  0  0  0  0  0  0  0  0  0  0
   -2.6058   -2.1855   -1.7078 O   0  0  0  0  0  0  0  0  0  0  0  0
   -2.5394   -0.8464    0.1271 N   0  0  0  0  0  0  0  0  0  0  0  0
   -1.1203   -1.0889    0.2520 C   0  0  0  0  0  0  0  0  0  0  0  0
   -0.6375   -2.1299    1.0159 C   0  0  0  0  0  0  0  0  0  0  0  0
    0.7076   -2.3997    1.1624 C   0  0  0  0  0  0  0  0  0  0  0  0
    1.6064   -1.5775    0.5050 C   0  0  0  0  0  0  0  0  0  0  0  0
    1.1389   -0.5254   -0.2681 C   0  0  0  0  0  0  0  0  0  0  0  0
    1.7647    0.4392   -1.0246 C   0  0  0  0  0  0  0  0  0  0  0  0
    3.2246    0.5330   -1.1532 C   0  0  0  0  0  0  0  0  0  0  0  0
    4.0379    0.3493   -0.1045 N   0  0  0  0  0  0  0  0  0  0  0  0
    5.3823    0.4174   -0.1544 C   0  0  0  0  0  0  0  0  0  0  0  0
    6.1962    0.2211    0.9832 N   0  0  0  0  0  0  0  0  0  0  0  0
    7.5939    0.2663    0.9766 C   0  0  0  0  0  0  0  0  0  0  0  0
    8.4679    0.4812   -0.0529 C   0  0  0  0  0  0  0  0  0  0  0  0
    9.7491    0.4334    0.4176 N   0  0  0  0  0  0  0  0  0  0  0  0
   10.9203    0.6175   -0.3979 C   0  0  0  0  0  0  0  0  0  0  0  0
    9.6800    0.1961    1.7012 N   0  0  0  0  0  0  0  0  0  0  0  0
    8.4078    0.0838    2.1054 C   0  0  0  0  0  0  0  0  0  0  0  0
    7.9527   -0.1805    3.4786 C   0  0  0  0  0  0  0  0  0  0  0  0
    5.9050    0.6911   -1.3602 N   0  0  0  0  0  0  0  0  0  0  0  0
    5.1541    0.8876   -2.4578 C   0  0  0  0  0  0  0  0  0  0  0  0
    3.7906    0.8134   -2.3818 C   0  0  0  0  0  0  0  0  0  0  0  0
    3.0189    1.0064   -3.4686 F   0  0  0  0  0  0  0  0  0  0  0  0
    0.7952    1.2359   -1.5860 C   0  0  0  0  0  0  0  0  0  0  0  0
   -0.4294    0.7897   -1.1961 N   0  0  0  0  0  0  0  0  0  0  0  0
   -0.2320   -0.2691   -0.4034 C   0  0  0  0  0  0  0  0  0  0  0  0
   -5.3125   -0.1755   -0.4380 N   0  0  0  0  0  0  0  0  0  0  0  0
   -6.7560   -0.1123   -0.6091 C   0  0  0  0  0  0  0  0  0  0  0  0
   -7.3057    1.1939   -0.1067 C   0  0  0  0  0  0  0  0  0  0  0  0
   -6.4164    1.7801    0.8805 N   0  0  0  0  0  0  0  0  0  0  0  0
   -7.0062    2.9221    1.5070 C   0  0  0  0  0  0  0  0  0  0  0  0
   -5.1236    2.1367    0.3033 C   0  0  0  0  0  0  0  0  0  0  0  0
   -4.7243    1.1044   -0.7383 C   0  0  0  0  0  0  0  0  0  0  0  0
   -6.2156   -4.3343    1.6776 H   0  0  0  0  0  0  0  0  0  0  0  0
   -5.7932   -4.9891    0.0766 H   0  0  0  0  0  0  0  0  0  0  0  0
   -7.3011   -3.9594    0.3210 H   0  0  0  0  0  0  0  0  0  0  0  0
   -5.0026   -3.3853   -1.5163 H   0  0  0  0  0  0  0  0  0  0  0  0
   -6.4955   -2.4506   -1.3527 H   0  0  0  0  0  0  0  0  0  0  0  0
   -4.8630   -1.0390   -2.2181 H   0  0  0  0  0  0  0  0  0  0  0  0
   -3.0286   -0.2508    0.8045 H   0  0  0  0  0  0  0  0  0  0  0  0
   -1.3705   -2.7494    1.5134 H   0  0  0  0  0  0  0  0  0  0  0  0
    1.0916   -3.2135    1.7594 H   0  0  0  0  0  0  0  0  0  0  0  0
    2.6553   -1.7750    0.6099 H   0  0  0  0  0  0  0  0  0  0  0  0
    5.6876    0.0299    1.8848 H   0  0  0  0  0  0  0  0  0  0  0  0
    8.2010    0.6599   -1.0724 H   0  0  0  0  0  0  0  0  0  0  0  0
   11.2803   -0.4012   -0.6738 H   0  0  0  0  0  0  0  0  0  0  0  0
   11.6928    1.2173    0.1052 H   0  0  0  0  0  0  0  0  0  0  0  0
   10.6338    1.1035   -1.3707 H   0  0  0  0  0  0  0  0  0  0  0  0
    7.0671    0.4250    3.7496 H   0  0  0  0  0  0  0  0  0  0  0  0
    7.7654   -1.2516    3.6301 H   0  0  0  0  0  0  0  0  0  0  0  0
    8.7608    0.1565    4.1878 H   0  0  0  0  0  0  0  0  0  0  0  0
    5.6369    1.1038   -3.3980 H   0  0  0  0  0  0  0  0  0  0  0  0
    0.9875    2.0703   -2.2260 H   0  0  0  0  0  0  0  0  0  0  0  0
   -1.3580    1.1922   -1.4607 H   0  0  0  0  0  0  0  0  0  0  0  0
   -6.9527   -0.1778   -1.6981 H   0  0  0  0  0  0  0  0  0  0  0  0
   -7.2136   -0.9967   -0.1366 H   0  0  0  0  0  0  0  0  0  0  0  0
   -7.5589    1.8779   -0.9268 H   0  0  0  0  0  0  0  0  0  0  0  0
   -8.2447    0.9411    0.4601 H   0  0  0  0  0  0  0  0  0  0  0  0
   -6.2545    3.6262    1.9220 H   0  0  0  0  0  0  0  0  0  0  0  0
   -7.5943    2.5461    2.3916 H   0  0  0  0  0  0  0  0  0  0  0  0
   -7.7305    3.4631    0.8782 H   0  0  0  0  0  0  0  0  0  0  0  0
   -5.1265    3.1686   -0.1064 H   0  0  0  0  0  0  0  0  0  0  0  0
   -4.3744    2.1228    1.1129 H   0  0  0  0  0  0  0  0  0  0  0  0
   -3.6972    1.0366   -0.9907 H   0  0  0  0  0  0  0  0  0  0  0  0
   -5.2601    1.4533   -1.6757 H   0  0  0  0  0  0  0  0  0  0  0  0
  1  2  1  0
  2  3  1  0
  3  4  1  0
  4  5  1  0
  5  6  2  0
  5  7  1  0
  7  8  1  0
  8  9  2  0
  9 10  1  0
 10 11  2  0
 11 12  1  0
 12 13  1  0
 13 14  1  0
 14 15  2  0
 15 16  1  0
 16 17  1  0
 17 18  1  0
 18 19  2  0
 19 20  1  0
 20 21  1  0
 20 22  1  0
 22 23  2  0
 23 24  1  0
 16 25  2  0
 25 26  1  0
 26 27  2  0
 27 28  1  0
 13 29  2  0
 29 30  1  0
 30 31  1  0
  4 32  1  0
 32 33  1  0
 33 34  1  0
 34 35  1  0
 35 36  1  0
 35 37  1  0
 37 38  1  0
 31  8  1  0
 38 32  1  0
 31 12  2  0
 27 14  1  0
 23 18  1  0
  1 39  1  0
  1 40  1  0
  1 41  1  0
  3 42  1  0
  3 43  1  0
  4 44  1  6
  7 45  1  0
  9 46  1  0
 10 47  1  0
 11 48  1  0
 17 49  1  0
 19 50  1  0
 21 51  1  0
 21 52  1  0
 21 53  1  0
 24 54  1  0
 24 55  1  0
 24 56  1  0
 26 57  1  0
 29 58  1  0
 30 59  1  0
 33 60  1  0
 33 61  1  0
 34 62  1  0
 34 63  1  0
 36 64  1  0
 36 65  1  0
 36 66  1  0
 37 67  1  0
 37 68  1  0
 38 69  1  0
 38 70  1  0
M  END
$$$$
