@<TRIPOS>MOLECULE
*****
 62 67 0 0 0
SMALL
GASTEIGER

@<TRIPOS>ATOM
      1 C          -1.2923   -2.4915   -0.2452 C.3     1  UNL1       -0.0351
      2 C          -0.4823   -1.7260    0.8207 C.3     1  UNL1        0.0935
      3 C           0.9471   -2.0657    0.4991 C.ar    1  UNL1        0.0158
      4 C           1.9484   -1.1713    0.3436 C.ar    1  UNL1       -0.0463
      5 C           3.2460   -1.5647    0.0664 C.ar    1  UNL1       -0.0217
      6 C           4.3005   -0.5331   -0.0864 C.2     1  UNL1       -0.0172
      7 C           5.2769   -0.6082   -0.9534 C.2     1  UNL1        0.1492
      8 F           5.3076   -1.7123   -1.7561 F       1  UNL1       -0.2032
      9 C           6.3147    0.3994   -1.1160 C.ar    1  UNL1        0.0990
     10 C           7.3072    0.1950   -2.0557 C.ar    1  UNL1       -0.0322
     11 C           8.3217    1.1176   -2.2617 C.ar    1  UNL1       -0.0408
     12 C           8.3460    2.2894   -1.4996 C.ar    1  UNL1        0.0699
     13 C           9.3887    3.2622   -1.6945 C.1     1  UNL1        0.1007
     14 N          10.2272    4.0713   -1.8588 N.1     1  UNL1       -0.1908
     15 C           7.3438    2.4495   -0.5820 C.ar    1  UNL1        0.0457
     16 N           6.3544    1.5249   -0.3975 N.ar    1  UNL1       -0.2514
     17 C           3.5160   -2.8948   -0.0522 C.ar    1  UNL1       -0.0518
     18 C           2.5315   -3.8446    0.0962 C.ar    1  UNL1       -0.0255
     19 C           1.2466   -3.4078    0.3731 C.ar    1  UNL1        0.1289
     20 F           0.3051   -4.3738    0.5109 F       1  UNL1       -0.2051
     21 N          -0.7460   -2.3634    2.0642 N.2     1  UNL1       -0.2521
     22 C          -1.7590   -2.1416    2.7767 C.2     1  UNL1        0.1485
     23 N          -1.9604   -2.8084    3.9949 N.pl3   1  UNL1       -0.3380
     24 S          -2.9445   -0.9362    2.2141 S.3     1  UNL1       -0.0746
     25 C          -1.9286    0.2890    1.2899 C.3     1  UNL1        0.1054
     26 C          -2.6567    1.4242    0.7287 C.2     1  UNL1        0.2326
     27 O          -2.0467    2.5514    0.6790 O.2     1  UNL1       -0.2741
     28 N          -3.9900    1.3222    0.2479 N.am    1  UNL1       -0.2954
     29 C          -4.7239    0.0839    0.2936 C.3     1  UNL1        0.0383
     30 C          -5.9667    0.1407   -0.5666 C.3     1  UNL1        0.0642
     31 O          -5.6544    0.8967   -1.6904 O.3     1  UNL1       -0.3703
     32 C          -5.6948    2.2334   -1.2656 C.3     1  UNL1        0.0854
     33 C          -6.2477    3.2680   -2.1745 C.3     1  UNL1       -0.0196
     34 C          -7.0808    2.7564   -0.9819 C.3     1  UNL1       -0.0196
     35 C          -4.6016    2.5193   -0.2954 C.3     1  UNL1        0.0439
     36 C          -0.5566    0.5783    1.8716 C.3     1  UNL1       -0.0220
     37 C          -0.7228   -0.2730    0.6945 C.3     1  UNL1        0.0134
     38 H          -2.0790   -1.8040   -0.6647 H       1  UNL1        0.0256
     39 H          -0.6613   -2.7916   -1.1037 H       1  UNL1        0.0256
     40 H          -1.7450   -3.4041    0.1603 H       1  UNL1        0.0256
     41 H           1.7266   -0.1259    0.4375 H       1  UNL1        0.0628
     42 H           4.2516    0.3301    0.5617 H       1  UNL1        0.0653
     43 H           7.3162   -0.7140   -2.6681 H       1  UNL1        0.0640
     44 H           9.1092    0.9988   -2.9773 H       1  UNL1        0.0631
     45 H           7.3510    3.3551    0.0152 H       1  UNL1        0.0843
     46 H           4.5463   -3.2248   -0.2685 H       1  UNL1        0.0624
     47 H           2.7518   -4.9206    0.0003 H       1  UNL1        0.0646
     48 H          -2.8983   -2.8064    4.4417 H       1  UNL1        0.1442
     49 H          -1.1915   -3.3072    4.4659 H       1  UNL1        0.1442
     50 H          -4.1163   -0.7653   -0.0331 H       1  UNL1        0.0487
     51 H          -5.1218   -0.0322    1.3484 H       1  UNL1        0.0487
     52 H          -6.2948   -0.8704   -0.8325 H       1  UNL1        0.0576
     53 H          -6.7654    0.7019   -0.0003 H       1  UNL1        0.0576
     54 H          -6.5885    2.9471   -3.1824 H       1  UNL1        0.0294
     55 H          -5.8863    4.2930   -2.1230 H       1  UNL1        0.0294
     56 H          -7.9617    2.1428   -1.2072 H       1  UNL1        0.0294
     57 H          -7.1575    3.4670   -0.1209 H       1  UNL1        0.0294
     58 H          -5.0097    3.1071    0.5591 H       1  UNL1        0.0493
     59 H          -3.7882    3.1378   -0.7519 H       1  UNL1        0.0493
     60 H          -0.3136    0.1081    2.8420 H       1  UNL1        0.0287
     61 H          -0.1533    1.6028    1.7144 H       1  UNL1        0.0287
     62 H          -0.4940    0.1182   -0.3382 H       1  UNL1        0.0346
@<TRIPOS>BOND
     1     2     1    1
     2     2     3    1
     3     3     4   ar
     4     4     5   ar
     5     5     6    1
     6     6     7    2
     7     7     8    1
     8     7     9    1
     9     9    10   ar
    10    10    11   ar
    11    11    12   ar
    12    12    13    1
    13    13    14    3
    14    12    15   ar
    15    15    16   ar
    16     5    17   ar
    17    17    18   ar
    18    18    19   ar
    19    19    20    1
    20     2    21    1
    21    21    22    2
    22    22    23    1
    23    22    24    1
    24    24    25    1
    25    25    26    1
    26    26    27    2
    27    26    28   am
    28    28    29    1
    29    29    30    1
    30    30    31    1
    31    31    32    1
    32    32    33    1
    33    33    34    1
    34    32    35    1
    35    25    36    1
    36    36    37    1
    37    37     2    1
    38    19     3   ar
    39    37    25    1
    40    16     9   ar
    41    35    28    1
    42    34    32    1
    43     1    38    1
    44     1    39    1
    45     1    40    1
    46     4    41    1
    47     6    42    1
    48    10    43    1
    49    11    44    1
    50    15    45    1
    51    17    46    1
    52    18    47    1
    53    23    48    1
    54    23    49    1
    55    29    50    1
    56    29    51    1
    57    30    52    1
    58    30    53    1
    59    33    54    1
    60    33    55    1
    61    34    56    1
    62    34    57    1
    63    35    58    1
    64    35    59    1
    65    36    60    1
    66    36    61    1
    67    37    62    1
