
     RDKit          3D

 62 67  0  0  0  0  0  0  0  0999 V2000
   -1.2923   -2.4915   -0.2452 C   0  0  0  0  0  0  0  0  0  0  0  0
   -0.4823   -1.7260    0.8207 C   0  0  2  0  0  0  0  0  0  0  0  0
    0.9471   -2.0657    0.4991 C   0  0  0  0  0  0  0  0  0  0  0  0
    1.9484   -1.1713    0.3436 C   0  0  0  0  0  0  0  0  0  0  0  0
    3.2460   -1.5647    0.0664 C   0  0  0  0  0  0  0  0  0  0  0  0
    4.3005   -0.5331   -0.0864 C   0  0  0  0  0  0  0  0  0  0  0  0
    5.2769   -0.6082   -0.9534 C   0  0  0  0  0  0  0  0  0  0  0  0
    5.3076   -1.7123   -1.7561 F   0  0  0  0  0  0  0  0  0  0  0  0
    6.3147    0.3994   -1.1160 C   0  0  0  0  0  0  0  0  0  0  0  0
    7.3072    0.1950   -2.0557 C   0  0  0  0  0  0  0  0  0  0  0  0
    8.3217    1.1176   -2.2617 C   0  0  0  0  0  0  0  0  0  0  0  0
    8.3460    2.2894   -1.4996 C   0  0  0  0  0  0  0  0  0  0  0  0
    9.3887    3.2622   -1.6945 C   0  0  0  0  0  0  0  0  0  0  0  0
   10.2272    4.0713   -1.8588 N   0  0  0  0  0  0  0  0  0  0  0  0
    7.3438    2.4495   -0.5820 C   0  0  0  0  0  0  0  0  0  0  0  0
    6.3544    1.5249   -0.3975 N   0  0  0  0  0  0  0  0  0  0  0  0
    3.5160   -2.8948   -0.0522 C   0  0  0  0  0  0  0  0  0  0  0  0
    2.5315   -3.8446    0.0962 C   0  0  0  0  0  0  0  0  0  0  0  0
    1.2466   -3.4078    0.3731 C   0  0  0  0  0  0  0  0  0  0  0  0
    0.3051   -4.3738    0.5109 F   0  0  0  0  0  0  0  0  0  0  0  0
   -0.7460   -2.3634    2.0642 N   0  0  0  0  0  0  0  0  0  0  0  0
   -1.7590   -2.1416    2.7767 C   0  0  0  0  0  0  0  0  0  0  0  0
   -1.9604   -2.8084    3.9949 N   0  0  0  0  0  0  0  0  0  0  0  0
   -2.9445   -0.9362    2.2141 S   0  0  0  0  0  0  0  0  0  0  0  0
   -1.9286    0.2890    1.2899 C   0  0  1  0  0  0  0  0  0  0  0  0
   -2.6567    1.4242    0.7287 C   0  0  0  0  0  0  0  0  0  0  0  0
   -2.0467    2.5514    0.6790 O   0  0  0  0  0  0  0  0  0  0  0  0
   -3.9900    1.3222    0.2479 N   0  0  0  0  0  0  0  0  0  0  0  0
   -4.7239    0.0839    0.2936 C   0  0  0  0  0  0  0  0  0  0  0  0
   -5.9667    0.1407   -0.5666 C   0  0  0  0  0  0  0  0  0  0  0  0
   -5.6544    0.8967   -1.6904 O   0  0  0  0  0  0  0  0  0  0  0  0
   -5.6948    2.2334   -1.2656 C   0  0  0  0  0  0  0  0  0  0  0  0
   -6.2477    3.2680   -2.1745 C   0  0  0  0  0  0  0  0  0  0  0  0
   -7.0808    2.7564   -0.9819 C   0  0  0  0  0  0  0  0  0  0  0  0
   -4.6016    2.5193   -0.2954 C   0  0  0  0  0  0  0  0  0  0  0  0
   -0.5566    0.5783    1.8716 C   0  0  0  0  0  0  0  0  0  0  0  0
   -0.7228   -0.2730    0.6945 C   0  0  1  0  0  0  0  0  0  0  0  0
   -2.0790   -1.8040   -0.6647 H   0  0  0  0  0  0  0  0  0  0  0  0
   -0.6613   -2.7916   -1.1037 H   0  0  0  0  0  0  0  0  0  0  0  0
   -1.7450   -3.4041    0.1603 H   0  0  0  0  0  0  0  0  0  0  0  0
    1.7266   -0.1259    0.4375 H   0  0  0  0  0  0  0  0  0  0  0  0
    4.2516    0.3301    0.5617 H   0  0  0  0  0  0  0  0  0  0  0  0
    7.3162   -0.7140   -2.6681 H   0  0  0  0  0  0  0  0  0  0  0  0
    9.1092    0.9988   -2.9773 H   0  0  0  0  0  0  0  0  0  0  0  0
    7.3510    3.3551    0.0152 H   0  0  0  0  0  0  0  0  0  0  0  0
    4.5463   -3.2248   -0.2685 H   0  0  0  0  0  0  0  0  0  0  0  0
    2.7518   -4.9206    0.0003 H   0  0  0  0  0  0  0  0  0  0  0  0
   -2.8983   -2.8064    4.4417 H   0  0  0  0  0  0  0  0  0  0  0  0
   -1.1915   -3.3072    4.4659 H   0  0  0  0  0  0  0  0  0  0  0  0
   -4.1163   -0.7653   -0.0331 H   0  0  0  0  0  0  0  0  0  0  0  0
   -5.1218   -0.0322    1.3484 H   0  0  0  0  0  0  0  0  0  0  0  0
   -6.2948   -0.8704   -0.8325 H   0  0  0  0  0  0  0  0  0  0  0  0
   -6.7654    0.7019   -0.0003 H   0  0  0  0  0  0  0  0  0  0  0  0
   -6.5885    2.9471   -3.1824 H   0  0  0  0  0  0  0  0  0  0  0  0
   -5.8863    4.2930   -2.1230 H   0  0  0  0  0  0  0  0  0  0  0  0
   -7.9617    2.1428   -1.2072 H   0  0  0  0  0  0  0  0  0  0  0  0
   -7.1575    3.4670   -0.1209 H   0  0  0  0  0  0  0  0  0  0  0  0
   -5.0097    3.1071    0.5591 H   0  0  0  0  0  0  0  0  0  0  0  0
   -3.7882    3.1378   -0.7519 H   0  0  0  0  0  0  0  0  0  0  0  0
   -0.3136    0.1081    2.8420 H   0  0  0  0  0  0  0  0  0  0  0  0
   -0.1533    1.6028    1.7144 H   0  0  0  0  0  0  0  0  0  0  0  0
   -0.4940    0.1182   -0.3382 H   0  0  0  0  0  0  0  0  0  0  0  0
  2  1  1  6
  2  3  1  0
  3  4  2  0
  4  5  1  0
  5  6  1  0
  6  7  2  0
  7  8  1  0
  7  9  1  0
  9 10  2  0
 10 11  1  0
 11 12  2  0
 12 13  1  0
 13 14  3  0
 12 15  1  0
 15 16  2  0
  5 17  2  0
 17 18  1  0
 18 19  2  0
 19 20  1  0
  2 21  1  0
 21 22  2  0
 22 23  1  0
 22 24  1  0
 24 25  1  0
 25 26  1  6
 26 27  2  0
 26 28  1  0
 28 29  1  0
 29 30  1  0
 30 31  1  0
 31 32  1  0
 32 33  1  0
 33 34  1  0
 32 35  1  0
 25 36  1  0
 36 37  1  0
 37  2  1  0
 19  3  1  0
 37 25  1  0
 16  9  1  0
 35 28  1  0
 34 32  1  0
  1 38  1  0
  1 39  1  0
  1 40  1  0
  4 41  1  0
  6 42  1  0
 10 43  1  0
 11 44  1  0
 15 45  1  0
 17 46  1  0
 18 47  1  0
 23 48  1  0
 23 49  1  0
 29 50  1  0
 29 51  1  0
 30 52  1  0
 30 53  1  0
 33 54  1  0
 33 55  1  0
 34 56  1  0
 34 57  1  0
 35 58  1  0
 35 59  1  0
 36 60  1  0
 36 61  1  0
 37 62  1  6
M  END
$$$$
