@<TRIPOS>MOLECULE
*****
 27 28 0 0 0
SMALL
GASTEIGER

@<TRIPOS>ATOM
      1 N           3.7184   -2.7393   -0.6963 N.3     1  UNL1       -0.2015
      2 S           4.1738   -1.1474   -0.2139 S.O2    1  UNL1        0.0815
      3 O           5.5276   -0.8160   -0.7734 O.2     1  UNL1       -0.1512
      4 O           4.2610   -1.0335    1.2784 O.2     1  UNL1       -0.1512
      5 C           3.0682    0.0586   -0.8730 C.ar    1  UNL1        0.2556
      6 N           2.8364    0.7657   -1.7537 N.ar    1  UNL1       -0.1190
      7 N           1.8364    1.5737   -1.8858 N.ar    1  UNL1       -0.1228
      8 C           0.9820    1.7360   -1.1348 C.ar    1  UNL1        0.2022
      9 N          -0.2353    2.4762   -0.8869 N.pl3   1  UNL1       -0.1923
     10 S          -1.3033    2.4250    0.4547 S.O2    1  UNL1        0.0739
     11 O          -2.3915    3.4211    0.3349 O.2     1  UNL1       -0.1499
     12 O          -0.5195    2.7703    1.6961 O.2     1  UNL1       -0.1499
     13 C          -1.9687    0.8365    0.5858 C.ar    1  UNL1        0.1086
     14 C          -1.5881   -0.2371    1.3596 C.ar    1  UNL1       -0.0351
     15 C          -2.2671   -1.4343    1.2976 C.ar    1  UNL1       -0.0599
     16 C          -3.3522   -1.6367    0.4742 C.ar    1  UNL1       -0.0616
     17 C          -3.7469   -0.5694   -0.3082 C.ar    1  UNL1       -0.0599
     18 C          -3.0741    0.6198   -0.2482 C.ar    1  UNL1       -0.0351
     19 S           1.5589    0.5092    0.1856 S.2     1  UNL1       -0.0094
     20 H           4.5313   -3.3845   -0.7641 H       1  UNL1        0.1443
     21 H           2.9245   -3.1107   -0.1677 H       1  UNL1        0.1443
     22 H          -0.4047    3.1067   -1.6985 H       1  UNL1        0.1758
     23 H          -0.7365   -0.0134    1.9868 H       1  UNL1        0.0637
     24 H          -1.8954   -2.2212    1.9421 H       1  UNL1        0.0618
     25 H          -3.8404   -2.5869    0.4675 H       1  UNL1        0.0618
     26 H          -4.5993   -0.7491   -0.9460 H       1  UNL1        0.0618
     27 H          -3.4955    1.3808   -0.9234 H       1  UNL1        0.0637
@<TRIPOS>BOND
     1     1     2    1
     2     2     3    2
     3     2     4    2
     4     2     5    1
     5     5     6   ar
     6     6     7   ar
     7     7     8   ar
     8     8     9    1
     9     9    10    1
    10    10    11    2
    11    10    12    2
    12    10    13    1
    13    13    14   ar
    14    14    15   ar
    15    15    16   ar
    16    16    17   ar
    17    17    18   ar
    18     8    19   ar
    19    19     5   ar
    20    18    13   ar
    21     1    20    1
    22     1    21    1
    23     9    22    1
    24    14    23    1
    25    15    24    1
    26    16    25    1
    27    17    26    1
    28    18    27    1
