@<TRIPOS>MOLECULE
*****
 71 75 0 0 0
SMALL
GASTEIGER

@<TRIPOS>ATOM
      1 C          -1.5785    6.4537   -1.8418 C.3     1  UNL1       -0.0455
      2 C          -0.9382    5.7184   -0.6615 C.3     1  UNL1        0.0387
      3 N          -1.1629    4.2889   -0.7636 N.ar    1  UNL1       -0.2705
      4 C          -0.3755    3.3884   -1.3797 C.ar    1  UNL1        0.0338
      5 C          -1.0122    2.1561   -1.2049 C.ar    1  UNL1        0.0282
      6 C          -0.5316    0.8822   -1.6997 C.ar    1  UNL1       -0.0022
      7 C          -1.2698    0.1698   -2.6180 C.ar    1  UNL1       -0.0351
      8 C          -0.8073   -1.0523   -3.0909 C.ar    1  UNL1        0.0305
      9 N           0.3581   -1.5496   -2.6605 N.ar    1  UNL1       -0.2374
     10 C           1.1090   -0.9071   -1.7781 C.ar    1  UNL1        0.1391
     11 N           2.3048   -1.1854   -1.1899 N.ar    1  UNL1       -0.3391
     12 C           2.6449   -0.1973   -0.3519 C.ar    1  UNL1        0.0486
     13 C           3.8458   -0.1111    0.4705 C.ar    1  UNL1       -0.0013
     14 C           4.0648    0.9688    1.2865 C.ar    1  UNL1       -0.0526
     15 C           5.1848    1.0689    2.0682 C.ar    1  UNL1       -0.0608
     16 C           6.1059    0.0465    2.0200 C.ar    1  UNL1       -0.0573
     17 C           5.9496   -1.0676    1.2227 C.ar    1  UNL1       -0.0328
     18 C           6.9606   -2.1264    1.2113 C.3     1  UNL1        0.0235
     19 N           7.9921   -1.9450    0.2407 N.3     1  UNL1       -0.3042
     20 C           8.7730   -0.7597    0.3776 C.3     1  UNL1       -0.0127
     21 C           8.7067   -3.1283   -0.1167 C.3     1  UNL1       -0.0127
     22 C           4.7926   -1.1189    0.4477 C.ar    1  UNL1       -0.0482
     23 C           1.6312    0.7339   -0.4135 C.ar    1  UNL1       -0.0265
     24 C           0.6577    0.3141   -1.2985 C.ar    1  UNL1        0.0271
     25 C          -2.1726    2.3660   -0.4812 C.ar    1  UNL1        0.1004
     26 C          -3.1202    1.3313   -0.0899 C.ar    1  UNL1        0.0028
     27 C          -2.7864    0.2845    0.7486 C.ar    1  UNL1       -0.0507
     28 C          -3.6867   -0.6826    1.1092 C.ar    1  UNL1       -0.0398
     29 C          -5.0131   -0.6653    0.6428 C.ar    1  UNL1        0.0348
     30 N          -5.8730   -1.7043    1.0661 N.am    1  UNL1       -0.2693
     31 C          -7.2292   -1.8962    0.7377 C.2     1  UNL1        0.3060
     32 O          -7.7885   -1.0704   -0.0205 O.2     1  UNL1       -0.2523
     33 N          -7.9745   -3.0047    1.2475 N.am    1  UNL1       -0.2915
     34 C          -7.3311   -3.9451    2.1121 C.3     1  UNL1        0.0043
     35 C          -9.3499   -3.1527    0.8832 C.3     1  UNL1        0.0043
     36 C          -5.3376    0.3699   -0.1844 C.ar    1  UNL1       -0.0398
     37 C          -4.4162    1.3478   -0.5452 C.ar    1  UNL1       -0.0507
     38 N          -2.2155    3.6858   -0.2381 N.ar    1  UNL1       -0.1706
     39 H          -2.6684    6.5779   -1.6887 H       1  UNL1        0.0247
     40 H          -1.1315    7.4530   -1.9313 H       1  UNL1        0.0247
     41 H          -1.4509    5.8834   -2.7739 H       1  UNL1        0.0247
     42 H          -1.3564    6.1436    0.2608 H       1  UNL1        0.0506
     43 H           0.1486    5.9725   -0.7140 H       1  UNL1        0.0506
     44 H           0.5585    3.5602   -1.9059 H       1  UNL1        0.0832
     45 H          -2.2165    0.5126   -3.0060 H       1  UNL1        0.0639
     46 H          -1.3750   -1.6166   -3.8074 H       1  UNL1        0.0830
     47 H           2.8880   -2.0376   -1.3535 H       1  UNL1        0.1673
     48 H           3.3363    1.7567    1.3116 H       1  UNL1        0.0624
     49 H           5.2957    1.9476    2.6889 H       1  UNL1        0.0618
     50 H           6.9797    0.1569    2.6503 H       1  UNL1        0.0621
     51 H           7.4450   -2.1609    2.2203 H       1  UNL1        0.0475
     52 H           6.5321   -3.1415    1.0597 H       1  UNL1        0.0475
     53 H           9.7990   -0.9518   -0.0495 H       1  UNL1        0.0391
     54 H           8.9284   -0.5317    1.4353 H       1  UNL1        0.0391
     55 H           8.3861    0.1114   -0.1867 H       1  UNL1        0.0391
     56 H           8.5103   -3.4583   -1.1583 H       1  UNL1        0.0391
     57 H           9.8041   -2.8820   -0.0735 H       1  UNL1        0.0391
     58 H           8.5705   -3.9610    0.6196 H       1  UNL1        0.0391
     59 H           4.6514   -1.9853   -0.1849 H       1  UNL1        0.0627
     60 H           1.6191    1.6484    0.1534 H       1  UNL1        0.0645
     61 H          -1.7809    0.2361    1.1266 H       1  UNL1        0.0625
     62 H          -3.3937   -1.5044    1.7781 H       1  UNL1        0.0636
     63 H          -5.4677   -2.4485    1.7159 H       1  UNL1        0.1564
     64 H          -6.3986   -4.3586    1.6383 H       1  UNL1        0.0429
     65 H          -6.9929   -3.5065    3.0817 H       1  UNL1        0.0429
     66 H          -7.9898   -4.8339    2.2791 H       1  UNL1        0.0429
     67 H          -9.8171   -4.0385    1.3361 H       1  UNL1        0.0429
     68 H          -9.9615   -2.2714    1.2251 H       1  UNL1        0.0429
     69 H          -9.4956   -3.1691   -0.2337 H       1  UNL1        0.0429
     70 H          -6.3596    0.4332   -0.5786 H       1  UNL1        0.0636
     71 H          -4.7083    2.1588   -1.2063 H       1  UNL1        0.0625
@<TRIPOS>BOND
     1     1     2    1
     2     2     3    1
     3     3     4   ar
     4     4     5   ar
     5     5     6    1
     6     6     7   ar
     7     7     8   ar
     8     8     9   ar
     9     9    10   ar
    10    10    11   ar
    11    11    12   ar
    12    12    13    1
    13    13    14   ar
    14    14    15   ar
    15    15    16   ar
    16    16    17   ar
    17    17    18    1
    18    18    19    1
    19    19    20    1
    20    19    21    1
    21    17    22   ar
    22    12    23   ar
    23    23    24   ar
    24     5    25   ar
    25    25    26    1
    26    26    27   ar
    27    27    28   ar
    28    28    29   ar
    29    29    30    1
    30    30    31   am
    31    31    32    2
    32    31    33   am
    33    33    34    1
    34    33    35    1
    35    29    36   ar
    36    36    37   ar
    37    25    38   ar
    38    38     3   ar
    39    24     6   ar
    40    37    26   ar
    41    24    10   ar
    42    22    13   ar
    43     1    39    1
    44     1    40    1
    45     1    41    1
    46     2    42    1
    47     2    43    1
    48     4    44    1
    49     7    45    1
    50     8    46    1
    51    11    47    1
    52    14    48    1
    53    15    49    1
    54    16    50    1
    55    18    51    1
    56    18    52    1
    57    20    53    1
    58    20    54    1
    59    20    55    1
    60    21    56    1
    61    21    57    1
    62    21    58    1
    63    22    59    1
    64    23    60    1
    65    27    61    1
    66    28    62    1
    67    30    63    1
    68    34    64    1
    69    34    65    1
    70    34    66    1
    71    35    67    1
    72    35    68    1
    73    35    69    1
    74    36    70    1
    75    37    71    1
