
     RDKit          3D

 71 75  0  0  0  0  0  0  0  0999 V2000
   -1.5785    6.4537   -1.8418 C   0  0  0  0  0  0  0  0  0  0  0  0
   -0.9382    5.7184   -0.6615 C   0  0  0  0  0  0  0  0  0  0  0  0
   -1.1629    4.2889   -0.7636 N   0  0  0  0  0  0  0  0  0  0  0  0
   -0.3755    3.3884   -1.3797 C   0  0  0  0  0  0  0  0  0  0  0  0
   -1.0122    2.1561   -1.2049 C   0  0  0  0  0  0  0  0  0  0  0  0
   -0.5316    0.8822   -1.6997 C   0  0  0  0  0  0  0  0  0  0  0  0
   -1.2698    0.1698   -2.6180 C   0  0  0  0  0  0  0  0  0  0  0  0
   -0.8073   -1.0523   -3.0909 C   0  0  0  0  0  0  0  0  0  0  0  0
    0.3581   -1.5496   -2.6605 N   0  0  0  0  0  0  0  0  0  0  0  0
    1.1090   -0.9071   -1.7781 C   0  0  0  0  0  0  0  0  0  0  0  0
    2.3048   -1.1854   -1.1899 N   0  0  0  0  0  0  0  0  0  0  0  0
    2.6449   -0.1973   -0.3519 C   0  0  0  0  0  0  0  0  0  0  0  0
    3.8458   -0.1111    0.4705 C   0  0  0  0  0  0  0  0  0  0  0  0
    4.0648    0.9688    1.2865 C   0  0  0  0  0  0  0  0  0  0  0  0
    5.1848    1.0689    2.0682 C   0  0  0  0  0  0  0  0  0  0  0  0
    6.1059    0.0465    2.0200 C   0  0  0  0  0  0  0  0  0  0  0  0
    5.9496   -1.0676    1.2227 C   0  0  0  0  0  0  0  0  0  0  0  0
    6.9606   -2.1264    1.2113 C   0  0  0  0  0  0  0  0  0  0  0  0
    7.9921   -1.9450    0.2407 N   0  0  0  0  0  0  0  0  0  0  0  0
    8.7730   -0.7597    0.3776 C   0  0  0  0  0  0  0  0  0  0  0  0
    8.7067   -3.1283   -0.1167 C   0  0  0  0  0  0  0  0  0  0  0  0
    4.7926   -1.1189    0.4477 C   0  0  0  0  0  0  0  0  0  0  0  0
    1.6312    0.7339   -0.4135 C   0  0  0  0  0  0  0  0  0  0  0  0
    0.6577    0.3141   -1.2985 C   0  0  0  0  0  0  0  0  0  0  0  0
   -2.1726    2.3660   -0.4812 C   0  0  0  0  0  0  0  0  0  0  0  0
   -3.1202    1.3313   -0.0899 C   0  0  0  0  0  0  0  0  0  0  0  0
   -2.7864    0.2845    0.7486 C   0  0  0  0  0  0  0  0  0  0  0  0
   -3.6867   -0.6826    1.1092 C   0  0  0  0  0  0  0  0  0  0  0  0
   -5.0131   -0.6653    0.6428 C   0  0  0  0  0  0  0  0  0  0  0  0
   -5.8730   -1.7043    1.0661 N   0  0  0  0  0  0  0  0  0  0  0  0
   -7.2292   -1.8962    0.7377 C   0  0  0  0  0  0  0  0  0  0  0  0
   -7.7885   -1.0704   -0.0205 O   0  0  0  0  0  0  0  0  0  0  0  0
   -7.9745   -3.0047    1.2475 N   0  0  0  0  0  0  0  0  0  0  0  0
   -7.3311   -3.9451    2.1121 C   0  0  0  0  0  0  0  0  0  0  0  0
   -9.3499   -3.1527    0.8832 C   0  0  0  0  0  0  0  0  0  0  0  0
   -5.3376    0.3699   -0.1844 C   0  0  0  0  0  0  0  0  0  0  0  0
   -4.4162    1.3478   -0.5452 C   0  0  0  0  0  0  0  0  0  0  0  0
   -2.2155    3.6858   -0.2381 N   0  0  0  0  0  0  0  0  0  0  0  0
   -2.6684    6.5779   -1.6887 H   0  0  0  0  0  0  0  0  0  0  0  0
   -1.1315    7.4530   -1.9313 H   0  0  0  0  0  0  0  0  0  0  0  0
   -1.4509    5.8834   -2.7739 H   0  0  0  0  0  0  0  0  0  0  0  0
   -1.3564    6.1436    0.2608 H   0  0  0  0  0  0  0  0  0  0  0  0
    0.1486    5.9725   -0.7140 H   0  0  0  0  0  0  0  0  0  0  0  0
    0.5585    3.5602   -1.9059 H   0  0  0  0  0  0  0  0  0  0  0  0
   -2.2165    0.5126   -3.0060 H   0  0  0  0  0  0  0  0  0  0  0  0
   -1.3750   -1.6166   -3.8074 H   0  0  0  0  0  0  0  0  0  0  0  0
    2.8880   -2.0376   -1.3535 H   0  0  0  0  0  0  0  0  0  0  0  0
    3.3363    1.7567    1.3116 H   0  0  0  0  0  0  0  0  0  0  0  0
    5.2957    1.9476    2.6889 H   0  0  0  0  0  0  0  0  0  0  0  0
    6.9797    0.1569    2.6503 H   0  0  0  0  0  0  0  0  0  0  0  0
    7.4450   -2.1609    2.2203 H   0  0  0  0  0  0  0  0  0  0  0  0
    6.5321   -3.1415    1.0597 H   0  0  0  0  0  0  0  0  0  0  0  0
    9.7990   -0.9518   -0.0495 H   0  0  0  0  0  0  0  0  0  0  0  0
    8.9284   -0.5317    1.4353 H   0  0  0  0  0  0  0  0  0  0  0  0
    8.3861    0.1114   -0.1867 H   0  0  0  0  0  0  0  0  0  0  0  0
    8.5103   -3.4583   -1.1583 H   0  0  0  0  0  0  0  0  0  0  0  0
    9.8041   -2.8820   -0.0735 H   0  0  0  0  0  0  0  0  0  0  0  0
    8.5705   -3.9610    0.6196 H   0  0  0  0  0  0  0  0  0  0  0  0
    4.6514   -1.9853   -0.1849 H   0  0  0  0  0  0  0  0  0  0  0  0
    1.6191    1.6484    0.1534 H   0  0  0  0  0  0  0  0  0  0  0  0
   -1.7809    0.2361    1.1266 H   0  0  0  0  0  0  0  0  0  0  0  0
   -3.3937   -1.5044    1.7781 H   0  0  0  0  0  0  0  0  0  0  0  0
   -5.4677   -2.4485    1.7159 H   0  0  0  0  0  0  0  0  0  0  0  0
   -6.3986   -4.3586    1.6383 H   0  0  0  0  0  0  0  0  0  0  0  0
   -6.9929   -3.5065    3.0817 H   0  0  0  0  0  0  0  0  0  0  0  0
   -7.9898   -4.8339    2.2791 H   0  0  0  0  0  0  0  0  0  0  0  0
   -9.8171   -4.0385    1.3361 H   0  0  0  0  0  0  0  0  0  0  0  0
   -9.9615   -2.2714    1.2251 H   0  0  0  0  0  0  0  0  0  0  0  0
   -9.4956   -3.1691   -0.2337 H   0  0  0  0  0  0  0  0  0  0  0  0
   -6.3596    0.4332   -0.5786 H   0  0  0  0  0  0  0  0  0  0  0  0
   -4.7083    2.1588   -1.2063 H   0  0  0  0  0  0  0  0  0  0  0  0
  1  2  1  0
  2  3  1  0
  3  4  1  0
  4  5  2  0
  5  6  1  0
  6  7  2  0
  7  8  1  0
  8  9  2  0
  9 10  1  0
 10 11  1  0
 11 12  1  0
 12 13  1  0
 13 14  2  0
 14 15  1  0
 15 16  2  0
 16 17  1  0
 17 18  1  0
 18 19  1  0
 19 20  1  0
 19 21  1  0
 17 22  2  0
 12 23  2  0
 23 24  1  0
  5 25  1  0
 25 26  1  0
 26 27  2  0
 27 28  1  0
 28 29  2  0
 29 30  1  0
 30 31  1  0
 31 32  2  0
 31 33  1  0
 33 34  1  0
 33 35  1  0
 29 36  1  0
 36 37  2  0
 25 38  2  0
 38  3  1  0
 24  6  1  0
 37 26  1  0
 24 10  2  0
 22 13  1  0
  1 39  1  0
  1 40  1  0
  1 41  1  0
  2 42  1  0
  2 43  1  0
  4 44  1  0
  7 45  1  0
  8 46  1  0
 11 47  1  0
 14 48  1  0
 15 49  1  0
 16 50  1  0
 18 51  1  0
 18 52  1  0
 20 53  1  0
 20 54  1  0
 20 55  1  0
 21 56  1  0
 21 57  1  0
 21 58  1  0
 22 59  1  0
 23 60  1  0
 27 61  1  0
 28 62  1  0
 30 63  1  0
 34 64  1  0
 34 65  1  0
 34 66  1  0
 35 67  1  0
 35 68  1  0
 35 69  1  0
 36 70  1  0
 37 71  1  0
M  END
$$$$
