@<TRIPOS>MOLECULE
*****
 47 50 0 0 0
SMALL
GASTEIGER

@<TRIPOS>ATOM
      1 C           9.0207   -1.0247   -0.3044 C.3     1  UNL1       -0.0397
      2 C           7.5579   -0.7477   -0.2558 C.ar    1  UNL1       -0.0504
      3 C           7.0162    0.4145   -0.7590 C.ar    1  UNL1       -0.0583
      4 C           5.6584    0.6367   -0.6968 C.ar    1  UNL1       -0.0538
      5 C           4.7831   -0.2672   -0.1416 C.ar    1  UNL1       -0.0179
      6 C           3.3389   -0.0137   -0.0846 C.ar    1  UNL1       -0.0178
      7 C           2.4515   -1.0338   -0.1437 C.ar    1  UNL1       -0.0523
      8 C           1.0680   -0.8080   -0.0907 C.ar    1  UNL1       -0.0399
      9 C           0.5546    0.4538    0.0230 C.ar    1  UNL1        0.0337
     10 N          -0.8132    0.7838    0.0843 N.am    1  UNL1       -0.2803
     11 C          -1.9192   -0.0638    0.0475 C.2     1  UNL1        0.2672
     12 O          -1.7124   -1.2897   -0.0530 O.2     1  UNL1       -0.2683
     13 C          -3.3356    0.3769    0.1186 C.2     1  UNL1        0.1520
     14 C          -4.2586   -0.5451    0.0714 C.2     1  UNL1        0.1532
     15 O          -3.8812   -1.9005   -0.0434 O.2     1  UNL1       -0.5040
     16 C          -5.6745   -0.2834    0.1289 C.ar    1  UNL1        0.0451
     17 C          -6.5683   -1.3543    0.0682 C.ar    1  UNL1       -0.0491
     18 C          -7.9253   -1.1533    0.1185 C.ar    1  UNL1       -0.0610
     19 C          -8.4665    0.1095    0.2307 C.ar    1  UNL1       -0.0599
     20 C          -7.5609    1.1561    0.2892 C.ar    1  UNL1       -0.0344
     21 C          -6.2333    0.9602    0.2401 C.ar    1  UNL1        0.1191
     22 S          -5.1953    2.3527    0.3234 S.O2    1  UNL1        0.0733
     23 O          -5.3375    3.0759    1.6339 O.2     1  UNL1       -0.1499
     24 O          -5.5016    3.2643   -0.8350 O.2     1  UNL1       -0.1499
     25 N          -3.5907    1.7616    0.2317 N.pl3   1  UNL1       -0.2079
     26 C           1.4950    1.4895    0.0820 C.ar    1  UNL1       -0.0399
     27 C           2.8527    1.2688    0.0301 C.ar    1  UNL1       -0.0523
     28 C           5.3248   -1.4350    0.3644 C.ar    1  UNL1       -0.0538
     29 C           6.6900   -1.6614    0.3033 C.ar    1  UNL1       -0.0583
     30 H           9.3122   -1.5390    0.6210 H       1  UNL1        0.0278
     31 H           9.5416   -0.0605   -0.4217 H       1  UNL1        0.0278
     32 H           9.2886   -1.6500   -1.1810 H       1  UNL1        0.0278
     33 H           7.6518    1.1694   -1.2106 H       1  UNL1        0.0620
     34 H           5.2747    1.5596   -1.1022 H       1  UNL1        0.0624
     35 H           2.7673   -2.0506   -0.2329 H       1  UNL1        0.0624
     36 H           0.4046   -1.6489   -0.1412 H       1  UNL1        0.0636
     37 H          -1.0403    1.8205    0.1707 H       1  UNL1        0.1552
     38 H          -4.2800   -2.4656   -0.7793 H       1  UNL1        0.2923
     39 H          -6.2294   -2.3825   -0.0205 H       1  UNL1        0.0625
     40 H          -8.5948   -2.0086    0.0689 H       1  UNL1        0.0618
     41 H          -9.5297    0.2997    0.2726 H       1  UNL1        0.0618
     42 H          -7.9654    2.1527    0.3771 H       1  UNL1        0.0637
     43 H          -2.8373    2.4542    0.2625 H       1  UNL1        0.1740
     44 H           1.1248    2.4940    0.1716 H       1  UNL1        0.0636
     45 H           3.5757    2.0750    0.0762 H       1  UNL1        0.0624
     46 H           4.6384   -2.1484    0.8020 H       1  UNL1        0.0624
     47 H           7.0596   -2.5936    0.7151 H       1  UNL1        0.0620
@<TRIPOS>BOND
     1     1     2    1
     2     2     3   ar
     3     3     4   ar
     4     4     5   ar
     5     5     6    1
     6     6     7   ar
     7     7     8   ar
     8     8     9   ar
     9     9    10    1
    10    10    11   am
    11    11    12    2
    12    11    13    1
    13    13    14    2
    14    14    15    1
    15    14    16    1
    16    16    17   ar
    17    17    18   ar
    18    18    19   ar
    19    19    20   ar
    20    20    21   ar
    21    21    22    1
    22    22    23    2
    23    22    24    2
    24    22    25    1
    25     9    26   ar
    26    26    27   ar
    27     5    28   ar
    28    28    29   ar
    29    29     2   ar
    30    27     6   ar
    31    25    13    1
    32    21    16   ar
    33     1    30    1
    34     1    31    1
    35     1    32    1
    36     3    33    1
    37     4    34    1
    38     7    35    1
    39     8    36    1
    40    10    37    1
    41    15    38    1
    42    17    39    1
    43    18    40    1
    44    19    41    1
    45    20    42    1
    46    25    43    1
    47    26    44    1
    48    27    45    1
    49    28    46    1
    50    29    47    1
