@<TRIPOS>MOLECULE
*****
 43 46 0 0 0
SMALL
GASTEIGER

@<TRIPOS>ATOM
      1 O          -4.6845    1.1613   -0.6085 O.2     1  UNL1       -0.2701
      2 C          -3.8160    0.2692   -0.7569 C.2     1  UNL1        0.2464
      3 N          -4.2700   -0.7854   -1.6091 N.am    1  UNL1       -0.3113
      4 C          -3.4887   -1.8584   -2.1822 C.3     1  UNL1        0.0122
      5 C          -2.3824   -2.3037   -1.2750 C.3     1  UNL1       -0.0320
      6 C          -1.1745   -1.3908   -1.3071 C.3     1  UNL1       -0.0101
      7 C          -1.3666   -0.3044   -0.3109 C.ar    1  UNL1        0.0320
      8 C          -2.5505    0.4118   -0.0914 C.ar    1  UNL1        0.0651
      9 C          -2.2705    1.2994    0.9002 C.ar    1  UNL1        0.0123
     10 C          -3.0790    2.2535    1.5098 C.ar    1  UNL1       -0.0518
     11 C          -2.5109    3.0297    2.5103 C.ar    1  UNL1       -0.0611
     12 C          -1.1994    2.8854    2.9077 C.ar    1  UNL1       -0.0598
     13 C          -0.3903    1.9434    2.3104 C.ar    1  UNL1       -0.0376
     14 C          -0.9638    1.1640    1.3044 C.ar    1  UNL1        0.0500
     15 N          -0.4427    0.1654    0.5333 N.ar    1  UNL1       -0.3427
     16 C           0.9041   -0.2759    0.6468 C.3     1  UNL1        0.0275
     17 C           1.8602    0.4636   -0.2596 C.3     1  UNL1       -0.0096
     18 C           3.2480   -0.0426   -0.0943 C.ar    1  UNL1       -0.0457
     19 C           4.0707    0.5405    0.8477 C.ar    1  UNL1       -0.0585
     20 C           5.3729    0.0825    1.0192 C.ar    1  UNL1       -0.0615
     21 C           5.8572   -0.9643    0.2455 C.ar    1  UNL1       -0.0617
     22 C           5.0344   -1.5472   -0.6963 C.ar    1  UNL1       -0.0615
     23 C           3.7356   -1.0914   -0.8682 C.ar    1  UNL1       -0.0585
     24 H          -5.2807   -0.8081   -1.8646 H       1  UNL1        0.1490
     25 H          -4.1593   -2.7029   -2.4001 H       1  UNL1        0.0462
     26 H          -3.1139   -1.4846   -3.1630 H       1  UNL1        0.0462
     27 H          -2.7766   -2.2655   -0.2315 H       1  UNL1        0.0284
     28 H          -2.0852   -3.3389   -1.5720 H       1  UNL1        0.0284
     29 H          -1.0001   -0.9544   -2.2994 H       1  UNL1        0.0328
     30 H          -0.3169   -2.0075   -0.9845 H       1  UNL1        0.0328
     31 H          -4.1115    2.4074    1.2379 H       1  UNL1        0.0624
     32 H          -3.1303    3.7740    2.9905 H       1  UNL1        0.0618
     33 H          -0.8209    3.5227    3.6929 H       1  UNL1        0.0618
     34 H           0.6439    1.7906    2.5853 H       1  UNL1        0.0638
     35 H           1.2089   -0.2051    1.7145 H       1  UNL1        0.0495
     36 H           0.9726   -1.3505    0.3995 H       1  UNL1        0.0495
     37 H           1.8031    1.5616   -0.1298 H       1  UNL1        0.0330
     38 H           1.5784    0.2625   -1.3137 H       1  UNL1        0.0330
     39 H           3.6678    1.3538    1.4363 H       1  UNL1        0.0620
     40 H           5.9768    0.5725    1.7698 H       1  UNL1        0.0618
     41 H           6.8782   -1.3162    0.3869 H       1  UNL1        0.0618
     42 H           5.4487   -2.3557   -1.2750 H       1  UNL1        0.0618
     43 H           3.1237   -1.5614   -1.6035 H       1  UNL1        0.0620
@<TRIPOS>BOND
     1     1     2    2
     2     2     3   am
     3     3     4    1
     4     4     5    1
     5     5     6    1
     6     6     7    1
     7     7     8   ar
     8     8     9   ar
     9     9    10   ar
    10    10    11   ar
    11    11    12   ar
    12    12    13   ar
    13    13    14   ar
    14    14    15   ar
    15    15    16    1
    16    16    17    1
    17    17    18    1
    18    18    19   ar
    19    19    20   ar
    20    20    21   ar
    21    21    22   ar
    22    22    23   ar
    23     8     2    1
    24    14     9   ar
    25    23    18   ar
    26    15     7   ar
    27     3    24    1
    28     4    25    1
    29     4    26    1
    30     5    27    1
    31     5    28    1
    32     6    29    1
    33     6    30    1
    34    10    31    1
    35    11    32    1
    36    12    33    1
    37    13    34    1
    38    16    35    1
    39    16    36    1
    40    17    37    1
    41    17    38    1
    42    19    39    1
    43    20    40    1
    44    21    41    1
    45    22    42    1
    46    23    43    1
