
     RDKit          3D

 43 46  0  0  0  0  0  0  0  0999 V2000
   -4.6845    1.1613   -0.6085 O   0  0  0  0  0  0  0  0  0  0  0  0
   -3.8160    0.2692   -0.7569 C   0  0  0  0  0  0  0  0  0  0  0  0
   -4.2700   -0.7854   -1.6091 N   0  0  0  0  0  0  0  0  0  0  0  0
   -3.4887   -1.8584   -2.1822 C   0  0  0  0  0  0  0  0  0  0  0  0
   -2.3824   -2.3037   -1.2750 C   0  0  0  0  0  0  0  0  0  0  0  0
   -1.1745   -1.3908   -1.3071 C   0  0  0  0  0  0  0  0  0  0  0  0
   -1.3666   -0.3044   -0.3109 C   0  0  0  0  0  0  0  0  0  0  0  0
   -2.5505    0.4118   -0.0914 C   0  0  0  0  0  0  0  0  0  0  0  0
   -2.2705    1.2994    0.9002 C   0  0  0  0  0  0  0  0  0  0  0  0
   -3.0790    2.2535    1.5098 C   0  0  0  0  0  0  0  0  0  0  0  0
   -2.5109    3.0297    2.5103 C   0  0  0  0  0  0  0  0  0  0  0  0
   -1.1994    2.8854    2.9077 C   0  0  0  0  0  0  0  0  0  0  0  0
   -0.3903    1.9434    2.3104 C   0  0  0  0  0  0  0  0  0  0  0  0
   -0.9638    1.1640    1.3044 C   0  0  0  0  0  0  0  0  0  0  0  0
   -0.4427    0.1654    0.5333 N   0  0  0  0  0  0  0  0  0  0  0  0
    0.9041   -0.2759    0.6468 C   0  0  0  0  0  0  0  0  0  0  0  0
    1.8602    0.4636   -0.2596 C   0  0  0  0  0  0  0  0  0  0  0  0
    3.2480   -0.0426   -0.0943 C   0  0  0  0  0  0  0  0  0  0  0  0
    4.0707    0.5405    0.8477 C   0  0  0  0  0  0  0  0  0  0  0  0
    5.3729    0.0825    1.0192 C   0  0  0  0  0  0  0  0  0  0  0  0
    5.8572   -0.9643    0.2455 C   0  0  0  0  0  0  0  0  0  0  0  0
    5.0344   -1.5472   -0.6963 C   0  0  0  0  0  0  0  0  0  0  0  0
    3.7356   -1.0914   -0.8682 C   0  0  0  0  0  0  0  0  0  0  0  0
   -5.2807   -0.8081   -1.8646 H   0  0  0  0  0  0  0  0  0  0  0  0
   -4.1593   -2.7029   -2.4001 H   0  0  0  0  0  0  0  0  0  0  0  0
   -3.1139   -1.4846   -3.1630 H   0  0  0  0  0  0  0  0  0  0  0  0
   -2.7766   -2.2655   -0.2315 H   0  0  0  0  0  0  0  0  0  0  0  0
   -2.0852   -3.3389   -1.5720 H   0  0  0  0  0  0  0  0  0  0  0  0
   -1.0001   -0.9544   -2.2994 H   0  0  0  0  0  0  0  0  0  0  0  0
   -0.3169   -2.0075   -0.9845 H   0  0  0  0  0  0  0  0  0  0  0  0
   -4.1115    2.4074    1.2379 H   0  0  0  0  0  0  0  0  0  0  0  0
   -3.1303    3.7740    2.9905 H   0  0  0  0  0  0  0  0  0  0  0  0
   -0.8209    3.5227    3.6929 H   0  0  0  0  0  0  0  0  0  0  0  0
    0.6439    1.7906    2.5853 H   0  0  0  0  0  0  0  0  0  0  0  0
    1.2089   -0.2051    1.7145 H   0  0  0  0  0  0  0  0  0  0  0  0
    0.9726   -1.3505    0.3995 H   0  0  0  0  0  0  0  0  0  0  0  0
    1.8031    1.5616   -0.1298 H   0  0  0  0  0  0  0  0  0  0  0  0
    1.5784    0.2625   -1.3137 H   0  0  0  0  0  0  0  0  0  0  0  0
    3.6678    1.3538    1.4363 H   0  0  0  0  0  0  0  0  0  0  0  0
    5.9768    0.5725    1.7698 H   0  0  0  0  0  0  0  0  0  0  0  0
    6.8782   -1.3162    0.3869 H   0  0  0  0  0  0  0  0  0  0  0  0
    5.4487   -2.3557   -1.2750 H   0  0  0  0  0  0  0  0  0  0  0  0
    3.1237   -1.5614   -1.6035 H   0  0  0  0  0  0  0  0  0  0  0  0
  1  2  2  0
  2  3  1  0
  3  4  1  0
  4  5  1  0
  5  6  1  0
  6  7  1  0
  7  8  2  0
  8  9  1  0
  9 10  2  0
 10 11  1  0
 11 12  2  0
 12 13  1  0
 13 14  2  0
 14 15  1  0
 15 16  1  0
 16 17  1  0
 17 18  1  0
 18 19  2  0
 19 20  1  0
 20 21  2  0
 21 22  1  0
 22 23  2  0
  8  2  1  0
 14  9  1  0
 23 18  1  0
 15  7  1  0
  3 24  1  0
  4 25  1  0
  4 26  1  0
  5 27  1  0
  5 28  1  0
  6 29  1  0
  6 30  1  0
 10 31  1  0
 11 32  1  0
 12 33  1  0
 13 34  1  0
 16 35  1  0
 16 36  1  0
 17 37  1  0
 17 38  1  0
 19 39  1  0
 20 40  1  0
 21 41  1  0
 22 42  1  0
 23 43  1  0
M  END
$$$$
