
     RDKit          3D

 38 41  0  0  0  0  0  0  0  0999 V2000
   -4.7512   -3.5771    0.0269 F   0  0  0  0  0  0  0  0  0  0  0  0
   -3.9991   -2.4324    0.0619 C   0  0  0  0  0  0  0  0  0  0  0  0
   -4.2975   -1.3639   -0.7610 C   0  0  0  0  0  0  0  0  0  0  0  0
   -3.5164   -0.2343   -0.6903 C   0  0  0  0  0  0  0  0  0  0  0  0
   -3.8281    0.7999   -1.5062 F   0  0  0  0  0  0  0  0  0  0  0  0
   -2.4343   -0.1000    0.1669 C   0  0  0  0  0  0  0  0  0  0  0  0
   -1.6653    1.1256    0.1843 C   0  0  0  0  0  0  0  0  0  0  0  0
   -2.0939    2.3766    0.4495 N   0  0  0  0  0  0  0  0  0  0  0  0
   -1.0474    3.2346    0.3526 C   0  0  0  0  0  0  0  0  0  0  0  0
    0.0446    2.5098    0.0222 N   0  0  0  0  0  0  0  0  0  0  0  0
    1.3424    3.0874   -0.1749 C   0  0  0  0  0  0  0  0  0  0  0  0
    2.1514    3.1594    1.0895 C   0  0  0  0  0  0  0  0  0  0  0  0
    1.4174    3.9508    1.9800 F   0  0  0  0  0  0  0  0  0  0  0  0
    3.2761    3.9418    0.7754 F   0  0  0  0  0  0  0  0  0  0  0  0
   -0.3188    1.2249   -0.0825 C   0  0  0  0  0  0  0  0  0  0  0  0
    0.5545    0.1239   -0.4333 C   0  0  0  0  0  0  0  0  0  0  0  0
    0.5269   -0.4824   -1.6769 C   0  0  0  0  0  0  0  0  0  0  0  0
    1.3653   -1.5331   -1.9723 C   0  0  0  0  0  0  0  0  0  0  0  0
    2.2576   -2.0003   -1.0117 C   0  0  0  0  0  0  0  0  0  0  0  0
    3.1827   -2.9761   -0.9792 N   0  0  0  0  0  0  0  0  0  0  0  0
    3.7780   -2.9962    0.2324 C   0  0  0  0  0  0  0  0  0  0  0  0
    3.2058   -2.0002    0.9797 C   0  0  0  0  0  0  0  0  0  0  0  0
    2.2779   -1.4096    0.1870 N   0  0  0  0  0  0  0  0  0  0  0  0
    1.4631   -0.3896    0.4715 C   0  0  0  0  0  0  0  0  0  0  0  0
   -2.1530   -1.1874    0.9848 C   0  0  0  0  0  0  0  0  0  0  0  0
   -2.9240   -2.3313    0.9302 C   0  0  0  0  0  0  0  0  0  0  0  0
   -2.5937   -3.7213    1.9523 Cl  0  0  0  0  0  0  0  0  0  0  0  0
   -5.1511   -1.4370   -1.4520 H   0  0  0  0  0  0  0  0  0  0  0  0
   -1.0803    4.2992    0.5108 H   0  0  0  0  0  0  0  0  0  0  0  0
    1.9036    2.6221   -1.0116 H   0  0  0  0  0  0  0  0  0  0  0  0
    1.2236    4.1640   -0.5093 H   0  0  0  0  0  0  0  0  0  0  0  0
    2.4574    2.2058    1.5041 H   0  0  0  0  0  0  0  0  0  0  0  0
   -0.1716   -0.1103   -2.4129 H   0  0  0  0  0  0  0  0  0  0  0  0
    1.3833   -2.0406   -2.9288 H   0  0  0  0  0  0  0  0  0  0  0  0
    4.5492   -3.6696    0.5315 H   0  0  0  0  0  0  0  0  0  0  0  0
    3.4782   -1.7738    1.9981 H   0  0  0  0  0  0  0  0  0  0  0  0
    1.5078    0.0528    1.4615 H   0  0  0  0  0  0  0  0  0  0  0  0
   -1.3209   -1.1120    1.6565 H   0  0  0  0  0  0  0  0  0  0  0  0
  1  2  1  0
  2  3  2  0
  3  4  1  0
  4  5  1  0
  4  6  2  0
  6  7  1  0
  7  8  1  0
  8  9  2  0
  9 10  1  0
 10 11  1  0
 11 12  1  0
 12 13  1  0
 12 14  1  0
 10 15  1  0
 15 16  1  0
 16 17  1  0
 17 18  2  0
 18 19  1  0
 19 20  2  0
 20 21  1  0
 21 22  2  0
 22 23  1  0
 23 24  1  0
  6 25  1  0
 25 26  2  0
 26 27  1  0
 26  2  1  0
 15  7  2  0
 24 16  2  0
 23 19  1  0
  3 28  1  0
  9 29  1  0
 11 30  1  0
 11 31  1  0
 12 32  1  0
 17 33  1  0
 18 34  1  0
 21 35  1  0
 22 36  1  0
 24 37  1  0
 25 38  1  0
M  END
$$$$
