@<TRIPOS>MOLECULE
*****
 38 41 0 0 0
SMALL
GASTEIGER

@<TRIPOS>ATOM
      1 F          -4.7512   -3.5771    0.0269 F       1  UNL1       -0.2039
      2 C          -3.9991   -2.4324    0.0619 C.ar    1  UNL1        0.1444
      3 C          -4.2975   -1.3639   -0.7610 C.ar    1  UNL1        0.0109
      4 C          -3.5164   -0.2343   -0.6903 C.ar    1  UNL1        0.1354
      5 F          -3.8281    0.7999   -1.5062 F       1  UNL1       -0.2047
      6 C          -2.4343   -0.1000    0.1669 C.ar    1  UNL1        0.0392
      7 C          -1.6653    1.1256    0.1843 C.ar    1  UNL1        0.0995
      8 N          -2.0939    2.3766    0.4495 N.ar    1  UNL1       -0.2350
      9 C          -1.0474    3.2346    0.3526 C.ar    1  UNL1        0.0972
     10 N           0.0446    2.5098    0.0222 N.ar    1  UNL1       -0.3241
     11 C           1.3424    3.0874   -0.1749 C.3     1  UNL1        0.0852
     12 C           2.1514    3.1594    1.0895 C.3     1  UNL1        0.2569
     13 F           1.4174    3.9508    1.9800 F       1  UNL1       -0.2073
     14 F           3.2761    3.9418    0.7754 F       1  UNL1       -0.2073
     15 C          -0.3188    1.2249   -0.0825 C.ar    1  UNL1        0.0781
     16 C           0.5545    0.1239   -0.4333 C.ar    1  UNL1        0.0172
     17 C           0.5269   -0.4824   -1.6769 C.ar    1  UNL1       -0.0477
     18 C           1.3653   -1.5331   -1.9723 C.ar    1  UNL1       -0.0182
     19 C           2.2576   -2.0003   -1.0117 C.ar    1  UNL1        0.1375
     20 N           3.1827   -2.9761   -0.9792 N.ar    1  UNL1       -0.2361
     21 C           3.7780   -2.9962    0.2324 C.ar    1  UNL1        0.0464
     22 C           3.2058   -2.0002    0.9797 C.ar    1  UNL1        0.0293
     23 N           2.2779   -1.4096    0.1870 N.ar    1  UNL1       -0.3060
     24 C           1.4631   -0.3896    0.4715 C.ar    1  UNL1        0.0204
     25 C          -2.1530   -1.1874    0.9848 C.ar    1  UNL1       -0.0286
     26 C          -2.9240   -2.3313    0.9302 C.ar    1  UNL1        0.0769
     27 CL         -2.5937   -3.7213    1.9523 Cl      1  UNL1       -0.0806
     28 H          -5.1511   -1.4370   -1.4520 H       1  UNL1        0.0676
     29 H          -1.0803    4.2992    0.5108 H       1  UNL1        0.1029
     30 H           1.9036    2.6221   -1.0116 H       1  UNL1        0.0548
     31 H           1.2236    4.1640   -0.5093 H       1  UNL1        0.0548
     32 H           2.4574    2.2058    1.5041 H       1  UNL1        0.1037
     33 H          -0.1716   -0.1103   -2.4129 H       1  UNL1        0.0626
     34 H           1.3833   -2.0406   -2.9288 H       1  UNL1        0.0654
     35 H           4.5492   -3.6696    0.5315 H       1  UNL1        0.0845
     36 H           3.4782   -1.7738    1.9981 H       1  UNL1        0.0829
     37 H           1.5078    0.0528    1.4615 H       1  UNL1        0.0820
     38 H          -1.3209   -1.1120    1.6565 H       1  UNL1        0.0640
@<TRIPOS>BOND
     1     1     2    1
     2     2     3   ar
     3     3     4   ar
     4     4     5    1
     5     4     6   ar
     6     6     7    1
     7     7     8   ar
     8     8     9   ar
     9     9    10   ar
    10    10    11    1
    11    11    12    1
    12    12    13    1
    13    12    14    1
    14    10    15   ar
    15    15    16    1
    16    16    17   ar
    17    17    18   ar
    18    18    19   ar
    19    19    20   ar
    20    20    21   ar
    21    21    22   ar
    22    22    23   ar
    23    23    24   ar
    24     6    25   ar
    25    25    26   ar
    26    26    27    1
    27    26     2   ar
    28    15     7   ar
    29    24    16   ar
    30    23    19   ar
    31     3    28    1
    32     9    29    1
    33    11    30    1
    34    11    31    1
    35    12    32    1
    36    17    33    1
    37    18    34    1
    38    21    35    1
    39    22    36    1
    40    24    37    1
    41    25    38    1
