@<TRIPOS>MOLECULE
*****
 69 74 0 0 0
SMALL
GASTEIGER

@<TRIPOS>ATOM
      1 C           7.1386    1.9198    1.3168 C.3     1  UNL1        0.0032
      2 N           7.7786    1.7154    0.0568 N.am    1  UNL1       -0.3024
      3 C           9.2263    1.8200    0.0138 C.3     1  UNL1        0.0032
      4 C           7.0060    1.4215   -1.0931 C.2     1  UNL1        0.2627
      5 O           7.6117    1.2485   -2.1905 O.2     1  UNL1       -0.2684
      6 C           5.5405    1.3267   -0.9815 C.ar    1  UNL1        0.1070
      7 C           4.6320    2.2974   -1.3425 C.ar    1  UNL1       -0.0209
      8 C           3.3814    1.8103   -1.0837 C.ar    1  UNL1        0.0378
      9 C           2.0880    2.2656   -1.2156 C.ar    1  UNL1        0.0419
     10 N           1.1001    1.4565   -0.8368 N.ar    1  UNL1       -0.2219
     11 C           1.2220    0.2302   -0.3340 C.ar    1  UNL1        0.2224
     12 N           0.1647   -0.6292    0.0572 N.pl3   1  UNL1       -0.2684
     13 C          -1.1919   -0.3258   -0.0656 C.ar    1  UNL1        0.1251
     14 C          -1.7371    0.8314   -0.5721 C.ar    1  UNL1       -0.0197
     15 C          -3.1107    1.0396   -0.6619 C.ar    1  UNL1       -0.0354
     16 C          -3.9469    0.0504   -0.2276 C.ar    1  UNL1        0.0578
     17 N          -5.3573    0.1470   -0.2795 N.am    1  UNL1       -0.2320
     18 C          -6.2041    0.6731    0.7523 C.3     1  UNL1        0.0630
     19 C          -7.5818    0.2603    0.3217 C.3     1  UNL1        0.1335
     20 C          -7.8783   -1.0970    0.9163 C.3     1  UNL1        0.0014
     21 C          -9.2839   -1.5416    0.5756 C.3     1  UNL1       -0.0004
     22 N         -10.2888   -0.5801    0.8945 N.3     1  UNL1       -0.3157
     23 C         -10.0213    0.7663    0.5204 C.3     1  UNL1       -0.0004
     24 C          -8.6089    1.2307    0.7980 C.3     1  UNL1        0.0014
     25 O          -7.4676    0.2069   -1.0866 O.3     1  UNL1       -0.4418
     26 C          -6.1863   -0.2656   -1.3735 C.2     1  UNL1        0.4079
     27 O          -5.7626   -0.9174   -2.3517 O.2     1  UNL1       -0.2259
     28 C          -3.3898   -1.1032    0.2781 C.ar    1  UNL1        0.0512
     29 N          -2.0716   -1.2733    0.3512 N.ar    1  UNL1       -0.2383
     30 N           2.5112   -0.2178   -0.2057 N.ar    1  UNL1       -0.1962
     31 C           3.5571    0.5452   -0.5672 C.ar    1  UNL1        0.1466
     32 N           4.8969    0.2514   -0.5062 N.ar    1  UNL1       -0.3180
     33 C           5.4573   -1.0038   -0.0148 C.3     1  UNL1        0.0366
     34 C           4.3690   -2.0620    0.0487 C.3     1  UNL1       -0.0320
     35 C           5.1952   -3.3250    0.2367 C.3     1  UNL1       -0.0511
     36 C           6.4138   -3.0907   -0.6010 C.3     1  UNL1       -0.0511
     37 C           6.4272   -1.6229   -0.9740 C.3     1  UNL1       -0.0320
     38 H           6.0531    2.0474    1.1573 H       1  UNL1        0.0428
     39 H           7.2722    0.9832    1.9212 H       1  UNL1        0.0428
     40 H           7.5853    2.7620    1.8889 H       1  UNL1        0.0428
     41 H           9.5613    2.8720    0.0680 H       1  UNL1        0.0428
     42 H           9.6208    1.3867   -0.9488 H       1  UNL1        0.0428
     43 H           9.7113    1.2649    0.8252 H       1  UNL1        0.0428
     44 H           4.8523    3.2643   -1.7531 H       1  UNL1        0.0647
     45 H           1.9520    3.2499   -1.6177 H       1  UNL1        0.0838
     46 H           0.4208   -1.5808    0.4773 H       1  UNL1        0.1564
     47 H          -1.1070    1.6118   -0.9156 H       1  UNL1        0.0652
     48 H          -3.5130    1.9512   -1.0618 H       1  UNL1        0.0638
     49 H          -6.1378    1.7861    0.8183 H       1  UNL1        0.0509
     50 H          -5.9949    0.2226    1.7383 H       1  UNL1        0.0509
     51 H          -7.7081   -1.0609    2.0014 H       1  UNL1        0.0317
     52 H          -7.1726   -1.8184    0.4596 H       1  UNL1        0.0317
     53 H          -9.2936   -1.8615   -0.4845 H       1  UNL1        0.0425
     54 H          -9.4821   -2.4551    1.1810 H       1  UNL1        0.0425
     55 H         -10.8055   -0.7294    1.7655 H       1  UNL1        0.1219
     56 H         -10.7026    1.4342    1.1000 H       1  UNL1        0.0425
     57 H         -10.2599    0.8849   -0.5614 H       1  UNL1        0.0425
     58 H          -8.4917    2.2059    0.2742 H       1  UNL1        0.0317
     59 H          -8.4849    1.3410    1.8974 H       1  UNL1        0.0317
     60 H          -4.0313   -1.9259    0.6392 H       1  UNL1        0.0849
     61 H           5.8559   -0.9033    1.0107 H       1  UNL1        0.0528
     62 H           3.7761   -2.1091   -0.8856 H       1  UNL1        0.0285
     63 H           3.7578   -1.8787    0.9501 H       1  UNL1        0.0285
     64 H           5.4011   -3.4108    1.3210 H       1  UNL1        0.0266
     65 H           4.5939   -4.1904   -0.1283 H       1  UNL1        0.0266
     66 H           6.3221   -3.7152   -1.5156 H       1  UNL1        0.0266
     67 H           7.3006   -3.3856   -0.0063 H       1  UNL1        0.0266
     68 H           7.4511   -1.2500   -0.8855 H       1  UNL1        0.0285
     69 H           6.0681   -1.4522   -2.0015 H       1  UNL1        0.0285
@<TRIPOS>BOND
     1     1     2    1
     2     2     3    1
     3     2     4   am
     4     4     5    2
     5     4     6    1
     6     6     7   ar
     7     7     8   ar
     8     8     9   ar
     9     9    10   ar
    10    10    11   ar
    11    11    12    1
    12    12    13    1
    13    13    14   ar
    14    14    15   ar
    15    15    16   ar
    16    16    17    1
    17    17    18    1
    18    18    19    1
    19    19    20    1
    20    20    21    1
    21    21    22    1
    22    22    23    1
    23    23    24    1
    24    19    25    1
    25    25    26    1
    26    26    27    2
    27    16    28   ar
    28    28    29   ar
    29    11    30   ar
    30    30    31   ar
    31    31    32   ar
    32    32    33    1
    33    33    34    1
    34    34    35    1
    35    35    36    1
    36    36    37    1
    37    32     6   ar
    38    37    33    1
    39    31     8   ar
    40    29    13   ar
    41    26    17   am
    42    24    19    1
    43     1    38    1
    44     1    39    1
    45     1    40    1
    46     3    41    1
    47     3    42    1
    48     3    43    1
    49     7    44    1
    50     9    45    1
    51    12    46    1
    52    14    47    1
    53    15    48    1
    54    18    49    1
    55    18    50    1
    56    20    51    1
    57    20    52    1
    58    21    53    1
    59    21    54    1
    60    22    55    1
    61    23    56    1
    62    23    57    1
    63    24    58    1
    64    24    59    1
    65    28    60    1
    66    33    61    1
    67    34    62    1
    68    34    63    1
    69    35    64    1
    70    35    65    1
    71    36    66    1
    72    36    67    1
    73    37    68    1
    74    37    69    1
