
     RDKit          3D

 69 74  0  0  0  0  0  0  0  0999 V2000
    7.1386    1.9198    1.3168 C   0  0  0  0  0  0  0  0  0  0  0  0
    7.7786    1.7154    0.0568 N   0  0  0  0  0  0  0  0  0  0  0  0
    9.2263    1.8200    0.0138 C   0  0  0  0  0  0  0  0  0  0  0  0
    7.0060    1.4215   -1.0931 C   0  0  0  0  0  0  0  0  0  0  0  0
    7.6117    1.2485   -2.1905 O   0  0  0  0  0  0  0  0  0  0  0  0
    5.5405    1.3267   -0.9815 C   0  0  0  0  0  0  0  0  0  0  0  0
    4.6320    2.2974   -1.3425 C   0  0  0  0  0  0  0  0  0  0  0  0
    3.3814    1.8103   -1.0837 C   0  0  0  0  0  0  0  0  0  0  0  0
    2.0880    2.2656   -1.2156 C   0  0  0  0  0  0  0  0  0  0  0  0
    1.1001    1.4565   -0.8368 N   0  0  0  0  0  0  0  0  0  0  0  0
    1.2220    0.2302   -0.3340 C   0  0  0  0  0  0  0  0  0  0  0  0
    0.1647   -0.6292    0.0572 N   0  0  0  0  0  0  0  0  0  0  0  0
   -1.1919   -0.3258   -0.0656 C   0  0  0  0  0  0  0  0  0  0  0  0
   -1.7371    0.8314   -0.5721 C   0  0  0  0  0  0  0  0  0  0  0  0
   -3.1107    1.0396   -0.6619 C   0  0  0  0  0  0  0  0  0  0  0  0
   -3.9469    0.0504   -0.2276 C   0  0  0  0  0  0  0  0  0  0  0  0
   -5.3573    0.1470   -0.2795 N   0  0  0  0  0  0  0  0  0  0  0  0
   -6.2041    0.6731    0.7523 C   0  0  0  0  0  0  0  0  0  0  0  0
   -7.5818    0.2603    0.3217 C   0  0  0  0  0  0  0  0  0  0  0  0
   -7.8783   -1.0970    0.9163 C   0  0  0  0  0  0  0  0  0  0  0  0
   -9.2839   -1.5416    0.5756 C   0  0  0  0  0  0  0  0  0  0  0  0
  -10.2888   -0.5801    0.8945 N   0  0  0  0  0  0  0  0  0  0  0  0
  -10.0213    0.7663    0.5204 C   0  0  0  0  0  0  0  0  0  0  0  0
   -8.6089    1.2307    0.7980 C   0  0  0  0  0  0  0  0  0  0  0  0
   -7.4676    0.2069   -1.0866 O   0  0  0  0  0  0  0  0  0  0  0  0
   -6.1863   -0.2656   -1.3735 C   0  0  0  0  0  0  0  0  0  0  0  0
   -5.7626   -0.9174   -2.3517 O   0  0  0  0  0  0  0  0  0  0  0  0
   -3.3898   -1.1032    0.2781 C   0  0  0  0  0  0  0  0  0  0  0  0
   -2.0716   -1.2733    0.3512 N   0  0  0  0  0  0  0  0  0  0  0  0
    2.5112   -0.2178   -0.2057 N   0  0  0  0  0  0  0  0  0  0  0  0
    3.5571    0.5452   -0.5672 C   0  0  0  0  0  0  0  0  0  0  0  0
    4.8969    0.2514   -0.5062 N   0  0  0  0  0  0  0  0  0  0  0  0
    5.4573   -1.0038   -0.0148 C   0  0  0  0  0  0  0  0  0  0  0  0
    4.3690   -2.0620    0.0487 C   0  0  0  0  0  0  0  0  0  0  0  0
    5.1952   -3.3250    0.2367 C   0  0  0  0  0  0  0  0  0  0  0  0
    6.4138   -3.0907   -0.6010 C   0  0  0  0  0  0  0  0  0  0  0  0
    6.4272   -1.6229   -0.9740 C   0  0  0  0  0  0  0  0  0  0  0  0
    6.0531    2.0474    1.1573 H   0  0  0  0  0  0  0  0  0  0  0  0
    7.2722    0.9832    1.9212 H   0  0  0  0  0  0  0  0  0  0  0  0
    7.5853    2.7620    1.8889 H   0  0  0  0  0  0  0  0  0  0  0  0
    9.5613    2.8720    0.0680 H   0  0  0  0  0  0  0  0  0  0  0  0
    9.6208    1.3867   -0.9488 H   0  0  0  0  0  0  0  0  0  0  0  0
    9.7113    1.2649    0.8252 H   0  0  0  0  0  0  0  0  0  0  0  0
    4.8523    3.2643   -1.7531 H   0  0  0  0  0  0  0  0  0  0  0  0
    1.9520    3.2499   -1.6177 H   0  0  0  0  0  0  0  0  0  0  0  0
    0.4208   -1.5808    0.4773 H   0  0  0  0  0  0  0  0  0  0  0  0
   -1.1070    1.6118   -0.9156 H   0  0  0  0  0  0  0  0  0  0  0  0
   -3.5130    1.9512   -1.0618 H   0  0  0  0  0  0  0  0  0  0  0  0
   -6.1378    1.7861    0.8183 H   0  0  0  0  0  0  0  0  0  0  0  0
   -5.9949    0.2226    1.7383 H   0  0  0  0  0  0  0  0  0  0  0  0
   -7.7081   -1.0609    2.0014 H   0  0  0  0  0  0  0  0  0  0  0  0
   -7.1726   -1.8184    0.4596 H   0  0  0  0  0  0  0  0  0  0  0  0
   -9.2936   -1.8615   -0.4845 H   0  0  0  0  0  0  0  0  0  0  0  0
   -9.4821   -2.4551    1.1810 H   0  0  0  0  0  0  0  0  0  0  0  0
  -10.8055   -0.7294    1.7655 H   0  0  0  0  0  0  0  0  0  0  0  0
  -10.7026    1.4342    1.1000 H   0  0  0  0  0  0  0  0  0  0  0  0
  -10.2599    0.8849   -0.5614 H   0  0  0  0  0  0  0  0  0  0  0  0
   -8.4917    2.2059    0.2742 H   0  0  0  0  0  0  0  0  0  0  0  0
   -8.4849    1.3410    1.8974 H   0  0  0  0  0  0  0  0  0  0  0  0
   -4.0313   -1.9259    0.6392 H   0  0  0  0  0  0  0  0  0  0  0  0
    5.8559   -0.9033    1.0107 H   0  0  0  0  0  0  0  0  0  0  0  0
    3.7761   -2.1091   -0.8856 H   0  0  0  0  0  0  0  0  0  0  0  0
    3.7578   -1.8787    0.9501 H   0  0  0  0  0  0  0  0  0  0  0  0
    5.4011   -3.4108    1.3210 H   0  0  0  0  0  0  0  0  0  0  0  0
    4.5939   -4.1904   -0.1283 H   0  0  0  0  0  0  0  0  0  0  0  0
    6.3221   -3.7152   -1.5156 H   0  0  0  0  0  0  0  0  0  0  0  0
    7.3006   -3.3856   -0.0063 H   0  0  0  0  0  0  0  0  0  0  0  0
    7.4511   -1.2500   -0.8855 H   0  0  0  0  0  0  0  0  0  0  0  0
    6.0681   -1.4522   -2.0015 H   0  0  0  0  0  0  0  0  0  0  0  0
  1  2  1  0
  2  3  1  0
  2  4  1  0
  4  5  2  0
  4  6  1  0
  6  7  2  0
  7  8  1  0
  8  9  2  0
  9 10  1  0
 10 11  2  0
 11 12  1  0
 12 13  1  0
 13 14  2  0
 14 15  1  0
 15 16  2  0
 16 17  1  0
 17 18  1  0
 18 19  1  0
 19 20  1  0
 20 21  1  0
 21 22  1  0
 22 23  1  0
 23 24  1  0
 19 25  1  0
 25 26  1  0
 26 27  2  0
 16 28  1  0
 28 29  2  0
 11 30  1  0
 30 31  2  0
 31 32  1  0
 32 33  1  0
 33 34  1  0
 34 35  1  0
 35 36  1  0
 36 37  1  0
 32  6  1  0
 37 33  1  0
 31  8  1  0
 29 13  1  0
 26 17  1  0
 24 19  1  0
  1 38  1  0
  1 39  1  0
  1 40  1  0
  3 41  1  0
  3 42  1  0
  3 43  1  0
  7 44  1  0
  9 45  1  0
 12 46  1  0
 14 47  1  0
 15 48  1  0
 18 49  1  0
 18 50  1  0
 20 51  1  0
 20 52  1  0
 21 53  1  0
 21 54  1  0
 22 55  1  0
 23 56  1  0
 23 57  1  0
 24 58  1  0
 24 59  1  0
 28 60  1  0
 33 61  1  0
 34 62  1  0
 34 63  1  0
 35 64  1  0
 35 65  1  0
 36 66  1  0
 36 67  1  0
 37 68  1  0
 37 69  1  0
M  END
$$$$
