
     RDKit          3D

 53 56  0  0  0  0  0  0  0  0999 V2000
    5.7559   -2.0821    1.1039 C   0  0  0  0  0  0  0  0  0  0  0  0
    6.1591   -0.6520    0.9155 C   0  0  0  0  0  0  0  0  0  0  0  0
    7.4025   -0.2238    1.3681 C   0  0  0  0  0  0  0  0  0  0  0  0
    7.7726    1.0906    1.1947 C   0  0  0  0  0  0  0  0  0  0  0  0
    9.3399    1.6788    1.7527 Cl  0  0  0  0  0  0  0  0  0  0  0  0
    6.9009    1.9546    0.5753 C   0  0  0  0  0  0  0  0  0  0  0  0
    5.7090    1.4964    0.1537 N   0  0  0  0  0  0  0  0  0  0  0  0
    5.2977    0.2282    0.2965 C   0  0  0  0  0  0  0  0  0  0  0  0
    3.9881   -0.2241   -0.1800 C   0  0  0  0  0  0  0  0  0  0  0  0
    3.6027   -1.4101   -0.0471 O   0  0  0  0  0  0  0  0  0  0  0  0
    3.0838    0.6684   -0.8214 N   0  0  0  0  0  0  0  0  0  0  0  0
    1.7989    0.2258   -1.2892 C   0  0  0  0  0  0  0  0  0  0  0  0
    1.6099   -0.2688   -2.5627 C   0  0  0  0  0  0  0  0  0  0  0  0
    0.3946   -0.7012   -3.0437 C   0  0  0  0  0  0  0  0  0  0  0  0
   -0.7013   -0.6397   -2.2112 C   0  0  0  0  0  0  0  0  0  0  0  0
   -1.9314   -1.0367   -2.5839 F   0  0  0  0  0  0  0  0  0  0  0  0
   -0.5459   -0.1511   -0.9343 C   0  0  0  0  0  0  0  0  0  0  0  0
   -1.7556   -0.0846   -0.0181 C   0  0  2  0  0  0  0  0  0  0  0  0
   -1.3290    0.6610    1.2574 C   0  0  0  0  0  0  0  0  0  0  0  0
   -2.2069   -1.4388    0.3692 C   0  0  0  0  0  0  0  0  0  0  0  0
   -3.9704   -1.5729    0.2964 S   0  0  0  0  0  6  0  0  0  0  0  0
   -4.5169   -2.3613    1.4633 O   0  0  0  0  0  0  0  0  0  0  0  0
   -4.3069   -2.3291   -0.9754 O   0  0  0  0  0  0  0  0  0  0  0  0
   -4.6776    0.0241    0.2626 C   0  0  0  0  0  0  0  0  0  0  0  0
   -6.1219   -0.0529   -0.1679 C   0  0  0  0  0  0  0  0  0  0  0  0
   -6.4700    0.8790    0.9715 C   0  0  0  0  0  0  0  0  0  0  0  0
   -6.5679    2.2006    0.5830 F   0  0  0  0  0  0  0  0  0  0  0  0
   -7.5276    0.4425    1.7485 F   0  0  0  0  0  0  0  0  0  0  0  0
   -5.1081    0.6015    1.5651 C   0  0  0  0  0  0  0  0  0  0  0  0
   -3.9076    0.8921   -0.6518 C   0  0  0  0  0  0  0  0  0  0  0  0
   -4.6237    1.8542   -1.4582 N   0  0  0  0  0  0  0  0  0  0  0  0
   -2.6597    0.7632   -0.6946 N   0  0  0  0  0  0  0  0  0  0  0  0
    0.6758    0.2784   -0.4654 C   0  0  0  0  0  0  0  0  0  0  0  0
    4.8613   -2.1820    1.7524 H   0  0  0  0  0  0  0  0  0  0  0  0
    5.6375   -2.5319    0.0986 H   0  0  0  0  0  0  0  0  0  0  0  0
    6.5800   -2.5928    1.6120 H   0  0  0  0  0  0  0  0  0  0  0  0
    8.0799   -0.8940    1.8492 H   0  0  0  0  0  0  0  0  0  0  0  0
    7.1922    3.0021    0.4354 H   0  0  0  0  0  0  0  0  0  0  0  0
    3.4049    1.6592   -0.9328 H   0  0  0  0  0  0  0  0  0  0  0  0
    2.4880   -0.3118   -3.2122 H   0  0  0  0  0  0  0  0  0  0  0  0
    0.2745   -1.0897   -4.0610 H   0  0  0  0  0  0  0  0  0  0  0  0
   -0.6069    0.0632    1.8475 H   0  0  0  0  0  0  0  0  0  0  0  0
   -2.2512    0.8403    1.8317 H   0  0  0  0  0  0  0  0  0  0  0  0
   -0.9268    1.6336    0.9128 H   0  0  0  0  0  0  0  0  0  0  0  0
   -1.9475   -1.6241    1.4551 H   0  0  0  0  0  0  0  0  0  0  0  0
   -1.7252   -2.2534   -0.2584 H   0  0  0  0  0  0  0  0  0  0  0  0
   -6.5697   -1.0654    0.0338 H   0  0  0  0  0  0  0  0  0  0  0  0
   -6.3272    0.3419   -1.1611 H   0  0  0  0  0  0  0  0  0  0  0  0
   -5.2090   -0.1948    2.3378 H   0  0  0  0  0  0  0  0  0  0  0  0
   -4.5635    1.4912    1.9329 H   0  0  0  0  0  0  0  0  0  0  0  0
   -4.6988    2.8536   -1.2465 H   0  0  0  0  0  0  0  0  0  0  0  0
   -5.0845    1.4760   -2.3075 H   0  0  0  0  0  0  0  0  0  0  0  0
    0.8288    0.6685    0.5365 H   0  0  0  0  0  0  0  0  0  0  0  0
  1  2  1  0
  2  3  2  0
  3  4  1  0
  4  5  1  0
  4  6  2  0
  6  7  1  0
  7  8  2  0
  8  9  1  0
  9 10  2  0
  9 11  1  0
 11 12  1  0
 12 13  2  0
 13 14  1  0
 14 15  2  0
 15 16  1  0
 15 17  1  0
 17 18  1  0
 18 19  1  1
 18 20  1  0
 20 21  1  0
 21 22  2  0
 21 23  2  0
 21 24  1  0
 24 25  1  0
 25 26  1  0
 26 27  1  0
 26 28  1  0
 26 29  1  0
 24 30  1  0
 30 31  1  0
 30 32  2  0
 17 33  2  0
  8  2  1  0
 33 12  1  0
 32 18  1  0
 29 24  1  0
  1 34  1  0
  1 35  1  0
  1 36  1  0
  3 37  1  0
  6 38  1  0
 11 39  1  0
 13 40  1  0
 14 41  1  0
 19 42  1  0
 19 43  1  0
 19 44  1  0
 20 45  1  0
 20 46  1  0
 25 47  1  0
 25 48  1  0
 29 49  1  0
 29 50  1  0
 31 51  1  0
 31 52  1  0
 33 53  1  0
M  END
$$$$
