@<TRIPOS>MOLECULE
*****
 53 56 0 0 0
SMALL
GASTEIGER

@<TRIPOS>ATOM
      1 C           5.7559   -2.0821    1.1039 C.3     1  UNL1       -0.0375
      2 C           6.1591   -0.6520    0.9155 C.ar    1  UNL1       -0.0186
      3 C           7.4025   -0.2238    1.3681 C.ar    1  UNL1       -0.0368
      4 C           7.7726    1.0906    1.1947 C.ar    1  UNL1        0.0593
      5 CL          9.3399    1.6788    1.7527 Cl      1  UNL1       -0.0820
      6 C           6.9009    1.9546    0.5753 C.ar    1  UNL1        0.0467
      7 N           5.7090    1.4964    0.1537 N.ar    1  UNL1       -0.2486
      8 C           5.2977    0.2282    0.2965 C.ar    1  UNL1        0.1286
      9 C           3.9881   -0.2241   -0.1800 C.2     1  UNL1        0.2668
     10 O           3.6027   -1.4101   -0.0471 O.2     1  UNL1       -0.2682
     11 N           3.0838    0.6684   -0.8214 N.am    1  UNL1       -0.2802
     12 C           1.7989    0.2258   -1.2892 C.ar    1  UNL1        0.0343
     13 C           1.6099   -0.2688   -2.5627 C.ar    1  UNL1       -0.0377
     14 C           0.3946   -0.7012   -3.0437 C.ar    1  UNL1       -0.0243
     15 C          -0.7013   -0.6397   -2.2112 C.ar    1  UNL1        0.1311
     16 F          -1.9314   -1.0367   -2.5839 F       1  UNL1       -0.2050
     17 C          -0.5459   -0.1511   -0.9343 C.ar    1  UNL1        0.0420
     18 C          -1.7556   -0.0846   -0.0181 C.3     1  UNL1        0.1959
     19 C          -1.3290    0.6610    1.2574 C.3     1  UNL1       -0.0112
     20 C          -2.2069   -1.4388    0.3692 C.3     1  UNL1        0.1184
     21 S          -3.9704   -1.5729    0.2964 S.O2    1  UNL1       -0.0091
     22 O          -4.5169   -2.3613    1.4633 O.2     1  UNL1       -0.1731
     23 O          -4.3069   -2.3291   -0.9754 O.2     1  UNL1       -0.1731
     24 C          -4.6776    0.0241    0.2626 C.3     1  UNL1        0.1993
     25 C          -6.1219   -0.0529   -0.1679 C.3     1  UNL1        0.0474
     26 C          -6.4700    0.8790    0.9715 C.3     1  UNL1        0.2541
     27 F          -6.5679    2.2006    0.5830 F       1  UNL1       -0.2055
     28 F          -7.5276    0.4425    1.7485 F       1  UNL1       -0.2055
     29 C          -5.1081    0.6015    1.5651 C.3     1  UNL1        0.0474
     30 C          -3.9076    0.8921   -0.6518 C.2     1  UNL1        0.3076
     31 N          -4.6237    1.8542   -1.4582 N.pl3   1  UNL1       -0.2488
     32 N          -2.6597    0.7632   -0.6946 N.2     1  UNL1       -0.0727
     33 C           0.6758    0.2784   -0.4654 C.ar    1  UNL1       -0.0301
     34 H           4.8613   -2.1820    1.7524 H       1  UNL1        0.0278
     35 H           5.6375   -2.5319    0.0986 H       1  UNL1        0.0278
     36 H           6.5800   -2.5928    1.6120 H       1  UNL1        0.0278
     37 H           8.0799   -0.8940    1.8492 H       1  UNL1        0.0636
     38 H           7.1922    3.0021    0.4354 H       1  UNL1        0.0844
     39 H           3.4049    1.6592   -0.9328 H       1  UNL1        0.1552
     40 H           2.4880   -0.3118   -3.2122 H       1  UNL1        0.0637
     41 H           0.2745   -1.0897   -4.0610 H       1  UNL1        0.0647
     42 H          -0.6069    0.0632    1.8475 H       1  UNL1        0.0279
     43 H          -2.2512    0.8403    1.8317 H       1  UNL1        0.0279
     44 H          -0.9268    1.6336    0.9128 H       1  UNL1        0.0279
     45 H          -1.9475   -1.6241    1.4551 H       1  UNL1        0.0550
     46 H          -1.7252   -2.2534   -0.2584 H       1  UNL1        0.0550
     47 H          -6.5697   -1.0654    0.0338 H       1  UNL1        0.0350
     48 H          -6.3272    0.3419   -1.1611 H       1  UNL1        0.0350
     49 H          -5.2090   -0.1948    2.3378 H       1  UNL1        0.0350
     50 H          -4.5635    1.4912    1.9329 H       1  UNL1        0.0350
     51 H          -4.6988    2.8536   -1.2465 H       1  UNL1        0.2881
     52 H          -5.0845    1.4760   -2.3075 H       1  UNL1        0.2881
     53 H           0.8288    0.6685    0.5365 H       1  UNL1        0.0641
@<TRIPOS>BOND
     1     1     2    1
     2     2     3   ar
     3     3     4   ar
     4     4     5    1
     5     4     6   ar
     6     6     7   ar
     7     7     8   ar
     8     8     9    1
     9     9    10    2
    10     9    11   am
    11    11    12    1
    12    12    13   ar
    13    13    14   ar
    14    14    15   ar
    15    15    16    1
    16    15    17   ar
    17    17    18    1
    18    18    19    1
    19    18    20    1
    20    20    21    1
    21    21    22    2
    22    21    23    2
    23    21    24    1
    24    24    25    1
    25    25    26    1
    26    26    27    1
    27    26    28    1
    28    26    29    1
    29    24    30    1
    30    30    31    1
    31    30    32    2
    32    17    33   ar
    33     8     2   ar
    34    33    12   ar
    35    32    18    1
    36    29    24    1
    37     1    34    1
    38     1    35    1
    39     1    36    1
    40     3    37    1
    41     6    38    1
    42    11    39    1
    43    13    40    1
    44    14    41    1
    45    19    42    1
    46    19    43    1
    47    19    44    1
    48    20    45    1
    49    20    46    1
    50    25    47    1
    51    25    48    1
    52    29    49    1
    53    29    50    1
    54    31    51    1
    55    31    52    1
    56    33    53    1
