@<TRIPOS>MOLECULE
*****
 44 46 0 0 0
SMALL
GASTEIGER

@<TRIPOS>ATOM
      1 O           5.8216    0.5622   -1.2946 O.2     1  UNL1       -0.2737
      2 C           5.2815    0.9178   -0.1920 C.2     1  UNL1        0.2354
      3 C           3.8194    1.1453   -0.1000 C.3     1  UNL1        0.0259
      4 C           3.0602    0.8578   -1.3549 C.3     1  UNL1       -0.0447
      5 C           3.1263   -0.5376   -1.8366 C.3     1  UNL1       -0.0526
      6 C           2.6954   -1.6469   -0.9797 C.3     1  UNL1       -0.0514
      7 C           1.3076   -1.7404   -0.4838 C.3     1  UNL1       -0.0334
      8 C           0.8431   -0.6634    0.4159 C.3     1  UNL1        0.0415
      9 N          -0.5476   -0.8887    0.8508 N.ar    1  UNL1       -0.2708
     10 C          -1.6921   -0.4846    0.2929 C.ar    1  UNL1        0.0347
     11 C          -2.7405   -0.9485    1.0704 C.ar    1  UNL1        0.0385
     12 C          -4.1724   -0.7580    0.8596 C.ar    1  UNL1        0.0863
     13 N          -5.0569   -1.7607    0.9824 N.ar    1  UNL1       -0.2346
     14 C          -6.3798   -1.5903    0.7889 C.ar    1  UNL1        0.1189
     15 N          -6.8384   -0.3623    0.4580 N.ar    1  UNL1       -0.2179
     16 C          -6.0260    0.6998    0.3134 C.ar    1  UNL1        0.1419
     17 N          -6.2587    1.9856   -0.0041 N.ar    1  UNL1       -0.3457
     18 C          -5.0778    2.6282   -0.0108 C.ar    1  UNL1        0.0042
     19 C          -4.0720    1.7122    0.3138 C.ar    1  UNL1       -0.0330
     20 C          -4.6684    0.4900    0.5197 C.ar    1  UNL1        0.0447
     21 C          -2.1512   -1.6363    2.0988 C.ar    1  UNL1        0.0586
     22 N          -0.8386   -1.5760    1.9295 N.ar    1  UNL1       -0.1790
     23 N           6.0931    1.0974    0.9608 N.am    1  UNL1       -0.1975
     24 O           7.4195    0.9044    0.9301 O.3     1  UNL1       -0.2952
     25 H           3.7085    2.2484    0.1257 H       1  UNL1        0.0359
     26 H           3.3942    0.6351    0.7993 H       1  UNL1        0.0359
     27 H           2.0965    1.3837   -1.4572 H       1  UNL1        0.0270
     28 H           3.6870    1.4465   -2.1603 H       1  UNL1        0.0270
     29 H           4.1789   -0.7463   -2.1556 H       1  UNL1        0.0265
     30 H           2.5375   -0.6403   -2.8079 H       1  UNL1        0.0265
     31 H           2.9613   -2.6063   -1.5335 H       1  UNL1        0.0266
     32 H           3.4446   -1.7056   -0.1041 H       1  UNL1        0.0266
     33 H           1.1547   -2.7601   -0.0495 H       1  UNL1        0.0283
     34 H           0.6116   -1.7594   -1.3897 H       1  UNL1        0.0283
     35 H           0.8640    0.3545    0.0618 H       1  UNL1        0.0509
     36 H           1.4726   -0.6807    1.3486 H       1  UNL1        0.0509
     37 H          -1.7815    0.0988   -0.6033 H       1  UNL1        0.0833
     38 H          -7.0401   -2.4424    0.9040 H       1  UNL1        0.1048
     39 H          -7.1631    2.4607   -0.2173 H       1  UNL1        0.1668
     40 H          -4.8523    3.6654   -0.2184 H       1  UNL1        0.0807
     41 H          -3.0201    1.8941    0.3961 H       1  UNL1        0.0640
     42 H          -2.6651   -2.1323    2.8949 H       1  UNL1        0.0854
     43 H           5.6412    1.3847    1.8433 H       1  UNL1        0.1822
     44 H           7.8224    1.4946    0.2278 H       1  UNL1        0.2414
@<TRIPOS>BOND
     1     1     2    2
     2     2     3    1
     3     3     4    1
     4     4     5    1
     5     5     6    1
     6     6     7    1
     7     7     8    1
     8     8     9    1
     9     9    10   ar
    10    10    11   ar
    11    11    12    1
    12    12    13   ar
    13    13    14   ar
    14    14    15   ar
    15    15    16   ar
    16    16    17   ar
    17    17    18   ar
    18    18    19   ar
    19    19    20   ar
    20    11    21   ar
    21    21    22   ar
    22     2    23   am
    23    23    24    1
    24    22     9   ar
    25    20    12   ar
    26    20    16   ar
    27     3    25    1
    28     3    26    1
    29     4    27    1
    30     4    28    1
    31     5    29    1
    32     5    30    1
    33     6    31    1
    34     6    32    1
    35     7    33    1
    36     7    34    1
    37     8    35    1
    38     8    36    1
    39    10    37    1
    40    14    38    1
    41    17    39    1
    42    18    40    1
    43    19    41    1
    44    21    42    1
    45    23    43    1
    46    24    44    1
