@<TRIPOS>MOLECULE
*****
 42 42 0 0 0
SMALL
GASTEIGER

@<TRIPOS>ATOM
      1 C           5.1083    1.6416    0.6810 C.3     1  UNL1       -0.0524
      2 C           4.0863    1.1170   -0.3066 C.3     1  UNL1       -0.0039
      3 N           3.4504   -0.0387    0.2076 N.3     1  UNL1       -0.3011
      4 C           4.1702   -1.2107    0.3512 C.3     1  UNL1       -0.0039
      5 C           4.6061   -1.8846   -0.9304 C.3     1  UNL1       -0.0524
      6 C           2.0911    0.0536    0.5284 C.3     1  UNL1        0.0185
      7 C           1.1726    0.2203   -0.6784 C.3     1  UNL1        0.0561
      8 N          -0.1724    0.3320   -0.2421 N.2     1  UNL1       -0.2491
      9 C          -1.2408   -0.1213   -0.7563 C.2     1  UNL1        0.2188
     10 O          -1.2957   -0.8636   -1.9213 O.2     1  UNL1       -0.4921
     11 C          -2.4783    0.2062   -0.0071 C.ar    1  UNL1        0.0787
     12 C          -3.7369   -0.2042   -0.4136 C.ar    1  UNL1        0.1341
     13 O          -3.7124   -0.9357   -1.5764 O.3     1  UNL1       -0.4943
     14 C          -4.8968   -1.4377   -2.1431 C.3     1  UNL1        0.0788
     15 C          -4.8123    0.1638    0.3748 C.ar    1  UNL1        0.0025
     16 C          -4.6555    0.9094    1.5225 C.ar    1  UNL1        0.0422
     17 N          -5.8001    1.2515    2.2836 N.pl3   1  UNL1       -0.3570
     18 C          -3.4161    1.3221    1.9385 C.ar    1  UNL1        0.0394
     19 BR         -3.2252    2.3558    3.5350 Br      1  UNL1       -0.0484
     20 C          -2.3082    0.9650    1.1604 C.ar    1  UNL1       -0.0302
     21 H           5.5370    2.5578    0.2029 H       1  UNL1        0.0242
     22 H           4.5605    2.0497    1.5705 H       1  UNL1        0.0242
     23 H           5.8395    0.8903    0.9626 H       1  UNL1        0.0242
     24 H           3.2841    1.9183   -0.3355 H       1  UNL1        0.0424
     25 H           4.4528    1.0547   -1.3336 H       1  UNL1        0.0424
     26 H           3.6015   -1.9570    0.9393 H       1  UNL1        0.0424
     27 H           5.0949   -1.0040    0.9685 H       1  UNL1        0.0424
     28 H           3.7365   -2.2466   -1.5118 H       1  UNL1        0.0242
     29 H           5.1870   -2.7881   -0.6314 H       1  UNL1        0.0242
     30 H           5.3001   -1.2572   -1.5327 H       1  UNL1        0.0242
     31 H           1.7884   -0.8861    1.0596 H       1  UNL1        0.0445
     32 H           1.8930    0.8810    1.2221 H       1  UNL1        0.0445
     33 H           1.4890    1.1347   -1.2139 H       1  UNL1        0.0522
     34 H           1.3590   -0.6168   -1.3824 H       1  UNL1        0.0522
     35 H          -0.4509   -1.3517   -2.2699 H       1  UNL1        0.2937
     36 H          -5.8154   -0.9875   -1.7231 H       1  UNL1        0.0660
     37 H          -5.0190   -2.5445   -1.9884 H       1  UNL1        0.0660
     38 H          -4.9282   -1.2157   -3.2497 H       1  UNL1        0.0660
     39 H          -5.7866   -0.1498    0.0667 H       1  UNL1        0.0673
     40 H          -6.1232    1.1645    3.2715 H       1  UNL1        0.1424
     41 H          -6.5563    1.7294    1.7445 H       1  UNL1        0.1424
     42 H          -1.3780    1.3310    1.5565 H       1  UNL1        0.0638
@<TRIPOS>BOND
     1     1     2    1
     2     2     3    1
     3     3     4    1
     4     4     5    1
     5     3     6    1
     6     6     7    1
     7     7     8    1
     8     8     9    2
     9     9    10    1
    10     9    11    1
    11    11    12   ar
    12    12    13    1
    13    13    14    1
    14    12    15   ar
    15    15    16   ar
    16    16    17    1
    17    16    18   ar
    18    18    19    1
    19    18    20   ar
    20    20    11   ar
    21     1    21    1
    22     1    22    1
    23     1    23    1
    24     2    24    1
    25     2    25    1
    26     4    26    1
    27     4    27    1
    28     5    28    1
    29     5    29    1
    30     5    30    1
    31     6    31    1
    32     6    32    1
    33     7    33    1
    34     7    34    1
    35    10    35    1
    36    14    36    1
    37    14    37    1
    38    14    38    1
    39    15    39    1
    40    17    40    1
    41    17    41    1
    42    20    42    1
