@<TRIPOS>MOLECULE
*****
 95 102 0 0 0
SMALL
GASTEIGER

@<TRIPOS>ATOM
      1 N          -0.9200    2.3082   -2.8252 N.pl3   1  UNL1       -0.3578
      2 C          -1.9630    2.2817   -1.8611 C.ar    1  UNL1        0.0308
      3 C          -2.6065    1.1067   -1.5404 C.ar    1  UNL1        0.0310
      4 C          -3.6094    1.1544   -0.5975 C.ar    1  UNL1        0.2177
      5 C          -3.9164    2.3709   -0.0248 C.ar    1  UNL1        0.0542
      6 C          -3.3045    3.5375   -0.3176 C.ar    1  UNL1       -0.0460
      7 C          -2.2877    3.5008   -1.2712 C.ar    1  UNL1       -0.0401
      8 C          -4.9271    2.3385    0.9010 C.ar    1  UNL1        0.0020
      9 C          -5.3042    3.5075    1.5232 C.ar    1  UNL1       -0.0513
     10 C          -6.3271    3.5436    2.4722 C.ar    1  UNL1       -0.0404
     11 C          -7.0026    2.3707    2.8165 C.ar    1  UNL1        0.0253
     12 N          -8.0526    2.3915    3.7849 N.pl3   1  UNL1       -0.3579
     13 C          -6.6031    1.2181    2.1776 C.ar    1  UNL1       -0.0270
     14 C          -5.5804    1.1683    1.2257 C.ar    1  UNL1        0.0565
     15 C          -5.2215   -0.0356    0.6076 C.ar    1  UNL1        0.2232
     16 C          -6.0034   -1.1734    1.0417 C.ar    1  UNL1        0.0469
     17 C          -5.8542   -2.0815    2.0895 C.ar    1  UNL1       -0.0483
     18 C          -6.7781   -3.0822    2.2644 C.ar    1  UNL1       -0.0610
     19 C          -7.8562   -3.2249    1.4363 C.ar    1  UNL1       -0.0617
     20 C          -8.0395   -2.3513    0.3931 C.ar    1  UNL1       -0.0610
     21 C          -7.1095   -1.3333    0.2068 C.ar    1  UNL1       -0.0483
     22 N          -4.2292   -0.0265   -0.3066 N.ar    1  UNL1       -0.1898
     23 C          -3.8739   -1.2560   -0.9386 C.3     1  UNL1        0.1517
     24 C          -2.7572   -1.9633   -0.1422 C.3     1  UNL1        0.0070
     25 C          -2.4083   -3.2333   -0.8227 C.3     1  UNL1       -0.0473
     26 C          -1.3778   -4.1096   -0.2676 C.3     1  UNL1       -0.0525
     27 C           0.0410   -3.8933   -0.1767 C.3     1  UNL1       -0.0475
     28 C           0.7885   -2.8303    0.4672 C.3     1  UNL1       -0.0071
     29 C           0.7860   -1.4624   -0.0222 C.ar    1  UNL1        0.0828
     30 C           1.8076   -1.3255   -0.9881 C.ar    1  UNL1        0.0487
     31 N           1.9105   -0.0786   -1.5395 N.ar    1  UNL1       -0.2500
     32 C           2.7802    0.5086   -2.5315 C.3     1  UNL1        0.0586
     33 C           4.0178    1.1130   -1.9060 C.3     1  UNL1        0.0288
     34 N           4.8244    0.1885   -1.1774 N.pl3   1  UNL1       -0.3413
     35 C           6.0467    0.3515   -0.4870 C.ar    1  UNL1        0.0414
     36 C           6.2272    0.6951    0.8272 C.ar    1  UNL1       -0.0047
     37 C           5.0114    0.9301    1.6188 C.3     1  UNL1       -0.0242
     38 C           5.2461    1.8147    2.8252 C.3     1  UNL1       -0.0486
     39 C           6.6529    2.3277    2.9298 C.3     1  UNL1       -0.0473
     40 C           7.6448    1.1753    2.7433 C.3     1  UNL1       -0.0101
     41 C           7.5102    0.7946    1.3010 C.ar    1  UNL1        0.0469
     42 N           8.5969    0.5661    0.5192 N.ar    1  UNL1       -0.2512
     43 C           8.4512    0.2241   -0.7860 C.ar    1  UNL1        0.0731
     44 C           7.1542    0.1200   -1.2781 C.ar    1  UNL1        0.0215
     45 C           7.0953   -0.2304   -2.6053 C.ar    1  UNL1       -0.0508
     46 C           8.1823   -0.4670   -3.4132 C.ar    1  UNL1       -0.0610
     47 C           9.4550   -0.3456   -2.8561 C.ar    1  UNL1       -0.0597
     48 C           9.5935    0.0038   -1.5278 C.ar    1  UNL1       -0.0357
     49 N           0.9504    0.5657   -0.9166 N.ar    1  UNL1       -0.0654
     50 N           0.3335   -0.2080   -0.0791 N.ar    1  UNL1       -0.1345
     51 H          -1.4123    2.0864   -3.7406 H       1  UNL1        0.1423
     52 H           0.0764    2.4359   -3.0814 H       1  UNL1        0.1423
     53 H          -2.2536    0.2419   -2.0699 H       1  UNL1        0.0702
     54 H          -3.4913    4.4857    0.0813 H       1  UNL1        0.0626
     55 H          -1.7423    4.4107   -1.5642 H       1  UNL1        0.0636
     56 H          -4.9092    4.4788    1.3893 H       1  UNL1        0.0624
     57 H          -6.6782    4.4287    3.0024 H       1  UNL1        0.0636
     58 H          -9.1022    2.4269    3.6133 H       1  UNL1        0.1423
     59 H          -8.8105    2.4199    3.0930 H       1  UNL1        0.1423
     60 H          -7.1323    0.3126    2.4504 H       1  UNL1        0.0644
     61 H          -4.9573   -1.8358    2.6512 H       1  UNL1        0.0626
     62 H          -6.5259   -3.7061    3.1207 H       1  UNL1        0.0618
     63 H          -8.4894   -4.0783    1.7224 H       1  UNL1        0.0618
     64 H          -8.9053   -2.5190   -0.2179 H       1  UNL1        0.0618
     65 H          -7.3879   -0.7163   -0.6625 H       1  UNL1        0.0626
     66 H          -3.6529   -1.2055   -2.0107 H       1  UNL1        0.1031
     67 H          -4.7477   -1.9702   -0.8726 H       1  UNL1        0.1031
     68 H          -3.3084   -2.2575    0.8183 H       1  UNL1        0.0326
     69 H          -1.9802   -1.2883    0.1375 H       1  UNL1        0.0326
     70 H          -3.3490   -3.8410   -1.0491 H       1  UNL1        0.0267
     71 H          -2.0984   -2.9450   -1.8873 H       1  UNL1        0.0267
     72 H          -1.7641   -4.4146    0.7965 H       1  UNL1        0.0265
     73 H          -1.5273   -5.1524   -0.7956 H       1  UNL1        0.0265
     74 H           0.5580   -4.9063    0.1515 H       1  UNL1        0.0269
     75 H           0.4244   -3.9458   -1.2968 H       1  UNL1        0.0269
     76 H           0.3353   -2.7540    1.5433 H       1  UNL1        0.0329
     77 H           1.8445   -3.1711    0.7769 H       1  UNL1        0.0329
     78 H           2.5800   -1.9851   -1.4382 H       1  UNL1        0.0845
     79 H           3.0323   -0.2892   -3.2603 H       1  UNL1        0.0525
     80 H           2.2207    1.3330   -3.0163 H       1  UNL1        0.0525
     81 H           4.6407    1.6264   -2.6630 H       1  UNL1        0.0479
     82 H           3.6289    1.9501   -1.2602 H       1  UNL1        0.0479
     83 H           4.6380   -0.8286   -1.0208 H       1  UNL1        0.1462
     84 H           4.5945   -0.0456    1.9958 H       1  UNL1        0.0314
     85 H           4.1867    1.3851    1.0375 H       1  UNL1        0.0314
     86 H           4.9999    1.3064    3.7812 H       1  UNL1        0.0269
     87 H           4.5872    2.7270    2.7994 H       1  UNL1        0.0269
     88 H           6.8727    3.0950    2.1440 H       1  UNL1        0.0269
     89 H           6.7710    2.8126    3.9012 H       1  UNL1        0.0269
     90 H           7.3472    0.3885    3.4360 H       1  UNL1        0.0328
     91 H           8.6676    1.5265    2.9934 H       1  UNL1        0.0328
     92 H           6.1066   -0.3303   -3.0577 H       1  UNL1        0.0625
     93 H           8.0399   -0.7361   -4.4417 H       1  UNL1        0.0618
     94 H          10.3068   -0.5257   -3.4665 H       1  UNL1        0.0618
     95 H          10.5723    0.1044   -1.0748 H       1  UNL1        0.0639
@<TRIPOS>UNITY_ATOM_ATTR
22 1
charge 1
@<TRIPOS>BOND
     1     1     2    1
     2     2     3   ar
     3     3     4   ar
     4     4     5   ar
     5     5     6   ar
     6     6     7   ar
     7     5     8   ar
     8     8     9   ar
     9     9    10   ar
    10    10    11   ar
    11    11    12    1
    12    11    13   ar
    13    13    14   ar
    14    14    15   ar
    15    15    16    1
    16    16    17   ar
    17    17    18   ar
    18    18    19   ar
    19    19    20   ar
    20    20    21   ar
    21    15    22   ar
    22    22    23    1
    23    23    24    1
    24    24    25    1
    25    25    26    1
    26    26    27    1
    27    27    28    1
    28    28    29    1
    29    29    30   ar
    30    30    31   ar
    31    31    32    1
    32    32    33    1
    33    33    34    1
    34    34    35    1
    35    35    36   ar
    36    36    37    1
    37    37    38    1
    38    38    39    1
    39    39    40    1
    40    40    41    1
    41    41    42   ar
    42    42    43   ar
    43    43    44   ar
    44    44    45   ar
    45    45    46   ar
    46    46    47   ar
    47    47    48   ar
    48    31    49   ar
    49    49    50   ar
    50     7     2   ar
    51    14     8   ar
    52    21    16   ar
    53    50    29   ar
    54    22     4   ar
    55    44    35   ar
    56    41    36   ar
    57    48    43   ar
    58     1    51    1
    59     1    52    1
    60     3    53    1
    61     6    54    1
    62     7    55    1
    63     9    56    1
    64    10    57    1
    65    12    58    1
    66    12    59    1
    67    13    60    1
    68    17    61    1
    69    18    62    1
    70    19    63    1
    71    20    64    1
    72    21    65    1
    73    23    66    1
    74    23    67    1
    75    24    68    1
    76    24    69    1
    77    25    70    1
    78    25    71    1
    79    26    72    1
    80    26    73    1
    81    27    74    1
    82    27    75    1
    83    28    76    1
    84    28    77    1
    85    30    78    1
    86    32    79    1
    87    32    80    1
    88    33    81    1
    89    33    82    1
    90    34    83    1
    91    37    84    1
    92    37    85    1
    93    38    86    1
    94    38    87    1
    95    39    88    1
    96    39    89    1
    97    40    90    1
    98    40    91    1
    99    45    92    1
   100    46    93    1
   101    47    94    1
   102    48    95    1
