
     RDKit          3D

 49 51  0  0  0  0  0  0  0  0999 V2000
   -4.5030   -1.8093    0.9846 C   0  0  0  0  0  0  0  0  0  0  0  0
   -4.9190   -0.5338    0.2819 C   0  0  2  0  0  0  0  0  0  0  0  0
   -3.7735    0.3708   -0.0058 C   0  0  0  0  0  0  0  0  0  0  0  0
   -2.5355   -0.3621   -1.0452 S   0  0  0  0  0  6  0  0  0  0  0  0
   -3.0674   -0.7584   -2.3688 O   0  0  0  0  0  0  0  0  0  0  0  0
   -1.9508   -1.5292   -0.2972 O   0  0  0  0  0  0  0  0  0  0  0  0
   -1.2559    0.7713   -1.3126 N   0  0  0  0  0  0  0  0  0  0  0  0
   -0.5956    1.1537   -0.0905 C   0  0  0  0  0  0  0  0  0  0  0  0
    0.5100    0.2117    0.2930 C   0  0  0  0  0  0  0  0  0  0  0  0
    1.6360    0.3140   -0.7466 C   0  0  0  0  0  0  0  0  0  0  0  0
    2.6448    1.1207   -0.2568 O   0  0  0  0  0  0  0  0  0  0  0  0
    3.9548    0.7546   -0.0868 C   0  0  0  0  0  0  0  0  0  0  0  0
    4.4750   -0.4818   -0.3784 C   0  0  0  0  0  0  0  0  0  0  0  0
    5.8336   -0.7699   -0.1720 C   0  0  0  0  0  0  0  0  0  0  0  0
    6.7094    0.1627    0.3292 C   0  0  0  0  0  0  0  0  0  0  0  0
    8.1481   -0.1228    0.5543 C   0  0  0  0  0  0  0  0  0  0  0  0
    8.4192    0.0490    1.9020 F   0  0  0  0  0  0  0  0  0  0  0  0
    8.4641   -1.4128    0.2325 F   0  0  0  0  0  0  0  0  0  0  0  0
    8.9694    0.7356   -0.1331 F   0  0  0  0  0  0  0  0  0  0  0  0
    6.1997    1.4047    0.6250 C   0  0  0  0  0  0  0  0  0  0  0  0
    4.8736    1.6900    0.4248 C   0  0  0  0  0  0  0  0  0  0  0  0
    1.0519    0.8613   -2.0510 C   0  0  0  0  0  0  0  0  0  0  0  0
   -0.2962    0.2111   -2.2334 C   0  0  0  0  0  0  0  0  0  0  0  0
   -5.7993    0.1603    1.2121 N   0  0  0  0  0  0  0  0  0  0  0  0
   -7.0804   -0.4324    1.0700 C   0  0  0  0  0  0  0  0  0  0  0  0
   -8.0078   -0.4267    1.9341 O   0  0  0  0  0  0  0  0  0  0  0  0
   -7.1008   -1.0243   -0.2276 N   0  0  0  0  0  0  0  0  0  0  0  0
   -5.8294   -0.7782   -0.8459 C   0  0  0  0  0  0  0  0  0  0  0  0
   -5.6783   -0.7997   -2.0872 O   0  0  0  0  0  0  0  0  0  0  0  0
   -3.5534   -1.6913    1.5261 H   0  0  0  0  0  0  0  0  0  0  0  0
   -5.2627   -2.1519    1.7193 H   0  0  0  0  0  0  0  0  0  0  0  0
   -4.4488   -2.6085    0.2037 H   0  0  0  0  0  0  0  0  0  0  0  0
   -3.3281    0.6839    0.9601 H   0  0  0  0  0  0  0  0  0  0  0  0
   -4.1707    1.2905   -0.4752 H   0  0  0  0  0  0  0  0  0  0  0  0
   -0.1257    2.1650   -0.2100 H   0  0  0  0  0  0  0  0  0  0  0  0
   -1.3442    1.2364    0.7021 H   0  0  0  0  0  0  0  0  0  0  0  0
    0.1755   -0.8377    0.3841 H   0  0  0  0  0  0  0  0  0  0  0  0
    0.9248    0.5227    1.2619 H   0  0  0  0  0  0  0  0  0  0  0  0
    2.0030   -0.6868   -0.9965 H   0  0  0  0  0  0  0  0  0  0  0  0
    3.8403   -1.2631   -0.7763 H   0  0  0  0  0  0  0  0  0  0  0  0
    6.2281   -1.7532   -0.4082 H   0  0  0  0  0  0  0  0  0  0  0  0
    6.8699    2.1657    1.0240 H   0  0  0  0  0  0  0  0  0  0  0  0
    4.4678    2.6694    0.6572 H   0  0  0  0  0  0  0  0  0  0  0  0
    1.7042    0.6660   -2.9019 H   0  0  0  0  0  0  0  0  0  0  0  0
    0.9126    1.9452   -1.9528 H   0  0  0  0  0  0  0  0  0  0  0  0
   -0.2636   -0.8838   -2.1176 H   0  0  0  0  0  0  0  0  0  0  0  0
   -0.6966    0.3994   -3.2667 H   0  0  0  0  0  0  0  0  0  0  0  0
   -5.5261    0.9537    1.8649 H   0  0  0  0  0  0  0  0  0  0  0  0
   -7.9031   -1.5519   -0.6663 H   0  0  0  0  0  0  0  0  0  0  0  0
  2  1  1  1
  2  3  1  0
  3  4  1  0
  4  5  2  0
  4  6  2  0
  4  7  1  0
  7  8  1  0
  8  9  1  0
  9 10  1  0
 10 11  1  0
 11 12  1  0
 12 13  2  0
 13 14  1  0
 14 15  2  0
 15 16  1  0
 16 17  1  0
 16 18  1  0
 16 19  1  0
 15 20  1  0
 20 21  2  0
 10 22  1  0
 22 23  1  0
  2 24  1  0
 24 25  1  0
 25 26  2  0
 25 27  1  0
 27 28  1  0
 28 29  2  0
 28  2  1  0
 23  7  1  0
 21 12  1  0
  1 30  1  0
  1 31  1  0
  1 32  1  0
  3 33  1  0
  3 34  1  0
  8 35  1  0
  8 36  1  0
  9 37  1  0
  9 38  1  0
 10 39  1  0
 13 40  1  0
 14 41  1  0
 20 42  1  0
 21 43  1  0
 22 44  1  0
 22 45  1  0
 23 46  1  0
 23 47  1  0
 24 48  1  0
 27 49  1  0
M  END
$$$$
