@<TRIPOS>MOLECULE
*****
 49 51 0 0 0
SMALL
GASTEIGER

@<TRIPOS>ATOM
      1 C          -4.5030   -1.8093    0.9846 C.3     1  UNL1       -0.0335
      2 C          -4.9190   -0.5338    0.2819 C.3     1  UNL1        0.1302
      3 C          -3.7735    0.3708   -0.0058 C.3     1  UNL1        0.1114
      4 S          -2.5355   -0.3621   -1.0452 S.O2    1  UNL1        0.0343
      5 O          -3.0674   -0.7584   -2.3688 O.2     1  UNL1       -0.1579
      6 O          -1.9508   -1.5292   -0.2972 O.2     1  UNL1       -0.1579
      7 N          -1.2559    0.7713   -1.3126 N.3     1  UNL1       -0.1808
      8 C          -0.5956    1.1537   -0.0905 C.3     1  UNL1        0.0235
      9 C           0.5100    0.2117    0.2930 C.3     1  UNL1       -0.0013
     10 C           1.6360    0.3140   -0.7466 C.3     1  UNL1        0.1026
     11 O           2.6448    1.1207   -0.2568 O.3     1  UNL1       -0.4887
     12 C           3.9548    0.7546   -0.0868 C.ar    1  UNL1        0.1209
     13 C           4.4750   -0.4818   -0.3784 C.ar    1  UNL1       -0.0194
     14 C           5.8336   -0.7699   -0.1720 C.ar    1  UNL1       -0.0467
     15 C           6.7094    0.1627    0.3292 C.ar    1  UNL1        0.0550
     16 C           8.1481   -0.1228    0.5543 C.3     1  UNL1        0.4174
     17 F           8.4192    0.0490    1.9020 F       1  UNL1       -0.1659
     18 F           8.4641   -1.4128    0.2325 F       1  UNL1       -0.1659
     19 F           8.9694    0.7356   -0.1331 F       1  UNL1       -0.1659
     20 C           6.1997    1.4047    0.6250 C.ar    1  UNL1       -0.0467
     21 C           4.8736    1.6900    0.4248 C.ar    1  UNL1       -0.0194
     22 C           1.0519    0.8613   -2.0510 C.3     1  UNL1       -0.0013
     23 C          -0.2962    0.2111   -2.2334 C.3     1  UNL1        0.0235
     24 N          -5.7993    0.1603    1.2121 N.am    1  UNL1       -0.2838
     25 C          -7.0804   -0.4324    1.0700 C.2     1  UNL1        0.3068
     26 O          -8.0078   -0.4267    1.9341 O.2     1  UNL1       -0.2524
     27 N          -7.1008   -1.0243   -0.2276 N.am    1  UNL1       -0.2384
     28 C          -5.8294   -0.7782   -0.8459 C.2     1  UNL1        0.2453
     29 O          -5.6783   -0.7997   -2.0872 O.2     1  UNL1       -0.2730
     30 H          -3.5534   -1.6913    1.5261 H       1  UNL1        0.0255
     31 H          -5.2627   -2.1519    1.7193 H       1  UNL1        0.0255
     32 H          -4.4488   -2.6085    0.2037 H       1  UNL1        0.0255
     33 H          -3.3281    0.6839    0.9601 H       1  UNL1        0.0542
     34 H          -4.1707    1.2905   -0.4752 H       1  UNL1        0.0542
     35 H          -0.1257    2.1650   -0.2100 H       1  UNL1        0.0445
     36 H          -1.3442    1.2364    0.7021 H       1  UNL1        0.0445
     37 H           0.1755   -0.8377    0.3841 H       1  UNL1        0.0314
     38 H           0.9248    0.5227    1.2619 H       1  UNL1        0.0314
     39 H           2.0030   -0.6868   -0.9965 H       1  UNL1        0.0733
     40 H           3.8403   -1.2631   -0.7763 H       1  UNL1        0.0654
     41 H           6.2281   -1.7532   -0.4082 H       1  UNL1        0.0624
     42 H           6.8699    2.1657    1.0240 H       1  UNL1        0.0624
     43 H           4.4678    2.6694    0.6572 H       1  UNL1        0.0654
     44 H           1.7042    0.6660   -2.9019 H       1  UNL1        0.0314
     45 H           0.9126    1.9452   -1.9528 H       1  UNL1        0.0314
     46 H          -0.2636   -0.8838   -2.1176 H       1  UNL1        0.0445
     47 H          -0.6966    0.3994   -3.2667 H       1  UNL1        0.0445
     48 H          -5.5261    0.9537    1.8649 H       1  UNL1        0.1513
     49 H          -7.9031   -1.5519   -0.6663 H       1  UNL1        0.1591
@<TRIPOS>BOND
     1     2     1    1
     2     2     3    1
     3     3     4    1
     4     4     5    2
     5     4     6    2
     6     4     7    1
     7     7     8    1
     8     8     9    1
     9     9    10    1
    10    10    11    1
    11    11    12    1
    12    12    13   ar
    13    13    14   ar
    14    14    15   ar
    15    15    16    1
    16    16    17    1
    17    16    18    1
    18    16    19    1
    19    15    20   ar
    20    20    21   ar
    21    10    22    1
    22    22    23    1
    23     2    24    1
    24    24    25   am
    25    25    26    2
    26    25    27   am
    27    27    28   am
    28    28    29    2
    29    28     2    1
    30    23     7    1
    31    21    12   ar
    32     1    30    1
    33     1    31    1
    34     1    32    1
    35     3    33    1
    36     3    34    1
    37     8    35    1
    38     8    36    1
    39     9    37    1
    40     9    38    1
    41    10    39    1
    42    13    40    1
    43    14    41    1
    44    20    42    1
    45    21    43    1
    46    22    44    1
    47    22    45    1
    48    23    46    1
    49    23    47    1
    50    24    48    1
    51    27    49    1
