@<TRIPOS>MOLECULE
*****
 25 27 0 0 0
SMALL
GASTEIGER

@<TRIPOS>ATOM
      1 CL          5.1010    0.4425   -1.4157 Cl      1  UNL1       -0.0820
      2 C           3.4189    0.3339   -0.8811 C.ar    1  UNL1        0.0593
      3 C           2.9662   -0.8579   -0.3627 C.ar    1  UNL1       -0.0417
      4 C           1.6493   -0.9794    0.0675 C.ar    1  UNL1       -0.0565
      5 C           0.7672    0.0757   -0.0104 C.ar    1  UNL1       -0.0382
      6 C          -0.6231   -0.0483    0.4427 C.3     1  UNL1        0.0126
      7 C          -1.5339    1.1416    0.3258 C.3     1  UNL1        0.0059
      8 N          -2.8527    0.6140    0.6152 N.3     1  UNL1       -0.3148
      9 C          -2.9136   -0.6720   -0.0240 C.3     1  UNL1       -0.0004
     10 C          -1.4898   -1.1811    0.0923 C.3     1  UNL1       -0.0168
     11 C          -0.9167   -1.0535    1.4879 C.3     1  UNL1       -0.0371
     12 C           1.2501    1.2636   -0.5365 C.ar    1  UNL1       -0.0382
     13 C           2.5589    1.3903   -0.9660 C.ar    1  UNL1        0.0595
     14 CL          3.1764    2.8982   -1.6352 Cl      1  UNL1       -0.0820
     15 H           3.6417   -1.7099   -0.2889 H       1  UNL1        0.0633
     16 H           1.3524   -1.9402    0.4650 H       1  UNL1        0.0621
     17 H          -1.2613    1.9718    0.9765 H       1  UNL1        0.0433
     18 H          -1.5616    1.4898   -0.7348 H       1  UNL1        0.0433
     19 H          -3.5582    1.2794    0.1904 H       1  UNL1        0.1220
     20 H          -3.5308   -1.3361    0.6309 H       1  UNL1        0.0427
     21 H          -3.2735   -0.6409   -1.0653 H       1  UNL1        0.0427
     22 H          -1.1703   -2.0153   -0.5531 H       1  UNL1        0.0322
     23 H          -0.2192   -1.8418    1.7575 H       1  UNL1        0.0278
     24 H          -1.6054   -0.7698    2.3238 H       1  UNL1        0.0278
     25 H           0.6281    2.1454   -0.6358 H       1  UNL1        0.0635
@<TRIPOS>BOND
     1     1     2    1
     2     2     3   ar
     3     3     4   ar
     4     4     5   ar
     5     5     6    1
     6     6     7    1
     7     7     8    1
     8     8     9    1
     9     9    10    1
    10    10    11    1
    11     5    12   ar
    12    12    13   ar
    13    13    14    1
    14    13     2   ar
    15    10     6    1
    16    11     6    1
    17     3    15    1
    18     4    16    1
    19     7    17    1
    20     7    18    1
    21     8    19    1
    22     9    20    1
    23     9    21    1
    24    10    22    1
    25    11    23    1
    26    11    24    1
    27    12    25    1
