
     RDKit          3D

 25 27  0  0  0  0  0  0  0  0999 V2000
    5.1010    0.4425   -1.4157 Cl  0  0  0  0  0  0  0  0  0  0  0  0
    3.4189    0.3339   -0.8811 C   0  0  0  0  0  0  0  0  0  0  0  0
    2.9662   -0.8579   -0.3627 C   0  0  0  0  0  0  0  0  0  0  0  0
    1.6493   -0.9794    0.0675 C   0  0  0  0  0  0  0  0  0  0  0  0
    0.7672    0.0757   -0.0104 C   0  0  0  0  0  0  0  0  0  0  0  0
   -0.6231   -0.0483    0.4427 C   0  0  0  0  0  0  0  0  0  0  0  0
   -1.5339    1.1416    0.3258 C   0  0  0  0  0  0  0  0  0  0  0  0
   -2.8527    0.6140    0.6152 N   0  0  0  0  0  0  0  0  0  0  0  0
   -2.9136   -0.6720   -0.0240 C   0  0  0  0  0  0  0  0  0  0  0  0
   -1.4898   -1.1811    0.0923 C   0  0  0  0  0  0  0  0  0  0  0  0
   -0.9167   -1.0535    1.4879 C   0  0  0  0  0  0  0  0  0  0  0  0
    1.2501    1.2636   -0.5365 C   0  0  0  0  0  0  0  0  0  0  0  0
    2.5589    1.3903   -0.9660 C   0  0  0  0  0  0  0  0  0  0  0  0
    3.1764    2.8982   -1.6352 Cl  0  0  0  0  0  0  0  0  0  0  0  0
    3.6417   -1.7099   -0.2889 H   0  0  0  0  0  0  0  0  0  0  0  0
    1.3524   -1.9402    0.4650 H   0  0  0  0  0  0  0  0  0  0  0  0
   -1.2613    1.9718    0.9765 H   0  0  0  0  0  0  0  0  0  0  0  0
   -1.5616    1.4898   -0.7348 H   0  0  0  0  0  0  0  0  0  0  0  0
   -3.5582    1.2794    0.1904 H   0  0  0  0  0  0  0  0  0  0  0  0
   -3.5308   -1.3361    0.6309 H   0  0  0  0  0  0  0  0  0  0  0  0
   -3.2735   -0.6409   -1.0653 H   0  0  0  0  0  0  0  0  0  0  0  0
   -1.1703   -2.0153   -0.5531 H   0  0  0  0  0  0  0  0  0  0  0  0
   -0.2192   -1.8418    1.7575 H   0  0  0  0  0  0  0  0  0  0  0  0
   -1.6054   -0.7698    2.3238 H   0  0  0  0  0  0  0  0  0  0  0  0
    0.6281    2.1454   -0.6358 H   0  0  0  0  0  0  0  0  0  0  0  0
  1  2  1  0
  2  3  2  0
  3  4  1  0
  4  5  2  0
  5  6  1  0
  6  7  1  0
  7  8  1  0
  8  9  1  0
  9 10  1  0
 10 11  1  0
  5 12  1  0
 12 13  2  0
 13 14  1  0
 13  2  1  0
 10  6  1  0
 11  6  1  0
  3 15  1  0
  4 16  1  0
  7 17  1  0
  7 18  1  0
  8 19  1  0
  9 20  1  0
  9 21  1  0
 10 22  1  0
 11 23  1  0
 11 24  1  0
 12 25  1  0
M  END
$$$$
