@<TRIPOS>MOLECULE
*****
 69 72 0 0 0
SMALL
GASTEIGER

@<TRIPOS>ATOM
      1 C          -6.0878    0.3700   -1.1501 C.3     1  UNL1        0.0370
      2 O          -5.3817    1.5345   -0.9003 O.3     1  UNL1       -0.3760
      3 C          -4.6209    1.4554    0.2779 C.3     1  UNL1        0.0969
      4 C          -5.1400    2.5693    1.1944 C.3     1  UNL1        0.0753
      5 O          -4.3846    3.7165    1.0297 O.3     1  UNL1       -0.3771
      6 C          -4.1711    4.0282   -0.3078 C.3     1  UNL1        0.0493
      7 C          -3.2318    3.0227   -0.9544 C.3     1  UNL1       -0.0115
      8 C          -3.1928    1.7904   -0.0344 C.3     1  UNL1        0.0383
      9 N          -2.4699    0.7852   -0.7262 N.3     1  UNL1       -0.3079
     10 C          -2.3590   -0.4767   -0.0497 C.3     1  UNL1        0.0089
     11 C          -1.6865   -0.4256    1.2670 C.3     1  UNL1       -0.0366
     12 C          -0.2610   -0.8039    0.9038 C.3     1  UNL1       -0.0374
     13 C          -0.3534   -1.8905   -0.0678 C.3     1  UNL1        0.0509
     14 C           0.7756   -1.8086   -1.0430 C.2     1  UNL1        0.2221
     15 O           0.4634   -1.9418   -2.3074 O.2     1  UNL1       -0.2750
     16 N           2.1285   -1.6084   -0.8211 N.am    1  UNL1       -0.2980
     17 C           3.0334   -1.6110   -1.9757 C.3     1  UNL1        0.0305
     18 C           4.0185   -0.4735   -1.9127 C.3     1  UNL1        0.0298
     19 N           4.5249   -0.2874   -0.5850 N.pl3   1  UNL1       -0.3066
     20 C           5.3062    0.8457   -0.1693 C.ar    1  UNL1        0.1613
     21 N           5.8585    1.3381    0.7225 N.ar    1  UNL1       -0.2208
     22 C           6.5344    2.4571    0.8161 C.ar    1  UNL1        0.1527
     23 C           7.2172    2.9798    2.0849 C.3     1  UNL1        0.4348
     24 F           8.3518    3.6433    1.6916 F       1  UNL1       -0.1644
     25 F           7.6083    1.9333    2.8887 F       1  UNL1       -0.1644
     26 F           6.3613    3.8540    2.7014 F       1  UNL1       -0.1644
     27 C           6.5848    3.1724   -0.3973 C.ar    1  UNL1        0.0089
     28 S           5.6641    2.1554   -1.5052 S.2     1  UNL1       -0.0601
     29 C           4.2247   -1.3027    0.3873 C.3     1  UNL1        0.0298
     30 C           2.6873   -1.3703    0.4675 C.3     1  UNL1        0.0305
     31 C          -0.5869   -3.2788    0.3691 C.3     1  UNL1       -0.0327
     32 C          -1.8603   -3.5378    1.1298 C.3     1  UNL1       -0.0617
     33 C           0.4864   -3.9970    1.0814 C.3     1  UNL1       -0.0617
     34 C          -1.5731   -1.4341   -0.9036 C.3     1  UNL1       -0.0233
     35 H          -5.4021   -0.4881   -1.2592 H       1  UNL1        0.0524
     36 H          -6.6149    0.4936   -2.0982 H       1  UNL1        0.0524
     37 H          -6.8648    0.1840   -0.3716 H       1  UNL1        0.0524
     38 H          -4.7840    0.4699    0.7081 H       1  UNL1        0.0634
     39 H          -6.2167    2.7168    1.1004 H       1  UNL1        0.0586
     40 H          -4.9635    2.2093    2.2492 H       1  UNL1        0.0586
     41 H          -3.6821    5.0222   -0.3341 H       1  UNL1        0.0560
     42 H          -5.1231    4.1292   -0.8674 H       1  UNL1        0.0560
     43 H          -2.2013    3.4422   -0.9914 H       1  UNL1        0.0303
     44 H          -3.6089    2.7567   -1.9539 H       1  UNL1        0.0303
     45 H          -2.6434    2.1690    0.8776 H       1  UNL1        0.0487
     46 H          -2.8796    0.6386   -1.6580 H       1  UNL1        0.1225
     47 H          -3.4114   -0.8724    0.0244 H       1  UNL1        0.0461
     48 H          -2.1398   -1.0971    2.0204 H       1  UNL1        0.0281
     49 H          -1.7041    0.5758    1.7530 H       1  UNL1        0.0281
     50 H           0.3719   -0.9192    1.7859 H       1  UNL1        0.0276
     51 H           0.1230    0.1097    0.3558 H       1  UNL1        0.0276
     52 H           2.5077   -1.5669   -2.9293 H       1  UNL1        0.0480
     53 H           3.5991   -2.5595   -1.9269 H       1  UNL1        0.0480
     54 H           3.5994    0.4553   -2.3509 H       1  UNL1        0.0480
     55 H           4.8855   -0.7587   -2.5580 H       1  UNL1        0.0480
     56 H           7.0872    4.1469   -0.6033 H       1  UNL1        0.0715
     57 H           4.5770   -1.0868    1.3981 H       1  UNL1        0.0480
     58 H           4.5496   -2.3184    0.0617 H       1  UNL1        0.0480
     59 H           2.4138   -0.2973    0.7256 H       1  UNL1        0.0480
     60 H           2.3806   -2.0132    1.2846 H       1  UNL1        0.0480
     61 H          -0.7353   -3.8658   -0.6038 H       1  UNL1        0.0305
     62 H          -2.7471   -3.0386    0.7775 H       1  UNL1        0.0233
     63 H          -1.6763   -3.4219    2.2170 H       1  UNL1        0.0233
     64 H          -2.0806   -4.6459    1.0237 H       1  UNL1        0.0233
     65 H           0.7456   -3.5957    2.0783 H       1  UNL1        0.0233
     66 H           1.4408   -4.0862    0.5261 H       1  UNL1        0.0233
     67 H           0.1462   -5.0445    1.2573 H       1  UNL1        0.0233
     68 H          -1.2532   -0.9318   -1.8367 H       1  UNL1        0.0290
     69 H          -2.1640   -2.3140   -1.2316 H       1  UNL1        0.0290
@<TRIPOS>BOND
     1     1     2    1
     2     2     3    1
     3     3     4    1
     4     4     5    1
     5     5     6    1
     6     6     7    1
     7     7     8    1
     8     8     9    1
     9     9    10    1
    10    10    11    1
    11    11    12    1
    12    12    13    1
    13    13    14    1
    14    14    15    2
    15    14    16   am
    16    16    17    1
    17    17    18    1
    18    18    19    1
    19    19    20    1
    20    20    21   ar
    21    21    22   ar
    22    22    23    1
    23    23    24    1
    24    23    25    1
    25    23    26    1
    26    22    27   ar
    27    27    28   ar
    28    19    29    1
    29    29    30    1
    30    13    31    1
    31    31    32    1
    32    31    33    1
    33    13    34    1
    34     8     3    1
    35    34    10    1
    36    30    16    1
    37    28    20   ar
    38     1    35    1
    39     1    36    1
    40     1    37    1
    41     3    38    1
    42     4    39    1
    43     4    40    1
    44     6    41    1
    45     6    42    1
    46     7    43    1
    47     7    44    1
    48     8    45    1
    49     9    46    1
    50    10    47    1
    51    11    48    1
    52    11    49    1
    53    12    50    1
    54    12    51    1
    55    17    52    1
    56    17    53    1
    57    18    54    1
    58    18    55    1
    59    27    56    1
    60    29    57    1
    61    29    58    1
    62    30    59    1
    63    30    60    1
    64    31    61    1
    65    32    62    1
    66    32    63    1
    67    32    64    1
    68    33    65    1
    69    33    66    1
    70    33    67    1
    71    34    68    1
    72    34    69    1
