
     RDKit          3D

 36 37  0  0  0  0  0  0  0  0999 V2000
    5.7121    0.9871   -0.0475 C   0  0  0  0  0  0  0  0  0  0  0  0
    4.4000    0.8864    0.6511 C   0  0  0  0  0  0  0  0  0  0  0  0
    4.3322    1.6079    1.6789 O   0  0  0  0  0  0  0  0  0  0  0  0
    3.4153    0.0340    0.1152 N   0  0  0  0  0  0  0  0  0  0  0  0
    2.1144   -0.2901    0.5019 N   0  0  0  0  0  0  0  0  0  0  0  0
    1.8650   -1.3669    1.3682 C   0  0  0  0  0  0  0  0  0  0  0  0
    2.5532   -2.2241    1.9669 O   0  0  0  0  0  0  0  0  0  0  0  0
    0.4349   -1.3980    1.5393 N   0  0  0  0  0  0  0  0  0  0  0  0
   -0.2337   -0.5220    0.5712 C   0  0  2  0  0  0  0  0  0  0  0  0
   -1.1400    0.2184    1.2688 O   0  0  0  0  0  0  0  0  0  0  0  0
   -2.1238    0.7961    0.4719 C   0  0  2  0  0  0  0  0  0  0  0  0
   -2.9155    1.8162    1.2416 C   0  0  0  0  0  0  0  0  0  0  0  0
   -3.5558    1.2841    2.3404 O   0  0  0  0  0  0  0  0  0  0  0  0
   -2.9721   -0.3633   -0.0114 C   0  0  1  0  0  0  0  0  0  0  0  0
   -4.1756    0.0064   -0.5429 O   0  0  0  0  0  0  0  0  0  0  0  0
   -2.0876   -1.0558   -1.0559 C   0  0  2  0  0  0  0  0  0  0  0  0
   -2.7374   -2.1561   -1.6080 O   0  0  0  0  0  0  0  0  0  0  0  0
   -0.7506   -1.3882   -0.5215 C   0  0  1  0  0  0  0  0  0  0  0  0
    0.1612   -1.2767   -1.5929 O   0  0  0  0  0  0  0  0  0  0  0  0
    0.8937    0.3410    0.1344 C   0  0  0  0  0  0  0  0  0  0  0  0
    0.9059    1.4479   -0.4595 O   0  0  0  0  0  0  0  0  0  0  0  0
    6.4366    0.3947    0.5376 H   0  0  0  0  0  0  0  0  0  0  0  0
    6.0008    2.0374   -0.1130 H   0  0  0  0  0  0  0  0  0  0  0  0
    5.6533    0.5294   -1.0568 H   0  0  0  0  0  0  0  0  0  0  0  0
    3.6387   -0.5070   -0.7653 H   0  0  0  0  0  0  0  0  0  0  0  0
   -0.1427   -1.9453    2.2379 H   0  0  0  0  0  0  0  0  0  0  0  0
   -1.6116    1.2986   -0.3730 H   0  0  0  0  0  0  0  0  0  0  0  0
   -3.6919    2.2409    0.5717 H   0  0  0  0  0  0  0  0  0  0  0  0
   -2.2185    2.6489    1.4670 H   0  0  0  0  0  0  0  0  0  0  0  0
   -4.5138    1.0889    2.1934 H   0  0  0  0  0  0  0  0  0  0  0  0
   -3.0847   -1.1097    0.8076 H   0  0  0  0  0  0  0  0  0  0  0  0
   -4.2268    0.9148   -0.8892 H   0  0  0  0  0  0  0  0  0  0  0  0
   -1.9837   -0.3225   -1.8847 H   0  0  0  0  0  0  0  0  0  0  0  0
   -3.6298   -1.8443   -1.9128 H   0  0  0  0  0  0  0  0  0  0  0  0
   -0.7278   -2.4697   -0.2638 H   0  0  0  0  0  0  0  0  0  0  0  0
    0.0061   -0.3395   -1.9354 H   0  0  0  0  0  0  0  0  0  0  0  0
  1  2  1  0
  2  3  2  0
  2  4  1  0
  4  5  1  0
  5  6  1  0
  6  7  2  0
  6  8  1  0
  8  9  1  0
  9 10  1  1
 10 11  1  0
 11 12  1  0
 12 13  1  0
 11 14  1  0
 14 15  1  0
 14 16  1  0
 16 17  1  0
 16 18  1  0
 18 19  1  0
  9 20  1  0
 20 21  2  0
 20  5  1  0
 18  9  1  0
  1 22  1  0
  1 23  1  0
  1 24  1  0
  4 25  1  0
  8 26  1  0
 11 27  1  6
 12 28  1  0
 12 29  1  0
 13 30  1  0
 14 31  1  1
 15 32  1  0
 16 33  1  6
 17 34  1  0
 18 35  1  1
 19 36  1  0
M  END
$$$$
