
     RDKit          3D

 26 26  0  0  0  0  0  0  0  0999 V2000
    3.8066   -0.2024    0.3980 C   0  0  0  0  0  0  0  0  0  0  0  0
    3.1490    0.6321   -0.5520 N   0  0  0  0  0  0  0  0  0  0  0  0
    1.7874    0.2902   -0.8187 C   0  0  0  0  0  0  0  0  0  0  0  0
    0.9318    0.5676    0.3873 C   0  0  2  0  0  0  0  0  0  0  0  0
    1.3315   -0.1571    1.4980 O   0  0  0  0  0  0  0  0  0  0  0  0
   -0.4766    0.2225    0.0272 C   0  0  0  0  0  0  0  0  0  0  0  0
   -1.3857    0.1681    1.0724 C   0  0  0  0  0  0  0  0  0  0  0  0
   -2.7173   -0.1397    0.8866 C   0  0  0  0  0  0  0  0  0  0  0  0
   -3.5706   -0.1739    1.9981 O   0  0  0  0  0  0  0  0  0  0  0  0
   -3.1870   -0.4073   -0.3812 C   0  0  0  0  0  0  0  0  0  0  0  0
   -4.5304   -0.7188   -0.5842 O   0  0  0  0  0  0  0  0  0  0  0  0
   -2.2990   -0.3583   -1.4316 C   0  0  0  0  0  0  0  0  0  0  0  0
   -0.9690   -0.0486   -1.2237 C   0  0  0  0  0  0  0  0  0  0  0  0
    3.4874   -1.2563    0.3714 H   0  0  0  0  0  0  0  0  0  0  0  0
    4.9093   -0.1308    0.1570 H   0  0  0  0  0  0  0  0  0  0  0  0
    3.6205    0.2142    1.4188 H   0  0  0  0  0  0  0  0  0  0  0  0
    3.7087    0.7537   -1.4213 H   0  0  0  0  0  0  0  0  0  0  0  0
    1.4660    0.9596   -1.6647 H   0  0  0  0  0  0  0  0  0  0  0  0
    1.6322   -0.7810   -1.1006 H   0  0  0  0  0  0  0  0  0  0  0  0
    0.9771    1.6527    0.6509 H   0  0  0  0  0  0  0  0  0  0  0  0
    1.2737   -1.1092    1.2887 H   0  0  0  0  0  0  0  0  0  0  0  0
   -1.0611    0.3733    2.0996 H   0  0  0  0  0  0  0  0  0  0  0  0
   -3.8574    0.6973    2.4486 H   0  0  0  0  0  0  0  0  0  0  0  0
   -5.1558   -0.0768   -1.0479 H   0  0  0  0  0  0  0  0  0  0  0  0
   -2.5944   -0.5566   -2.4486 H   0  0  0  0  0  0  0  0  0  0  0  0
   -0.2768   -0.0076   -2.0281 H   0  0  0  0  0  0  0  0  0  0  0  0
  1  2  1  0
  2  3  1  0
  3  4  1  0
  4  5  1  0
  4  6  1  0
  6  7  2  0
  7  8  1  0
  8  9  1  0
  8 10  2  0
 10 11  1  0
 10 12  1  0
 12 13  2  0
 13  6  1  0
  1 14  1  0
  1 15  1  0
  1 16  1  0
  2 17  1  0
  3 18  1  0
  3 19  1  0
  4 20  1  1
  5 21  1  0
  7 22  1  0
  9 23  1  0
 11 24  1  0
 12 25  1  0
 13 26  1  0
M  END
$$$$
