
     RDKit          3D

 52 56  0  0  0  0  0  0  0  0999 V2000
    2.1391   -1.7459   -0.9817 C   0  0  1  0  0  0  0  0  0  0  0  0
    2.2474   -3.0170   -1.7750 C   0  0  0  0  0  0  0  0  0  0  0  0
    0.8531   -3.2931   -1.9841 O   0  0  0  0  0  0  0  0  0  0  0  0
    0.1071   -2.8405   -0.8765 C   0  0  0  0  0  0  0  0  0  0  0  0
   -1.1053   -3.1900   -1.0922 O   0  0  0  0  0  0  0  0  0  0  0  0
    1.0712   -2.1757    0.0139 C   0  0  2  0  0  0  0  0  0  0  0  0
    0.6016   -0.9743    0.7379 C   0  0  2  0  0  0  0  0  0  0  0  0
   -0.6973   -0.4352    0.3454 C   0  0  0  0  0  0  0  0  0  0  0  0
   -1.1432   -0.2958   -0.9460 C   0  0  0  0  0  0  0  0  0  0  0  0
   -2.3734    0.2149   -1.3028 C   0  0  0  0  0  0  0  0  0  0  0  0
   -2.7825    0.3373   -2.6250 O   0  0  0  0  0  0  0  0  0  0  0  0
   -1.8771   -0.0886   -3.6258 C   0  0  0  0  0  0  0  0  0  0  0  0
   -3.2483    0.6267   -0.3234 C   0  0  0  0  0  0  0  0  0  0  0  0
   -4.4878    1.1441   -0.6137 O   0  0  0  0  0  0  0  0  0  0  0  0
   -5.5967    0.2514   -0.7132 C   0  0  0  0  0  0  0  0  0  0  0  0
   -2.8814    0.5225    1.0019 C   0  0  0  0  0  0  0  0  0  0  0  0
   -3.7230    0.9220    2.0294 O   0  0  0  0  0  0  0  0  0  0  0  0
   -3.3075    0.7973    3.3627 C   0  0  0  0  0  0  0  0  0  0  0  0
   -1.6380    0.0033    1.2878 C   0  0  0  0  0  0  0  0  0  0  0  0
    1.6827    0.0738    0.8171 C   0  0  0  0  0  0  0  0  0  0  0  0
    1.2590    1.2858    1.3523 C   0  0  0  0  0  0  0  0  0  0  0  0
    2.1434    2.3602    1.4943 C   0  0  0  0  0  0  0  0  0  0  0  0
    3.4522    2.1925    1.0905 C   0  0  0  0  0  0  0  0  0  0  0  0
    4.1587    3.3686    1.3149 O   0  0  0  0  0  0  0  0  0  0  0  0
    3.2166    4.4073    1.5444 C   0  0  0  0  0  0  0  0  0  0  0  0
    2.0876    3.6637    1.9643 O   0  0  0  0  0  0  0  0  0  0  0  0
    3.8681    0.9992    0.5640 C   0  0  0  0  0  0  0  0  0  0  0  0
    2.9985   -0.0609    0.4230 C   0  0  0  0  0  0  0  0  0  0  0  0
    3.3454   -1.4153   -0.1433 C   0  0  2  0  0  0  0  0  0  0  0  0
    4.5174   -1.3845   -0.8571 O   0  0  0  0  0  0  0  0  0  0  0  0
    1.8378   -0.9155   -1.6240 H   0  0  0  0  0  0  0  0  0  0  0  0
    2.7349   -3.8203   -1.2166 H   0  0  0  0  0  0  0  0  0  0  0  0
    2.6836   -2.7937   -2.7624 H   0  0  0  0  0  0  0  0  0  0  0  0
    1.5756   -2.8962    0.6962 H   0  0  0  0  0  0  0  0  0  0  0  0
    0.4848   -1.2913    1.8204 H   0  0  0  0  0  0  0  0  0  0  0  0
   -0.5238   -0.5915   -1.7562 H   0  0  0  0  0  0  0  0  0  0  0  0
   -1.5214   -1.1151   -3.4582 H   0  0  0  0  0  0  0  0  0  0  0  0
   -0.9738    0.5880   -3.6423 H   0  0  0  0  0  0  0  0  0  0  0  0
   -2.3292    0.0217   -4.6434 H   0  0  0  0  0  0  0  0  0  0  0  0
   -5.7772   -0.3132    0.2096 H   0  0  0  0  0  0  0  0  0  0  0  0
   -6.5079    0.7893   -1.0190 H   0  0  0  0  0  0  0  0  0  0  0  0
   -5.3783   -0.4828   -1.5283 H   0  0  0  0  0  0  0  0  0  0  0  0
   -4.0503    1.2382    4.0455 H   0  0  0  0  0  0  0  0  0  0  0  0
   -2.3259    1.3096    3.5236 H   0  0  0  0  0  0  0  0  0  0  0  0
   -3.1398   -0.2787    3.6063 H   0  0  0  0  0  0  0  0  0  0  0  0
   -1.3759   -0.0670    2.3498 H   0  0  0  0  0  0  0  0  0  0  0  0
    0.2650    1.5621    1.7109 H   0  0  0  0  0  0  0  0  0  0  0  0
    3.6294    5.0360    2.3456 H   0  0  0  0  0  0  0  0  0  0  0  0
    3.0298    4.9789    0.6208 H   0  0  0  0  0  0  0  0  0  0  0  0
    4.8843    0.8096    0.2297 H   0  0  0  0  0  0  0  0  0  0  0  0
    3.3828   -2.1223    0.7097 H   0  0  0  0  0  0  0  0  0  0  0  0
    4.5078   -1.8996   -1.7015 H   0  0  0  0  0  0  0  0  0  0  0  0
  1  2  1  0
  2  3  1  0
  3  4  1  0
  4  5  2  0
  4  6  1  0
  6  7  1  0
  7  8  1  0
  8  9  2  0
  9 10  1  0
 10 11  1  0
 11 12  1  0
 10 13  2  0
 13 14  1  0
 14 15  1  0
 13 16  1  0
 16 17  1  0
 17 18  1  0
 16 19  2  0
  7 20  1  0
 20 21  2  0
 21 22  1  0
 22 23  2  0
 23 24  1  0
 24 25  1  0
 25 26  1  0
 23 27  1  0
 27 28  2  0
 28 29  1  0
 29 30  1  0
  6  1  1  0
 19  8  1  0
 28 20  1  0
 29  1  1  0
 26 22  1  0
  1 31  1  6
  2 32  1  0
  2 33  1  0
  6 34  1  1
  7 35  1  1
  9 36  1  0
 12 37  1  0
 12 38  1  0
 12 39  1  0
 15 40  1  0
 15 41  1  0
 15 42  1  0
 18 43  1  0
 18 44  1  0
 18 45  1  0
 19 46  1  0
 21 47  1  0
 25 48  1  0
 25 49  1  0
 27 50  1  0
 29 51  1  1
 30 52  1  0
M  END
$$$$
