@<TRIPOS>MOLECULE
*****
 52 56 0 0 0
SMALL
GASTEIGER

@<TRIPOS>ATOM
      1 C           2.1391   -1.7459   -0.9817 C.3     1  UNL1        0.0372
      2 C           2.2474   -3.0170   -1.7750 C.3     1  UNL1        0.0987
      3 O           0.8531   -3.2931   -1.9841 O.3     1  UNL1       -0.4640
      4 C           0.1071   -2.8405   -0.8765 C.2     1  UNL1        0.3116
      5 O          -1.1053   -3.1900   -1.0922 O.2     1  UNL1       -0.2505
      6 C           1.0712   -2.1757    0.0139 C.3     1  UNL1        0.0757
      7 C           0.6016   -0.9743    0.7379 C.3     1  UNL1        0.0233
      8 C          -0.6973   -0.4352    0.3454 C.ar    1  UNL1       -0.0320
      9 C          -1.1432   -0.2958   -0.9460 C.ar    1  UNL1       -0.0123
     10 C          -2.3734    0.2149   -1.3028 C.ar    1  UNL1        0.1654
     11 O          -2.7825    0.3373   -2.6250 O.3     1  UNL1       -0.4913
     12 C          -1.8771   -0.0886   -3.6258 C.3     1  UNL1        0.0790
     13 C          -3.2483    0.6267   -0.3234 C.ar    1  UNL1        0.2035
     14 O          -4.4878    1.1441   -0.6137 O.3     1  UNL1       -0.4885
     15 C          -5.5967    0.2514   -0.7132 C.3     1  UNL1        0.0791
     16 C          -2.8814    0.5225    1.0019 C.ar    1  UNL1        0.1654
     17 O          -3.7230    0.9220    2.0294 O.3     1  UNL1       -0.4913
     18 C          -3.3075    0.7973    3.3627 C.3     1  UNL1        0.0790
     19 C          -1.6380    0.0033    1.2878 C.ar    1  UNL1       -0.0123
     20 C           1.6827    0.0738    0.8171 C.ar    1  UNL1       -0.0299
     21 C           1.2590    1.2858    1.3523 C.ar    1  UNL1       -0.0120
     22 C           2.1434    2.3602    1.4943 C.ar    1  UNL1        0.1665
     23 C           3.4522    2.1925    1.0905 C.ar    1  UNL1        0.1666
     24 O           4.1587    3.3686    1.3149 O.3     1  UNL1       -0.4526
     25 C           3.2166    4.4073    1.5444 C.3     1  UNL1        0.2332
     26 O           2.0876    3.6637    1.9643 O.3     1  UNL1       -0.4526
     27 C           3.8681    0.9992    0.5640 C.ar    1  UNL1       -0.0102
     28 C           2.9985   -0.0609    0.4230 C.ar    1  UNL1       -0.0113
     29 C           3.3454   -1.4153   -0.1433 C.3     1  UNL1        0.0872
     30 O           4.5174   -1.3845   -0.8571 O.3     1  UNL1       -0.3868
     31 H           1.8378   -0.9155   -1.6240 H       1  UNL1        0.0370
     32 H           2.7349   -3.8203   -1.2166 H       1  UNL1        0.0701
     33 H           2.6836   -2.7937   -2.7624 H       1  UNL1        0.0701
     34 H           1.5756   -2.8962    0.6962 H       1  UNL1        0.0427
     35 H           0.4848   -1.2913    1.8204 H       1  UNL1        0.0405
     36 H          -0.5238   -0.5915   -1.7562 H       1  UNL1        0.0658
     37 H          -1.5214   -1.1151   -3.4582 H       1  UNL1        0.0660
     38 H          -0.9738    0.5880   -3.6423 H       1  UNL1        0.0660
     39 H          -2.3292    0.0217   -4.6434 H       1  UNL1        0.0660
     40 H          -5.7772   -0.3132    0.2096 H       1  UNL1        0.0660
     41 H          -6.5079    0.7893   -1.0190 H       1  UNL1        0.0660
     42 H          -5.3783   -0.4828   -1.5283 H       1  UNL1        0.0660
     43 H          -4.0503    1.2382    4.0455 H       1  UNL1        0.0660
     44 H          -2.3259    1.3096    3.5236 H       1  UNL1        0.0660
     45 H          -3.1398   -0.2787    3.6063 H       1  UNL1        0.0660
     46 H          -1.3759   -0.0670    2.3498 H       1  UNL1        0.0658
     47 H           0.2650    1.5621    1.7109 H       1  UNL1        0.0658
     48 H           3.6294    5.0360    2.3456 H       1  UNL1        0.1166
     49 H           3.0298    4.9789    0.6208 H       1  UNL1        0.1166
     50 H           4.8843    0.8096    0.2297 H       1  UNL1        0.0659
     51 H           3.3828   -2.1223    0.7097 H       1  UNL1        0.0648
     52 H           4.5078   -1.8996   -1.7015 H       1  UNL1        0.2102
@<TRIPOS>BOND
     1     1     2    1
     2     2     3    1
     3     3     4    1
     4     4     5    2
     5     4     6    1
     6     6     7    1
     7     7     8    1
     8     8     9   ar
     9     9    10   ar
    10    10    11    1
    11    11    12    1
    12    10    13   ar
    13    13    14    1
    14    14    15    1
    15    13    16   ar
    16    16    17    1
    17    17    18    1
    18    16    19   ar
    19     7    20    1
    20    20    21   ar
    21    21    22   ar
    22    22    23   ar
    23    23    24    1
    24    24    25    1
    25    25    26    1
    26    23    27   ar
    27    27    28   ar
    28    28    29    1
    29    29    30    1
    30     6     1    1
    31    19     8   ar
    32    28    20   ar
    33    29     1    1
    34    26    22    1
    35     1    31    1
    36     2    32    1
    37     2    33    1
    38     6    34    1
    39     7    35    1
    40     9    36    1
    41    12    37    1
    42    12    38    1
    43    12    39    1
    44    15    40    1
    45    15    41    1
    46    15    42    1
    47    18    43    1
    48    18    44    1
    49    18    45    1
    50    19    46    1
    51    21    47    1
    52    25    48    1
    53    25    49    1
    54    27    50    1
    55    29    51    1
    56    30    52    1
