
     RDKit          3D

 52 53  0  0  0  0  0  0  0  0999 V2000
    6.4199    2.4611   -0.8751 C   0  0  0  0  0  0  0  0  0  0  0  0
    4.9313    2.5992   -0.5385 C   0  0  0  0  0  0  0  0  0  0  0  0
    4.5900    1.5262    0.5074 C   0  0  0  0  0  0  0  0  0  0  0  0
    4.8879    0.2703   -0.0953 N   0  0  0  0  0  0  0  0  0  0  0  0
    4.6779   -0.8892    0.6986 C   0  0  0  0  0  0  0  0  0  0  0  0
    3.2255   -1.1956    1.0129 C   0  0  0  0  0  0  0  0  0  0  0  0
    3.1818   -2.3249    1.7788 O   0  0  0  0  0  0  0  0  0  0  0  0
    2.3679   -1.1871   -0.2021 C   0  0  0  0  0  0  0  0  0  0  0  0
    1.0246   -1.3269   -0.0853 O   0  0  0  0  0  0  0  0  0  0  0  0
    0.1367   -2.2264    0.3270 C   0  0  0  0  0  0  0  0  0  0  0  0
   -1.1975   -1.8050    0.2302 C   0  0  0  0  0  0  0  0  0  0  0  0
   -2.2392   -2.6228    0.6162 C   0  0  0  0  0  0  0  0  0  0  0  0
   -2.0014   -3.8865    1.1118 C   0  0  0  0  0  0  0  0  0  0  0  0
   -0.7112   -4.3549    1.2291 C   0  0  0  0  0  0  0  0  0  0  0  0
    0.2898   -3.4979    0.8292 C   0  0  0  0  0  0  0  0  0  0  0  0
   -1.5795   -0.5142   -0.2644 C   0  0  0  0  0  0  0  0  0  0  0  0
   -0.5641    0.1989   -0.5943 O   0  0  0  0  0  0  0  0  0  0  0  0
   -2.6595    0.3937   -0.5748 C   0  0  0  0  0  0  0  0  0  0  0  0
   -4.0647   -0.1430   -0.3790 C   0  0  0  0  0  0  0  0  0  0  0  0
   -4.9905    0.9933   -0.7682 C   0  0  0  0  0  0  0  0  0  0  0  0
   -5.3945    1.9122    0.2036 C   0  0  0  0  0  0  0  0  0  0  0  0
   -6.2305    2.9812   -0.0288 C   0  0  0  0  0  0  0  0  0  0  0  0
   -6.6874    3.1367   -1.3117 C   0  0  0  0  0  0  0  0  0  0  0  0
   -6.3172    2.2581   -2.3021 C   0  0  0  0  0  0  0  0  0  0  0  0
   -5.4714    1.1867   -2.0393 C   0  0  0  0  0  0  0  0  0  0  0  0
    6.7941    1.4910   -0.4717 H   0  0  0  0  0  0  0  0  0  0  0  0
    6.5182    2.4003   -1.9783 H   0  0  0  0  0  0  0  0  0  0  0  0
    7.0200    3.3064   -0.5297 H   0  0  0  0  0  0  0  0  0  0  0  0
    4.8336    3.6189   -0.0734 H   0  0  0  0  0  0  0  0  0  0  0  0
    4.3007    2.4957   -1.4229 H   0  0  0  0  0  0  0  0  0  0  0  0
    3.4935    1.6020    0.6883 H   0  0  0  0  0  0  0  0  0  0  0  0
    5.1742    1.6516    1.4214 H   0  0  0  0  0  0  0  0  0  0  0  0
    4.6243    0.1390   -1.0738 H   0  0  0  0  0  0  0  0  0  0  0  0
    5.1927   -0.8633    1.6801 H   0  0  0  0  0  0  0  0  0  0  0  0
    5.1749   -1.7434    0.1512 H   0  0  0  0  0  0  0  0  0  0  0  0
    2.8895   -0.3410    1.6552 H   0  0  0  0  0  0  0  0  0  0  0  0
    2.6926   -2.2188    2.6286 H   0  0  0  0  0  0  0  0  0  0  0  0
    2.6532   -0.2349   -0.7726 H   0  0  0  0  0  0  0  0  0  0  0  0
    2.8224   -1.9768   -0.8995 H   0  0  0  0  0  0  0  0  0  0  0  0
   -3.3048   -2.4551    0.6077 H   0  0  0  0  0  0  0  0  0  0  0  0
   -2.7553   -4.5969    1.4388 H   0  0  0  0  0  0  0  0  0  0  0  0
   -0.4750   -5.3419    1.6139 H   0  0  0  0  0  0  0  0  0  0  0  0
    1.2780   -3.8745    0.9063 H   0  0  0  0  0  0  0  0  0  0  0  0
   -2.5828    1.3788   -0.0171 H   0  0  0  0  0  0  0  0  0  0  0  0
   -2.6420    0.7267   -1.6551 H   0  0  0  0  0  0  0  0  0  0  0  0
   -4.3257   -0.3441    0.6731 H   0  0  0  0  0  0  0  0  0  0  0  0
   -4.2803   -1.0305   -0.9745 H   0  0  0  0  0  0  0  0  0  0  0  0
   -5.0021    1.7395    1.2005 H   0  0  0  0  0  0  0  0  0  0  0  0
   -6.4855    3.6363    0.7873 H   0  0  0  0  0  0  0  0  0  0  0  0
   -7.3568    3.9759   -1.5396 H   0  0  0  0  0  0  0  0  0  0  0  0
   -6.7053    2.4310   -3.2818 H   0  0  0  0  0  0  0  0  0  0  0  0
   -5.1711    0.4851   -2.8143 H   0  0  0  0  0  0  0  0  0  0  0  0
  1  2  1  0
  2  3  1  0
  3  4  1  0
  4  5  1  0
  5  6  1  0
  6  7  1  0
  6  8  1  0
  8  9  1  0
  9 10  1  0
 10 11  2  0
 11 12  1  0
 12 13  2  0
 13 14  1  0
 14 15  2  0
 11 16  1  0
 16 17  2  0
 16 18  1  0
 18 19  1  0
 19 20  1  0
 20 21  2  0
 21 22  1  0
 22 23  2  0
 23 24  1  0
 24 25  2  0
 15 10  1  0
 25 20  1  0
  1 26  1  0
  1 27  1  0
  1 28  1  0
  2 29  1  0
  2 30  1  0
  3 31  1  0
  3 32  1  0
  4 33  1  0
  5 34  1  0
  5 35  1  0
  6 36  1  0
  7 37  1  0
  8 38  1  0
  8 39  1  0
 12 40  1  0
 13 41  1  0
 14 42  1  0
 15 43  1  0
 18 44  1  0
 18 45  1  0
 19 46  1  0
 19 47  1  0
 21 48  1  0
 22 49  1  0
 23 50  1  0
 24 51  1  0
 25 52  1  0
M  END
$$$$
