@<TRIPOS>MOLECULE
*****
 41 43 0 0 0
SMALL
GASTEIGER

@<TRIPOS>ATOM
      1 O           2.3099   -2.0450    1.1615 O.2     1  UNL1       -0.2524
      2 C           2.0782   -0.9344    0.4858 C.2     1  UNL1        0.3050
      3 N           3.0890   -0.3845   -0.2507 N.am    1  UNL1       -0.2811
      4 C           3.0998    0.7503   -1.0968 C.3     1  UNL1        0.0396
      5 C           3.7995    1.8742   -0.3313 C.3     1  UNL1        0.0635
      6 O           4.7874    1.2870    0.4807 O.3     1  UNL1       -0.3767
      7 C           5.3751    0.1880   -0.1446 C.3     1  UNL1        0.0635
      8 C           4.4362   -1.0325   -0.1473 C.3     1  UNL1        0.0396
      9 N           0.7610   -0.4870    0.6532 N.am    1  UNL1       -0.2825
     10 C           0.2448    0.7041    0.0728 C.3     1  UNL1        0.0319
     11 C          -1.1172    1.0189    0.7195 C.3     1  UNL1        0.0281
     12 N          -1.9499   -0.1364    0.4377 N.pl3   1  UNL1       -0.3269
     13 C          -3.3011   -0.0057    0.0504 C.ar    1  UNL1        0.0298
     14 C          -4.0191   -1.1104   -0.3968 C.ar    1  UNL1       -0.0396
     15 C          -5.3409   -1.0330   -0.7783 C.ar    1  UNL1       -0.0460
     16 C          -6.0255    0.1626   -0.7344 C.ar    1  UNL1        0.0180
     17 BR         -7.8603    0.2723   -1.2637 Br      1  UNL1       -0.0503
     18 C          -5.3276    1.2657   -0.2936 C.ar    1  UNL1       -0.0460
     19 C          -3.9844    1.1903    0.0949 C.ar    1  UNL1       -0.0396
     20 C          -1.3945   -1.4965    0.5613 C.3     1  UNL1        0.0281
     21 C          -0.1856   -1.2983    1.4881 C.3     1  UNL1        0.0319
     22 H           2.1514    1.0539   -1.4724 H       1  UNL1        0.0488
     23 H           3.7460    0.5202   -2.0252 H       1  UNL1        0.0488
     24 H           3.1083    2.4309    0.3100 H       1  UNL1        0.0575
     25 H           4.2644    2.5350   -1.0857 H       1  UNL1        0.0575
     26 H           6.3052   -0.0341    0.4181 H       1  UNL1        0.0575
     27 H           5.6078    0.4263   -1.1976 H       1  UNL1        0.0575
     28 H           4.5184   -1.6303    0.7602 H       1  UNL1        0.0488
     29 H           4.5326   -1.6282   -1.0694 H       1  UNL1        0.0488
     30 H          -0.0070    0.5400   -0.9910 H       1  UNL1        0.0480
     31 H           0.8485    1.6056    0.2826 H       1  UNL1        0.0480
     32 H          -1.0263    1.2370    1.7823 H       1  UNL1        0.0479
     33 H          -1.4792    1.9074    0.1912 H       1  UNL1        0.0479
     34 H          -3.5063   -2.0741   -0.4464 H       1  UNL1        0.0636
     35 H          -5.8610   -1.9223   -1.1208 H       1  UNL1        0.0629
     36 H          -5.8323    2.2061   -0.2489 H       1  UNL1        0.0629
     37 H          -3.4584    2.0699    0.4404 H       1  UNL1        0.0636
     38 H          -1.0076   -1.8525   -0.4130 H       1  UNL1        0.0479
     39 H          -2.1300   -2.1664    1.0282 H       1  UNL1        0.0479
     40 H           0.3035   -2.2317    1.7543 H       1  UNL1        0.0480
     41 H          -0.5522   -0.6851    2.3350 H       1  UNL1        0.0480
@<TRIPOS>BOND
     1     1     2    2
     2     2     3   am
     3     3     4    1
     4     4     5    1
     5     5     6    1
     6     6     7    1
     7     7     8    1
     8     2     9   am
     9     9    10    1
    10    10    11    1
    11    11    12    1
    12    12    13    1
    13    13    14   ar
    14    14    15   ar
    15    15    16   ar
    16    16    17    1
    17    16    18   ar
    18    18    19   ar
    19    12    20    1
    20    20    21    1
    21     8     3    1
    22    21     9    1
    23    19    13   ar
    24     4    22    1
    25     4    23    1
    26     5    24    1
    27     5    25    1
    28     7    26    1
    29     7    27    1
    30     8    28    1
    31     8    29    1
    32    10    30    1
    33    10    31    1
    34    11    32    1
    35    11    33    1
    36    14    34    1
    37    15    35    1
    38    18    36    1
    39    19    37    1
    40    20    38    1
    41    20    39    1
    42    21    40    1
    43    21    41    1
