
     RDKit          3D

 41 43  0  0  0  0  0  0  0  0999 V2000
    2.3099   -2.0450    1.1615 O   0  0  0  0  0  0  0  0  0  0  0  0
    2.0782   -0.9344    0.4858 C   0  0  0  0  0  0  0  0  0  0  0  0
    3.0890   -0.3845   -0.2507 N   0  0  0  0  0  0  0  0  0  0  0  0
    3.0998    0.7503   -1.0968 C   0  0  0  0  0  0  0  0  0  0  0  0
    3.7995    1.8742   -0.3313 C   0  0  0  0  0  0  0  0  0  0  0  0
    4.7874    1.2870    0.4807 O   0  0  0  0  0  0  0  0  0  0  0  0
    5.3751    0.1880   -0.1446 C   0  0  0  0  0  0  0  0  0  0  0  0
    4.4362   -1.0325   -0.1473 C   0  0  0  0  0  0  0  0  0  0  0  0
    0.7610   -0.4870    0.6532 N   0  0  0  0  0  0  0  0  0  0  0  0
    0.2448    0.7041    0.0728 C   0  0  0  0  0  0  0  0  0  0  0  0
   -1.1172    1.0189    0.7195 C   0  0  0  0  0  0  0  0  0  0  0  0
   -1.9499   -0.1364    0.4377 N   0  0  0  0  0  0  0  0  0  0  0  0
   -3.3011   -0.0057    0.0504 C   0  0  0  0  0  0  0  0  0  0  0  0
   -4.0191   -1.1104   -0.3968 C   0  0  0  0  0  0  0  0  0  0  0  0
   -5.3409   -1.0330   -0.7783 C   0  0  0  0  0  0  0  0  0  0  0  0
   -6.0255    0.1626   -0.7344 C   0  0  0  0  0  0  0  0  0  0  0  0
   -7.8603    0.2723   -1.2637 Br  0  0  0  0  0  0  0  0  0  0  0  0
   -5.3276    1.2657   -0.2936 C   0  0  0  0  0  0  0  0  0  0  0  0
   -3.9844    1.1903    0.0949 C   0  0  0  0  0  0  0  0  0  0  0  0
   -1.3945   -1.4965    0.5613 C   0  0  0  0  0  0  0  0  0  0  0  0
   -0.1856   -1.2983    1.4881 C   0  0  0  0  0  0  0  0  0  0  0  0
    2.1514    1.0539   -1.4724 H   0  0  0  0  0  0  0  0  0  0  0  0
    3.7460    0.5202   -2.0252 H   0  0  0  0  0  0  0  0  0  0  0  0
    3.1083    2.4309    0.3100 H   0  0  0  0  0  0  0  0  0  0  0  0
    4.2644    2.5350   -1.0857 H   0  0  0  0  0  0  0  0  0  0  0  0
    6.3052   -0.0341    0.4181 H   0  0  0  0  0  0  0  0  0  0  0  0
    5.6078    0.4263   -1.1976 H   0  0  0  0  0  0  0  0  0  0  0  0
    4.5184   -1.6303    0.7602 H   0  0  0  0  0  0  0  0  0  0  0  0
    4.5326   -1.6282   -1.0694 H   0  0  0  0  0  0  0  0  0  0  0  0
   -0.0070    0.5400   -0.9910 H   0  0  0  0  0  0  0  0  0  0  0  0
    0.8485    1.6056    0.2826 H   0  0  0  0  0  0  0  0  0  0  0  0
   -1.0263    1.2370    1.7823 H   0  0  0  0  0  0  0  0  0  0  0  0
   -1.4792    1.9074    0.1912 H   0  0  0  0  0  0  0  0  0  0  0  0
   -3.5063   -2.0741   -0.4464 H   0  0  0  0  0  0  0  0  0  0  0  0
   -5.8610   -1.9223   -1.1208 H   0  0  0  0  0  0  0  0  0  0  0  0
   -5.8323    2.2061   -0.2489 H   0  0  0  0  0  0  0  0  0  0  0  0
   -3.4584    2.0699    0.4404 H   0  0  0  0  0  0  0  0  0  0  0  0
   -1.0076   -1.8525   -0.4130 H   0  0  0  0  0  0  0  0  0  0  0  0
   -2.1300   -2.1664    1.0282 H   0  0  0  0  0  0  0  0  0  0  0  0
    0.3035   -2.2317    1.7543 H   0  0  0  0  0  0  0  0  0  0  0  0
   -0.5522   -0.6851    2.3350 H   0  0  0  0  0  0  0  0  0  0  0  0
  1  2  2  0
  2  3  1  0
  3  4  1  0
  4  5  1  0
  5  6  1  0
  6  7  1  0
  7  8  1  0
  2  9  1  0
  9 10  1  0
 10 11  1  0
 11 12  1  0
 12 13  1  0
 13 14  2  0
 14 15  1  0
 15 16  2  0
 16 17  1  0
 16 18  1  0
 18 19  2  0
 12 20  1  0
 20 21  1  0
  8  3  1  0
 21  9  1  0
 19 13  1  0
  4 22  1  0
  4 23  1  0
  5 24  1  0
  5 25  1  0
  7 26  1  0
  7 27  1  0
  8 28  1  0
  8 29  1  0
 10 30  1  0
 10 31  1  0
 11 32  1  0
 11 33  1  0
 14 34  1  0
 15 35  1  0
 18 36  1  0
 19 37  1  0
 20 38  1  0
 20 39  1  0
 21 40  1  0
 21 41  1  0
M  END
$$$$
