@<TRIPOS>MOLECULE
*****
 69 73 0 0 0
SMALL
GASTEIGER

@<TRIPOS>ATOM
      1 C           0.0602    2.6052   -0.9452 C.3     1  UNL1       -0.0421
      2 C           0.0363    1.2108   -1.5628 C.3     1  UNL1        0.0515
      3 C           1.2975    0.5228   -1.2825 C.ar    1  UNL1       -0.0271
      4 C           1.4938   -0.8335   -1.4132 C.ar    1  UNL1       -0.0562
      5 C           2.7212   -1.3944   -1.1262 C.ar    1  UNL1       -0.0522
      6 C           3.7923   -0.6473   -0.7032 C.ar    1  UNL1        0.0021
      7 C           5.1026   -1.2070   -0.3909 C.ar    1  UNL1        0.0916
      8 C           5.4083   -2.5317   -0.4841 C.ar    1  UNL1       -0.0289
      9 C           6.6755   -2.9747   -0.1681 C.ar    1  UNL1        0.0064
     10 C           7.6281   -2.0823    0.2398 C.ar    1  UNL1        0.2675
     11 O           8.7989   -2.4231    0.5413 O.2     1  UNL1       -0.2662
     12 N           7.3006   -0.7597    0.3262 N.ar    1  UNL1       -0.2259
     13 C           8.3084    0.1843    0.7578 C.3     1  UNL1        0.0566
     14 C           8.3259    1.5504    0.0466 C.3     1  UNL1       -0.0284
     15 C           7.9611    1.4042    1.5046 C.3     1  UNL1       -0.0284
     16 N           6.0919   -0.3751    0.0195 N.ar    1  UNL1       -0.1680
     17 C           3.5893    0.7150   -0.5737 C.ar    1  UNL1       -0.0522
     18 C           2.3697    1.2787   -0.8581 C.ar    1  UNL1       -0.0562
     19 N          -1.1241    0.5614   -1.0406 N.am    1  UNL1       -0.2605
     20 C          -1.3318    0.2488    0.3619 C.3     1  UNL1        0.0224
     21 C          -2.7548    0.6144    0.7870 C.3     1  UNL1        0.0076
     22 C          -3.7785   -0.0392   -0.0460 C.3     1  UNL1        0.1440
     23 C          -5.1517    0.4617    0.2119 C.3     1  UNL1        0.0199
     24 C          -5.5248    1.8584    0.0088 C.3     1  UNL1        0.0645
     25 C          -4.8775    2.9354    0.7955 C.3     1  UNL1       -0.0362
     26 C          -7.0364    1.9459    0.3496 C.3     1  UNL1       -0.0362
     27 O          -5.4988    2.1795   -1.3737 O.3     1  UNL1       -0.3890
     28 C          -3.8577   -1.5223    0.2646 C.ar    1  UNL1       -0.0040
     29 C          -4.5846   -2.2807   -0.6387 C.ar    1  UNL1       -0.0548
     30 C          -4.7625   -3.6291   -0.4820 C.ar    1  UNL1       -0.0614
     31 C          -4.1937   -4.2400    0.6159 C.ar    1  UNL1       -0.0617
     32 C          -3.4742   -3.5002    1.5140 C.ar    1  UNL1       -0.0614
     33 C          -3.3031   -2.1200    1.3369 C.ar    1  UNL1       -0.0548
     34 O          -3.4551   -0.0203   -1.4366 O.3     1  UNL1       -0.4387
     35 C          -2.1719    0.1781   -1.9240 C.2     1  UNL1        0.4042
     36 O          -1.8971    0.0261   -3.1550 O.2     1  UNL1       -0.2262
     37 H          -0.9973    2.9675   -0.9983 H       1  UNL1        0.0251
     38 H           0.6610    3.2381   -1.6161 H       1  UNL1        0.0251
     39 H           0.4293    2.5619    0.0944 H       1  UNL1        0.0251
     40 H          -0.0480    1.3328   -2.6511 H       1  UNL1        0.0549
     41 H           0.6499   -1.4185   -1.7459 H       1  UNL1        0.0621
     42 H           2.8450   -2.4572   -1.2377 H       1  UNL1        0.0624
     43 H           4.6536   -3.2292   -0.8061 H       1  UNL1        0.0641
     44 H           6.9205   -4.0247   -0.2411 H       1  UNL1        0.0673
     45 H           9.3244   -0.2248    0.9510 H       1  UNL1        0.0546
     46 H           7.5368    1.6719   -0.7091 H       1  UNL1        0.0286
     47 H           9.3147    1.9650   -0.2274 H       1  UNL1        0.0286
     48 H           6.9020    1.6256    1.7804 H       1  UNL1        0.0286
     49 H           8.6804    1.8121    2.2417 H       1  UNL1        0.0286
     50 H           4.4094    1.3271   -0.2443 H       1  UNL1        0.0624
     51 H           2.2807    2.3633   -0.7338 H       1  UNL1        0.0621
     52 H          -1.1832   -0.8184    0.5661 H       1  UNL1        0.0467
     53 H          -0.6444    0.8372    0.9706 H       1  UNL1        0.0467
     54 H          -2.7578    1.7277    0.7279 H       1  UNL1        0.0322
     55 H          -2.8363    0.3847    1.8585 H       1  UNL1        0.0322
     56 H          -5.9231   -0.1541   -0.3815 H       1  UNL1        0.0335
     57 H          -5.4706    0.1878    1.2776 H       1  UNL1        0.0335
     58 H          -4.1309    3.4664    0.1646 H       1  UNL1        0.0257
     59 H          -4.5259    2.6820    1.7945 H       1  UNL1        0.0257
     60 H          -5.6351    3.7872    1.0018 H       1  UNL1        0.0257
     61 H          -7.4829    2.8471   -0.0717 H       1  UNL1        0.0257
     62 H          -7.0668    1.9649    1.4581 H       1  UNL1        0.0257
     63 H          -7.5348    1.0068    0.0305 H       1  UNL1        0.0257
     64 H          -6.1145    1.5826   -1.8807 H       1  UNL1        0.2101
     65 H          -5.0505   -1.8302   -1.5217 H       1  UNL1        0.0622
     66 H          -5.3200   -4.2500   -1.1618 H       1  UNL1        0.0618
     67 H          -4.3003   -5.2905    0.7881 H       1  UNL1        0.0618
     68 H          -3.0298   -3.9544    2.3645 H       1  UNL1        0.0618
     69 H          -2.7387   -1.5877    2.0845 H       1  UNL1        0.0622
@<TRIPOS>BOND
     1     1     2    1
     2     2     3    1
     3     3     4   ar
     4     4     5   ar
     5     5     6   ar
     6     6     7    1
     7     7     8   ar
     8     8     9   ar
     9     9    10   ar
    10    10    11    2
    11    10    12   ar
    12    12    13    1
    13    13    14    1
    14    14    15    1
    15    12    16   ar
    16     6    17   ar
    17    17    18   ar
    18     2    19    1
    19    19    20    1
    20    20    21    1
    21    21    22    1
    22    22    23    1
    23    23    24    1
    24    24    25    1
    25    24    26    1
    26    24    27    1
    27    22    28    1
    28    28    29   ar
    29    29    30   ar
    30    30    31   ar
    31    31    32   ar
    32    32    33   ar
    33    22    34    1
    34    34    35    1
    35    35    36    2
    36    18     3   ar
    37    35    19   am
    38    16     7   ar
    39    33    28   ar
    40    15    13    1
    41     1    37    1
    42     1    38    1
    43     1    39    1
    44     2    40    1
    45     4    41    1
    46     5    42    1
    47     8    43    1
    48     9    44    1
    49    13    45    1
    50    14    46    1
    51    14    47    1
    52    15    48    1
    53    15    49    1
    54    17    50    1
    55    18    51    1
    56    20    52    1
    57    20    53    1
    58    21    54    1
    59    21    55    1
    60    23    56    1
    61    23    57    1
    62    25    58    1
    63    25    59    1
    64    25    60    1
    65    26    61    1
    66    26    62    1
    67    26    63    1
    68    27    64    1
    69    29    65    1
    70    30    66    1
    71    31    67    1
    72    32    68    1
    73    33    69    1
