
     RDKit          3D

 69 73  0  0  0  0  0  0  0  0999 V2000
    0.0602    2.6052   -0.9452 C   0  0  0  0  0  0  0  0  0  0  0  0
    0.0363    1.2108   -1.5628 C   0  0  1  0  0  0  0  0  0  0  0  0
    1.2975    0.5228   -1.2825 C   0  0  0  0  0  0  0  0  0  0  0  0
    1.4938   -0.8335   -1.4132 C   0  0  0  0  0  0  0  0  0  0  0  0
    2.7212   -1.3944   -1.1262 C   0  0  0  0  0  0  0  0  0  0  0  0
    3.7923   -0.6473   -0.7032 C   0  0  0  0  0  0  0  0  0  0  0  0
    5.1026   -1.2070   -0.3909 C   0  0  0  0  0  0  0  0  0  0  0  0
    5.4083   -2.5317   -0.4841 C   0  0  0  0  0  0  0  0  0  0  0  0
    6.6755   -2.9747   -0.1681 C   0  0  0  0  0  0  0  0  0  0  0  0
    7.6281   -2.0823    0.2398 C   0  0  0  0  0  0  0  0  0  0  0  0
    8.7989   -2.4231    0.5413 O   0  0  0  0  0  0  0  0  0  0  0  0
    7.3006   -0.7597    0.3262 N   0  0  0  0  0  0  0  0  0  0  0  0
    8.3084    0.1843    0.7578 C   0  0  0  0  0  0  0  0  0  0  0  0
    8.3259    1.5504    0.0466 C   0  0  0  0  0  0  0  0  0  0  0  0
    7.9611    1.4042    1.5046 C   0  0  0  0  0  0  0  0  0  0  0  0
    6.0919   -0.3751    0.0195 N   0  0  0  0  0  0  0  0  0  0  0  0
    3.5893    0.7150   -0.5737 C   0  0  0  0  0  0  0  0  0  0  0  0
    2.3697    1.2787   -0.8581 C   0  0  0  0  0  0  0  0  0  0  0  0
   -1.1241    0.5614   -1.0406 N   0  0  0  0  0  0  0  0  0  0  0  0
   -1.3318    0.2488    0.3619 C   0  0  0  0  0  0  0  0  0  0  0  0
   -2.7548    0.6144    0.7870 C   0  0  0  0  0  0  0  0  0  0  0  0
   -3.7785   -0.0392   -0.0460 C   0  0  2  0  0  0  0  0  0  0  0  0
   -5.1517    0.4617    0.2119 C   0  0  0  0  0  0  0  0  0  0  0  0
   -5.5248    1.8584    0.0088 C   0  0  0  0  0  0  0  0  0  0  0  0
   -4.8775    2.9354    0.7955 C   0  0  0  0  0  0  0  0  0  0  0  0
   -7.0364    1.9459    0.3496 C   0  0  0  0  0  0  0  0  0  0  0  0
   -5.4988    2.1795   -1.3737 O   0  0  0  0  0  0  0  0  0  0  0  0
   -3.8577   -1.5223    0.2646 C   0  0  0  0  0  0  0  0  0  0  0  0
   -4.5846   -2.2807   -0.6387 C   0  0  0  0  0  0  0  0  0  0  0  0
   -4.7625   -3.6291   -0.4820 C   0  0  0  0  0  0  0  0  0  0  0  0
   -4.1937   -4.2400    0.6159 C   0  0  0  0  0  0  0  0  0  0  0  0
   -3.4742   -3.5002    1.5140 C   0  0  0  0  0  0  0  0  0  0  0  0
   -3.3031   -2.1200    1.3369 C   0  0  0  0  0  0  0  0  0  0  0  0
   -3.4551   -0.0203   -1.4366 O   0  0  0  0  0  0  0  0  0  0  0  0
   -2.1719    0.1781   -1.9240 C   0  0  0  0  0  0  0  0  0  0  0  0
   -1.8971    0.0261   -3.1550 O   0  0  0  0  0  0  0  0  0  0  0  0
   -0.9973    2.9675   -0.9983 H   0  0  0  0  0  0  0  0  0  0  0  0
    0.6610    3.2381   -1.6161 H   0  0  0  0  0  0  0  0  0  0  0  0
    0.4293    2.5619    0.0944 H   0  0  0  0  0  0  0  0  0  0  0  0
   -0.0480    1.3328   -2.6511 H   0  0  0  0  0  0  0  0  0  0  0  0
    0.6499   -1.4185   -1.7459 H   0  0  0  0  0  0  0  0  0  0  0  0
    2.8450   -2.4572   -1.2377 H   0  0  0  0  0  0  0  0  0  0  0  0
    4.6536   -3.2292   -0.8061 H   0  0  0  0  0  0  0  0  0  0  0  0
    6.9205   -4.0247   -0.2411 H   0  0  0  0  0  0  0  0  0  0  0  0
    9.3244   -0.2248    0.9510 H   0  0  0  0  0  0  0  0  0  0  0  0
    7.5368    1.6719   -0.7091 H   0  0  0  0  0  0  0  0  0  0  0  0
    9.3147    1.9650   -0.2274 H   0  0  0  0  0  0  0  0  0  0  0  0
    6.9020    1.6256    1.7804 H   0  0  0  0  0  0  0  0  0  0  0  0
    8.6804    1.8121    2.2417 H   0  0  0  0  0  0  0  0  0  0  0  0
    4.4094    1.3271   -0.2443 H   0  0  0  0  0  0  0  0  0  0  0  0
    2.2807    2.3633   -0.7338 H   0  0  0  0  0  0  0  0  0  0  0  0
   -1.1832   -0.8184    0.5661 H   0  0  0  0  0  0  0  0  0  0  0  0
   -0.6444    0.8372    0.9706 H   0  0  0  0  0  0  0  0  0  0  0  0
   -2.7578    1.7277    0.7279 H   0  0  0  0  0  0  0  0  0  0  0  0
   -2.8363    0.3847    1.8585 H   0  0  0  0  0  0  0  0  0  0  0  0
   -5.9231   -0.1541   -0.3815 H   0  0  0  0  0  0  0  0  0  0  0  0
   -5.4706    0.1878    1.2776 H   0  0  0  0  0  0  0  0  0  0  0  0
   -4.1309    3.4664    0.1646 H   0  0  0  0  0  0  0  0  0  0  0  0
   -4.5259    2.6820    1.7945 H   0  0  0  0  0  0  0  0  0  0  0  0
   -5.6351    3.7872    1.0018 H   0  0  0  0  0  0  0  0  0  0  0  0
   -7.4829    2.8471   -0.0717 H   0  0  0  0  0  0  0  0  0  0  0  0
   -7.0668    1.9649    1.4581 H   0  0  0  0  0  0  0  0  0  0  0  0
   -7.5348    1.0068    0.0305 H   0  0  0  0  0  0  0  0  0  0  0  0
   -6.1145    1.5826   -1.8807 H   0  0  0  0  0  0  0  0  0  0  0  0
   -5.0505   -1.8302   -1.5217 H   0  0  0  0  0  0  0  0  0  0  0  0
   -5.3200   -4.2500   -1.1618 H   0  0  0  0  0  0  0  0  0  0  0  0
   -4.3003   -5.2905    0.7881 H   0  0  0  0  0  0  0  0  0  0  0  0
   -3.0298   -3.9544    2.3645 H   0  0  0  0  0  0  0  0  0  0  0  0
   -2.7387   -1.5877    2.0845 H   0  0  0  0  0  0  0  0  0  0  0  0
  1  2  1  0
  2  3  1  0
  3  4  2  0
  4  5  1  0
  5  6  2  0
  6  7  1  0
  7  8  1  0
  8  9  2  0
  9 10  1  0
 10 11  2  0
 10 12  1  0
 12 13  1  0
 13 14  1  0
 14 15  1  0
 12 16  1  0
  6 17  1  0
 17 18  2  0
  2 19  1  0
 19 20  1  0
 20 21  1  0
 21 22  1  0
 22 23  1  6
 23 24  1  0
 24 25  1  0
 24 26  1  0
 24 27  1  0
 22 28  1  0
 28 29  2  0
 29 30  1  0
 30 31  2  0
 31 32  1  0
 32 33  2  0
 22 34  1  0
 34 35  1  0
 35 36  2  0
 18  3  1  0
 35 19  1  0
 16  7  2  0
 33 28  1  0
 15 13  1  0
  1 37  1  0
  1 38  1  0
  1 39  1  0
  2 40  1  6
  4 41  1  0
  5 42  1  0
  8 43  1  0
  9 44  1  0
 13 45  1  0
 14 46  1  0
 14 47  1  0
 15 48  1  0
 15 49  1  0
 17 50  1  0
 18 51  1  0
 20 52  1  0
 20 53  1  0
 21 54  1  0
 21 55  1  0
 23 56  1  0
 23 57  1  0
 25 58  1  0
 25 59  1  0
 25 60  1  0
 26 61  1  0
 26 62  1  0
 26 63  1  0
 27 64  1  0
 29 65  1  0
 30 66  1  0
 31 67  1  0
 32 68  1  0
 33 69  1  0
M  END
$$$$
