@<TRIPOS>MOLECULE
*****
 42 44 0 0 0
SMALL
GASTEIGER

@<TRIPOS>ATOM
      1 C           2.8207    0.4790   -2.5570 C.3     1  UNL1       -0.0541
      2 C           2.0482    0.5088   -1.2488 C.3     1  UNL1        0.0098
      3 C           2.9271    0.3979   -0.0564 C.ar    1  UNL1       -0.0399
      4 C           3.4400    1.5331    0.5333 C.ar    1  UNL1       -0.0580
      5 C           4.2695    1.4570    1.6562 C.ar    1  UNL1       -0.0615
      6 C           4.5980    0.2448    2.2055 C.ar    1  UNL1       -0.0617
      7 C           4.0923   -0.8941    1.6259 C.ar    1  UNL1       -0.0615
      8 C           3.2744   -0.8103    0.5180 C.ar    1  UNL1       -0.0580
      9 C           1.0292    1.6062   -1.1748 C.3     1  UNL1       -0.0259
     10 C           0.6240    0.1765   -1.1924 C.3     1  UNL1        0.0181
     11 N           0.0188   -0.4418   -0.0544 N.3     1  UNL1       -0.3097
     12 C          -1.3917   -0.6810   -0.2086 C.3     1  UNL1        0.0080
     13 C          -1.9480   -1.3350    1.0372 C.3     1  UNL1       -0.0361
     14 C          -3.3553   -1.7623    0.7436 C.3     1  UNL1       -0.0363
     15 C          -4.2397   -0.6708    0.2514 C.3     1  UNL1        0.0049
     16 N          -4.7015    0.0901    1.4086 N.3     1  UNL1       -0.3272
     17 C          -3.6032    0.2141   -0.7843 C.3     1  UNL1       -0.0363
     18 C          -2.1784    0.5690   -0.4660 C.3     1  UNL1       -0.0361
     19 H           2.1743    0.3459   -3.4323 H       1  UNL1        0.0239
     20 H           3.6345   -0.2701   -2.4883 H       1  UNL1        0.0239
     21 H           3.3329    1.4682   -2.6935 H       1  UNL1        0.0239
     22 H           3.2398    2.5316    0.1753 H       1  UNL1        0.0620
     23 H           4.6650    2.3676    2.1077 H       1  UNL1        0.0618
     24 H           5.2429    0.2332    3.0742 H       1  UNL1        0.0618
     25 H           4.3477   -1.8434    2.0536 H       1  UNL1        0.0618
     26 H           2.8842   -1.7236    0.0738 H       1  UNL1        0.0620
     27 H           0.8629    2.1250   -0.1967 H       1  UNL1        0.0289
     28 H           0.8299    2.2578   -2.0434 H       1  UNL1        0.0289
     29 H           0.1609   -0.1474   -2.1703 H       1  UNL1        0.0469
     30 H           0.4721   -1.3853    0.0664 H       1  UNL1        0.1225
     31 H          -1.6041   -1.3830   -1.0525 H       1  UNL1        0.0460
     32 H          -1.3698   -2.2404    1.3065 H       1  UNL1        0.0281
     33 H          -1.8797   -0.5851    1.8497 H       1  UNL1        0.0281
     34 H          -3.7868   -2.1488    1.6996 H       1  UNL1        0.0281
     35 H          -3.3029   -2.6429    0.0682 H       1  UNL1        0.0281
     36 H          -5.1464   -1.1187   -0.2062 H       1  UNL1        0.0458
     37 H          -5.1903   -0.6035    2.0305 H       1  UNL1        0.1185
     38 H          -5.4457    0.7732    1.1228 H       1  UNL1        0.1185
     39 H          -4.1792    1.1632   -0.8184 H       1  UNL1        0.0281
     40 H          -3.7089   -0.2395   -1.8036 H       1  UNL1        0.0281
     41 H          -1.7698    1.1153   -1.3406 H       1  UNL1        0.0281
     42 H          -2.1881    1.2696    0.3808 H       1  UNL1        0.0281
@<TRIPOS>BOND
     1     1     2    1
     2     2     3    1
     3     3     4   ar
     4     4     5   ar
     5     5     6   ar
     6     6     7   ar
     7     7     8   ar
     8     2     9    1
     9     9    10    1
    10    10    11    1
    11    11    12    1
    12    12    13    1
    13    13    14    1
    14    14    15    1
    15    15    16    1
    16    15    17    1
    17    17    18    1
    18    10     2    1
    19    18    12    1
    20     8     3   ar
    21     1    19    1
    22     1    20    1
    23     1    21    1
    24     4    22    1
    25     5    23    1
    26     6    24    1
    27     7    25    1
    28     8    26    1
    29     9    27    1
    30     9    28    1
    31    10    29    1
    32    11    30    1
    33    12    31    1
    34    13    32    1
    35    13    33    1
    36    14    34    1
    37    14    35    1
    38    15    36    1
    39    16    37    1
    40    16    38    1
    41    17    39    1
    42    17    40    1
    43    18    41    1
    44    18    42    1
