@<TRIPOS>MOLECULE
*****
 51 53 0 0 0
SMALL
GASTEIGER

@<TRIPOS>ATOM
      1 C           6.8134    0.2073    1.7610 C.3     1  UNL1        0.0134
      2 N           6.2517    0.4274    0.4627 N.ar    1  UNL1       -0.3298
      3 C           6.7783    1.2432   -0.4777 C.ar    1  UNL1        0.0244
      4 C           5.9846    1.2097   -1.5820 C.ar    1  UNL1        0.0462
      5 N           4.9654    0.3746   -1.3317 N.ar    1  UNL1       -0.2318
      6 C           5.1500   -0.0936   -0.0719 C.ar    1  UNL1        0.1964
      7 C           4.2535   -1.0269    0.5759 C.2     1  UNL1        0.2821
      8 O           4.7201   -2.0407    1.1246 O.2     1  UNL1       -0.2666
      9 N           2.8533   -0.7586    0.5678 N.am    1  UNL1       -0.2950
     10 C           2.0178   -1.7076    1.2235 C.3     1  UNL1        0.0156
     11 C           0.5602   -1.4320    1.1561 C.3     1  UNL1       -0.0302
     12 C           0.1971   -0.6583   -0.0695 C.3     1  UNL1       -0.0125
     13 C          -1.2230   -0.4130   -0.1368 C.ar    1  UNL1       -0.0325
     14 C          -1.7894    0.5683    0.6693 C.ar    1  UNL1       -0.0570
     15 C          -3.1786    0.7710    0.5845 C.ar    1  UNL1       -0.0479
     16 C          -3.9745    0.0421   -0.2545 C.ar    1  UNL1        0.0536
     17 C          -5.4157    0.2343   -0.3769 C.2     1  UNL1        0.3066
     18 O          -6.0949   -0.5381   -1.1385 O.2     1  UNL1       -0.2516
     19 N          -6.1113    1.2352    0.3033 N.am    1  UNL1       -0.1709
     20 C          -7.5064    1.4773    0.2280 C.2     1  UNL1        0.3751
     21 N          -8.2822    0.7920   -0.4748 N.pl3   1  UNL1       -0.1313
     22 N          -8.0595    2.5444    0.9800 N.pl3   1  UNL1       -0.2906
     23 C          -3.3441   -0.9297   -1.0388 C.ar    1  UNL1       -0.0363
     24 C          -1.9859   -1.1713   -0.9974 C.ar    1  UNL1        0.0590
     25 C          -1.3916   -2.1687   -1.8418 C.3     1  UNL1        0.4177
     26 F          -0.7570   -3.1419   -1.1006 F       1  UNL1       -0.1659
     27 F          -0.5290   -1.7622   -2.8007 F       1  UNL1       -0.1659
     28 F          -2.4212   -2.8489   -2.5149 F       1  UNL1       -0.1659
     29 C           0.9079    0.6967    0.1436 C.3     1  UNL1       -0.0302
     30 C           2.3698    0.4184   -0.0846 C.3     1  UNL1        0.0156
     31 H           6.0904   -0.1672    2.4990 H       1  UNL1        0.0456
     32 H           7.2698    1.1562    2.1458 H       1  UNL1        0.0456
     33 H           7.6547   -0.5420    1.7354 H       1  UNL1        0.0456
     34 H           7.6976    1.8205   -0.3313 H       1  UNL1        0.0825
     35 H           6.1610    1.7641   -2.4863 H       1  UNL1        0.0845
     36 H           2.2529   -2.7428    0.8176 H       1  UNL1        0.0465
     37 H           2.3720   -1.7856    2.2936 H       1  UNL1        0.0465
     38 H          -0.0648   -2.3231    1.3170 H       1  UNL1        0.0286
     39 H           0.3308   -0.7162    2.0158 H       1  UNL1        0.0286
     40 H           0.6714   -1.0347   -0.9916 H       1  UNL1        0.0350
     41 H          -1.2128    1.1764    1.3531 H       1  UNL1        0.0621
     42 H          -3.6232    1.5449    1.2229 H       1  UNL1        0.0626
     43 H          -5.5362    1.8758    0.9340 H       1  UNL1        0.2545
     44 H          -8.1605    0.0136   -1.0789 H       1  UNL1        0.3060
     45 H          -7.7518    3.5045    0.7876 H       1  UNL1        0.2545
     46 H          -8.7573    2.3429    1.7032 H       1  UNL1        0.2545
     47 H          -3.9942   -1.5053   -1.7058 H       1  UNL1        0.0631
     48 H           0.4727    1.4136   -0.5591 H       1  UNL1        0.0286
     49 H           0.7736    1.0529    1.1942 H       1  UNL1        0.0286
     50 H           2.5988    0.3066   -1.1756 H       1  UNL1        0.0465
     51 H           2.9962    1.2943    0.2271 H       1  UNL1        0.0465
@<TRIPOS>BOND
     1     1     2    1
     2     2     3   ar
     3     3     4   ar
     4     4     5   ar
     5     5     6   ar
     6     6     7    1
     7     7     8    2
     8     7     9   am
     9     9    10    1
    10    10    11    1
    11    11    12    1
    12    12    13    1
    13    13    14   ar
    14    14    15   ar
    15    15    16   ar
    16    16    17    1
    17    17    18    2
    18    17    19   am
    19    19    20    1
    20    20    21    2
    21    20    22    1
    22    16    23   ar
    23    23    24   ar
    24    24    25    1
    25    25    26    1
    26    25    27    1
    27    25    28    1
    28    12    29    1
    29    29    30    1
    30     6     2   ar
    31    30     9    1
    32    24    13   ar
    33     1    31    1
    34     1    32    1
    35     1    33    1
    36     3    34    1
    37     4    35    1
    38    10    36    1
    39    10    37    1
    40    11    38    1
    41    11    39    1
    42    12    40    1
    43    14    41    1
    44    15    42    1
    45    19    43    1
    46    21    44    1
    47    22    45    1
    48    22    46    1
    49    23    47    1
    50    29    48    1
    51    29    49    1
    52    30    50    1
    53    30    51    1
