
     RDKit          3D

 51 53  0  0  0  0  0  0  0  0999 V2000
    6.8134    0.2073    1.7610 C   0  0  0  0  0  0  0  0  0  0  0  0
    6.2517    0.4274    0.4627 N   0  0  0  0  0  0  0  0  0  0  0  0
    6.7783    1.2432   -0.4777 C   0  0  0  0  0  0  0  0  0  0  0  0
    5.9846    1.2097   -1.5820 C   0  0  0  0  0  0  0  0  0  0  0  0
    4.9654    0.3746   -1.3317 N   0  0  0  0  0  0  0  0  0  0  0  0
    5.1500   -0.0936   -0.0719 C   0  0  0  0  0  0  0  0  0  0  0  0
    4.2535   -1.0269    0.5759 C   0  0  0  0  0  0  0  0  0  0  0  0
    4.7201   -2.0407    1.1246 O   0  0  0  0  0  0  0  0  0  0  0  0
    2.8533   -0.7586    0.5678 N   0  0  0  0  0  0  0  0  0  0  0  0
    2.0178   -1.7076    1.2235 C   0  0  0  0  0  0  0  0  0  0  0  0
    0.5602   -1.4320    1.1561 C   0  0  0  0  0  0  0  0  0  0  0  0
    0.1971   -0.6583   -0.0695 C   0  0  0  0  0  0  0  0  0  0  0  0
   -1.2230   -0.4130   -0.1368 C   0  0  0  0  0  0  0  0  0  0  0  0
   -1.7894    0.5683    0.6693 C   0  0  0  0  0  0  0  0  0  0  0  0
   -3.1786    0.7710    0.5845 C   0  0  0  0  0  0  0  0  0  0  0  0
   -3.9745    0.0421   -0.2545 C   0  0  0  0  0  0  0  0  0  0  0  0
   -5.4157    0.2343   -0.3769 C   0  0  0  0  0  0  0  0  0  0  0  0
   -6.0949   -0.5381   -1.1385 O   0  0  0  0  0  0  0  0  0  0  0  0
   -6.1113    1.2352    0.3033 N   0  0  0  0  0  0  0  0  0  0  0  0
   -7.5064    1.4773    0.2280 C   0  0  0  0  0  0  0  0  0  0  0  0
   -8.2822    0.7920   -0.4748 N   0  0  0  0  0  0  0  0  0  0  0  0
   -8.0595    2.5444    0.9800 N   0  0  0  0  0  0  0  0  0  0  0  0
   -3.3441   -0.9297   -1.0388 C   0  0  0  0  0  0  0  0  0  0  0  0
   -1.9859   -1.1713   -0.9974 C   0  0  0  0  0  0  0  0  0  0  0  0
   -1.3916   -2.1687   -1.8418 C   0  0  0  0  0  0  0  0  0  0  0  0
   -0.7570   -3.1419   -1.1006 F   0  0  0  0  0  0  0  0  0  0  0  0
   -0.5290   -1.7622   -2.8007 F   0  0  0  0  0  0  0  0  0  0  0  0
   -2.4212   -2.8489   -2.5149 F   0  0  0  0  0  0  0  0  0  0  0  0
    0.9079    0.6967    0.1436 C   0  0  0  0  0  0  0  0  0  0  0  0
    2.3698    0.4184   -0.0846 C   0  0  0  0  0  0  0  0  0  0  0  0
    6.0904   -0.1672    2.4990 H   0  0  0  0  0  0  0  0  0  0  0  0
    7.2698    1.1562    2.1458 H   0  0  0  0  0  0  0  0  0  0  0  0
    7.6547   -0.5420    1.7354 H   0  0  0  0  0  0  0  0  0  0  0  0
    7.6976    1.8205   -0.3313 H   0  0  0  0  0  0  0  0  0  0  0  0
    6.1610    1.7641   -2.4863 H   0  0  0  0  0  0  0  0  0  0  0  0
    2.2529   -2.7428    0.8176 H   0  0  0  0  0  0  0  0  0  0  0  0
    2.3720   -1.7856    2.2936 H   0  0  0  0  0  0  0  0  0  0  0  0
   -0.0648   -2.3231    1.3170 H   0  0  0  0  0  0  0  0  0  0  0  0
    0.3308   -0.7162    2.0158 H   0  0  0  0  0  0  0  0  0  0  0  0
    0.6714   -1.0347   -0.9916 H   0  0  0  0  0  0  0  0  0  0  0  0
   -1.2128    1.1764    1.3531 H   0  0  0  0  0  0  0  0  0  0  0  0
   -3.6232    1.5449    1.2229 H   0  0  0  0  0  0  0  0  0  0  0  0
   -5.5362    1.8758    0.9340 H   0  0  0  0  0  0  0  0  0  0  0  0
   -8.1605    0.0136   -1.0789 H   0  0  0  0  0  0  0  0  0  0  0  0
   -7.7518    3.5045    0.7876 H   0  0  0  0  0  0  0  0  0  0  0  0
   -8.7573    2.3429    1.7032 H   0  0  0  0  0  0  0  0  0  0  0  0
   -3.9942   -1.5053   -1.7058 H   0  0  0  0  0  0  0  0  0  0  0  0
    0.4727    1.4136   -0.5591 H   0  0  0  0  0  0  0  0  0  0  0  0
    0.7736    1.0529    1.1942 H   0  0  0  0  0  0  0  0  0  0  0  0
    2.5988    0.3066   -1.1756 H   0  0  0  0  0  0  0  0  0  0  0  0
    2.9962    1.2943    0.2271 H   0  0  0  0  0  0  0  0  0  0  0  0
  1  2  1  0
  2  3  1  0
  3  4  2  0
  4  5  1  0
  5  6  2  0
  6  7  1  0
  7  8  2  0
  7  9  1  0
  9 10  1  0
 10 11  1  0
 11 12  1  0
 12 13  1  0
 13 14  2  0
 14 15  1  0
 15 16  2  0
 16 17  1  0
 17 18  2  0
 17 19  1  0
 19 20  1  0
 20 21  2  3
 20 22  1  0
 16 23  1  0
 23 24  2  0
 24 25  1  0
 25 26  1  0
 25 27  1  0
 25 28  1  0
 12 29  1  0
 29 30  1  0
  6  2  1  0
 30  9  1  0
 24 13  1  0
  1 31  1  0
  1 32  1  0
  1 33  1  0
  3 34  1  0
  4 35  1  0
 10 36  1  0
 10 37  1  0
 11 38  1  0
 11 39  1  0
 12 40  1  0
 14 41  1  0
 15 42  1  0
 19 43  1  0
 21 44  1  0
 22 45  1  0
 22 46  1  0
 23 47  1  0
 29 48  1  0
 29 49  1  0
 30 50  1  0
 30 51  1  0
M  END
$$$$
