
     RDKit          3D

 40 41  0  0  0  0  0  0  0  0999 V2000
   -3.7698    0.1911    2.3138 C   0  0  0  0  0  0  0  0  0  0  0  0
   -2.6203    1.0040    1.8413 C   0  0  0  0  0  0  0  0  0  0  0  0
   -1.8023    0.4171    0.7757 C   0  0  0  0  0  0  0  0  0  0  0  0
   -0.5622   -0.1522    1.0296 C   0  0  0  0  0  0  0  0  0  0  0  0
    0.2302   -0.7099    0.0431 C   0  0  0  0  0  0  0  0  0  0  0  0
    1.5422   -1.3207    0.2648 C   0  0  0  0  0  0  0  0  0  0  0  0
    2.6725   -0.3925    0.1492 C   0  0  0  0  0  0  0  0  0  0  0  0
    2.5438    0.9477   -0.1440 C   0  0  0  0  0  0  0  0  0  0  0  0
    3.6461    1.7235   -0.2305 N   0  0  0  0  0  0  0  0  0  0  0  0
    4.8833    1.2201   -0.0359 C   0  0  0  0  0  0  0  0  0  0  0  0
    6.0643    2.0172   -0.1202 N   0  0  0  0  0  0  0  0  0  0  0  0
    5.0014   -0.0876    0.2499 N   0  0  0  0  0  0  0  0  0  0  0  0
    3.9364   -0.9101    0.3488 C   0  0  0  0  0  0  0  0  0  0  0  0
    4.1921   -2.2743    0.6558 N   0  0  0  0  0  0  0  0  0  0  0  0
   -0.2670   -0.6830   -1.2533 C   0  0  0  0  0  0  0  0  0  0  0  0
   -1.4912   -0.1308   -1.5615 C   0  0  0  0  0  0  0  0  0  0  0  0
   -2.0160   -0.1044   -2.9532 C   0  0  0  0  0  0  0  0  0  0  0  0
   -2.2279    0.4084   -0.5201 C   0  0  0  0  0  0  0  0  0  0  0  0
   -3.4510    0.9561   -0.8467 O   0  0  0  0  0  0  0  0  0  0  0  0
   -4.5964    0.1295   -0.8439 C   0  0  0  0  0  0  0  0  0  0  0  0
   -3.6537   -0.8861    2.0363 H   0  0  0  0  0  0  0  0  0  0  0  0
   -4.7725    0.5539    2.0113 H   0  0  0  0  0  0  0  0  0  0  0  0
   -3.8055    0.1823    3.4435 H   0  0  0  0  0  0  0  0  0  0  0  0
   -3.0477    2.0070    1.5354 H   0  0  0  0  0  0  0  0  0  0  0  0
   -1.9909    1.2756    2.7404 H   0  0  0  0  0  0  0  0  0  0  0  0
   -0.1999   -0.1601    2.0424 H   0  0  0  0  0  0  0  0  0  0  0  0
    1.6866   -2.1213   -0.5070 H   0  0  0  0  0  0  0  0  0  0  0  0
    1.6213   -1.8497    1.2384 H   0  0  0  0  0  0  0  0  0  0  0  0
    1.5611    1.3669   -0.3030 H   0  0  0  0  0  0  0  0  0  0  0  0
    6.6939    2.1684    0.6816 H   0  0  0  0  0  0  0  0  0  0  0  0
    6.2591    2.4475   -1.0605 H   0  0  0  0  0  0  0  0  0  0  0  0
    4.2113   -2.6671    1.6187 H   0  0  0  0  0  0  0  0  0  0  0  0
    4.3712   -2.9109   -0.1524 H   0  0  0  0  0  0  0  0  0  0  0  0
    0.3307   -1.1142   -2.0612 H   0  0  0  0  0  0  0  0  0  0  0  0
   -2.4745   -1.0512   -3.2451 H   0  0  0  0  0  0  0  0  0  0  0  0
   -1.2140    0.2079   -3.6722 H   0  0  0  0  0  0  0  0  0  0  0  0
   -2.7907    0.7154   -3.0168 H   0  0  0  0  0  0  0  0  0  0  0  0
   -5.4484    0.5664   -0.2844 H   0  0  0  0  0  0  0  0  0  0  0  0
   -4.8946   -0.1641   -1.8773 H   0  0  0  0  0  0  0  0  0  0  0  0
   -4.3511   -0.8157   -0.3309 H   0  0  0  0  0  0  0  0  0  0  0  0
  1  2  1  0
  2  3  1  0
  3  4  2  0
  4  5  1  0
  5  6  1  0
  6  7  1  0
  7  8  2  0
  8  9  1  0
  9 10  2  0
 10 11  1  0
 10 12  1  0
 12 13  2  0
 13 14  1  0
  5 15  2  0
 15 16  1  0
 16 17  1  0
 16 18  2  0
 18 19  1  0
 19 20  1  0
 18  3  1  0
 13  7  1  0
  1 21  1  0
  1 22  1  0
  1 23  1  0
  2 24  1  0
  2 25  1  0
  4 26  1  0
  6 27  1  0
  6 28  1  0
  8 29  1  0
 11 30  1  0
 11 31  1  0
 14 32  1  0
 14 33  1  0
 15 34  1  0
 17 35  1  0
 17 36  1  0
 17 37  1  0
 20 38  1  0
 20 39  1  0
 20 40  1  0
M  END
$$$$
