@<TRIPOS>MOLECULE
*****
 40 41 0 0 0
SMALL
GASTEIGER

@<TRIPOS>ATOM
      1 C          -3.7698    0.1911    2.3138 C.3     1  UNL1       -0.0611
      2 C          -2.6203    1.0040    1.8413 C.3     1  UNL1       -0.0271
      3 C          -1.8023    0.4171    0.7757 C.ar    1  UNL1       -0.0055
      4 C          -0.5622   -0.1522    1.0296 C.ar    1  UNL1       -0.0516
      5 C           0.2302   -0.7099    0.0431 C.ar    1  UNL1       -0.0422
      6 C           1.5422   -1.3207    0.2648 C.3     1  UNL1        0.0023
      7 C           2.6725   -0.3925    0.1492 C.ar    1  UNL1        0.0146
      8 C           2.5438    0.9477   -0.1440 C.ar    1  UNL1        0.0379
      9 N           3.6461    1.7235   -0.2305 N.ar    1  UNL1       -0.2227
     10 C           4.8833    1.2201   -0.0359 C.ar    1  UNL1        0.2142
     11 N           6.0643    2.0172   -0.1202 N.pl3   1  UNL1       -0.3274
     12 N           5.0014   -0.0876    0.2499 N.ar    1  UNL1       -0.1999
     13 C           3.9364   -0.9101    0.3488 C.ar    1  UNL1        0.1247
     14 N           4.1921   -2.2743    0.6558 N.pl3   1  UNL1       -0.3428
     15 C          -0.2670   -0.6830   -1.2533 C.ar    1  UNL1       -0.0519
     16 C          -1.4912   -0.1308   -1.5615 C.ar    1  UNL1       -0.0083
     17 C          -2.0160   -0.1044   -2.9532 C.3     1  UNL1       -0.0362
     18 C          -2.2279    0.4084   -0.5201 C.ar    1  UNL1        0.1261
     19 O          -3.4510    0.9561   -0.8467 O.3     1  UNL1       -0.4946
     20 C          -4.5964    0.1295   -0.8439 C.3     1  UNL1        0.0788
     21 H          -3.6537   -0.8861    2.0363 H       1  UNL1        0.0233
     22 H          -4.7725    0.5539    2.0113 H       1  UNL1        0.0233
     23 H          -3.8055    0.1823    3.4435 H       1  UNL1        0.0233
     24 H          -3.0477    2.0070    1.5354 H       1  UNL1        0.0312
     25 H          -1.9909    1.2756    2.7404 H       1  UNL1        0.0312
     26 H          -0.1999   -0.1601    2.0424 H       1  UNL1        0.0624
     27 H           1.6866   -2.1213   -0.5070 H       1  UNL1        0.0363
     28 H           1.6213   -1.8497    1.2384 H       1  UNL1        0.0363
     29 H           1.5611    1.3669   -0.3030 H       1  UNL1        0.0834
     30 H           6.6939    2.1684    0.6816 H       1  UNL1        0.1452
     31 H           6.2591    2.4475   -1.0605 H       1  UNL1        0.1452
     32 H           4.2113   -2.6671    1.6187 H       1  UNL1        0.1437
     33 H           4.3712   -2.9109   -0.1524 H       1  UNL1        0.1437
     34 H           0.3307   -1.1142   -2.0612 H       1  UNL1        0.0624
     35 H          -2.4745   -1.0512   -3.2451 H       1  UNL1        0.0279
     36 H          -1.2140    0.2079   -3.6722 H       1  UNL1        0.0279
     37 H          -2.7907    0.7154   -3.0168 H       1  UNL1        0.0279
     38 H          -5.4484    0.5664   -0.2844 H       1  UNL1        0.0660
     39 H          -4.8946   -0.1641   -1.8773 H       1  UNL1        0.0660
     40 H          -4.3511   -0.8157   -0.3309 H       1  UNL1        0.0660
@<TRIPOS>BOND
     1     1     2    1
     2     2     3    1
     3     3     4   ar
     4     4     5   ar
     5     5     6    1
     6     6     7    1
     7     7     8   ar
     8     8     9   ar
     9     9    10   ar
    10    10    11    1
    11    10    12   ar
    12    12    13   ar
    13    13    14    1
    14     5    15   ar
    15    15    16   ar
    16    16    17    1
    17    16    18   ar
    18    18    19    1
    19    19    20    1
    20    18     3   ar
    21    13     7   ar
    22     1    21    1
    23     1    22    1
    24     1    23    1
    25     2    24    1
    26     2    25    1
    27     4    26    1
    28     6    27    1
    29     6    28    1
    30     8    29    1
    31    11    30    1
    32    11    31    1
    33    14    32    1
    34    14    33    1
    35    15    34    1
    36    17    35    1
    37    17    36    1
    38    17    37    1
    39    20    38    1
    40    20    39    1
    41    20    40    1
