
     RDKit          3D

 52 55  0  0  0  0  0  0  0  0999 V2000
    7.0738   -1.4046   -0.3058 C   0  0  0  0  0  0  0  0  0  0  0  0
    5.7620   -2.0346    0.1643 C   0  0  0  0  0  0  0  0  0  0  0  0
    4.5857   -1.2132   -0.3052 C   0  0  0  0  0  0  0  0  0  0  0  0
    3.3200   -1.8773    0.1835 C   0  0  0  0  0  0  0  0  0  0  0  0
    2.1360   -1.1508   -0.2337 N   0  0  0  0  0  0  0  0  0  0  0  0
    1.4778   -0.1643    0.3944 C   0  0  0  0  0  0  0  0  0  0  0  0
    0.4066    0.2353   -0.3741 C   0  0  0  0  0  0  0  0  0  0  0  0
   -0.5553    1.2883   -0.0452 C   0  0  0  0  0  0  0  0  0  0  0  0
   -1.9051    0.7946    0.3319 C   0  0  0  0  0  0  0  0  0  0  0  0
   -2.6676    1.6518    1.1274 C   0  0  0  0  0  0  0  0  0  0  0  0
   -3.9337    1.3143    1.5433 C   0  0  0  0  0  0  0  0  0  0  0  0
   -4.4494    0.0987    1.1591 C   0  0  0  0  0  0  0  0  0  0  0  0
   -3.6864   -0.7629    0.3618 C   0  0  0  0  0  0  0  0  0  0  0  0
   -4.2097   -2.0533   -0.0610 C   0  0  0  0  0  0  0  0  0  0  0  0
   -5.5452   -2.2787   -0.3082 C   0  0  0  0  0  0  0  0  0  0  0  0
   -6.0003   -3.5036   -0.6978 N   0  0  0  0  0  0  0  0  0  0  0  0
   -5.1109   -4.5038   -0.8398 C   0  0  0  0  0  0  0  0  0  0  0  0
   -3.8002   -4.3125   -0.6054 N   0  0  0  0  0  0  0  0  0  0  0  0
   -3.3331   -3.0997   -0.2170 C   0  0  0  0  0  0  0  0  0  0  0  0
   -2.4214   -0.4117   -0.0470 C   0  0  0  0  0  0  0  0  0  0  0  0
   -0.0755    2.0939    1.0516 N   0  0  0  0  0  0  0  0  0  0  0  0
    0.0296    3.3256    0.7729 C   0  0  0  0  0  0  0  0  0  0  0  0
    0.4892    4.2863    1.7300 N   0  0  0  0  0  0  0  0  0  0  0  0
   -0.3678    3.5386   -0.5598 N   0  0  0  0  0  0  0  0  0  0  0  0
   -0.3712    4.8373   -1.2103 C   0  0  0  0  0  0  0  0  0  0  0  0
   -0.7455    2.2859   -1.1099 C   0  0  0  0  0  0  0  0  0  0  0  0
   -1.1526    2.1478   -2.2892 O   0  0  0  0  0  0  0  0  0  0  0  0
    0.4315   -0.5441   -1.5002 C   0  0  0  0  0  0  0  0  0  0  0  0
    1.4890   -1.3612   -1.3690 N   0  0  0  0  0  0  0  0  0  0  0  0
    6.9980   -1.3605   -1.4208 H   0  0  0  0  0  0  0  0  0  0  0  0
    7.9062   -2.0742   -0.0470 H   0  0  0  0  0  0  0  0  0  0  0  0
    7.1976   -0.4101    0.1552 H   0  0  0  0  0  0  0  0  0  0  0  0
    5.7296   -2.0979    1.2598 H   0  0  0  0  0  0  0  0  0  0  0  0
    5.7530   -3.0584   -0.3029 H   0  0  0  0  0  0  0  0  0  0  0  0
    4.5977   -1.0510   -1.4017 H   0  0  0  0  0  0  0  0  0  0  0  0
    4.6913   -0.2100    0.1757 H   0  0  0  0  0  0  0  0  0  0  0  0
    3.3369   -2.9209   -0.1936 H   0  0  0  0  0  0  0  0  0  0  0  0
    3.4023   -1.9497    1.2859 H   0  0  0  0  0  0  0  0  0  0  0  0
    1.7665    0.2429    1.3669 H   0  0  0  0  0  0  0  0  0  0  0  0
   -2.2580    2.6202    1.4333 H   0  0  0  0  0  0  0  0  0  0  0  0
   -4.5106    1.9990    2.1613 H   0  0  0  0  0  0  0  0  0  0  0  0
   -5.4381   -0.2181    1.4555 H   0  0  0  0  0  0  0  0  0  0  0  0
   -6.2660   -1.4840   -0.1972 H   0  0  0  0  0  0  0  0  0  0  0  0
   -5.5119   -5.4581   -1.1502 H   0  0  0  0  0  0  0  0  0  0  0  0
   -2.2880   -2.9286   -0.0222 H   0  0  0  0  0  0  0  0  0  0  0  0
   -1.8303   -1.0676   -0.6581 H   0  0  0  0  0  0  0  0  0  0  0  0
   -0.1223    4.4987    2.5379 H   0  0  0  0  0  0  0  0  0  0  0  0
    1.3980    4.7714    1.6483 H   0  0  0  0  0  0  0  0  0  0  0  0
    0.5964    4.9389   -1.7456 H   0  0  0  0  0  0  0  0  0  0  0  0
   -0.5327    5.6425   -0.4673 H   0  0  0  0  0  0  0  0  0  0  0  0
   -1.2441    4.8991   -1.9212 H   0  0  0  0  0  0  0  0  0  0  0  0
   -0.2415   -0.5457   -2.3636 H   0  0  0  0  0  0  0  0  0  0  0  0
  1  2  1  0
  2  3  1  0
  3  4  1  0
  4  5  1  0
  5  6  1  0
  6  7  2  0
  7  8  1  0
  8  9  1  0
  9 10  2  0
 10 11  1  0
 11 12  2  0
 12 13  1  0
 13 14  1  0
 14 15  2  0
 15 16  1  0
 16 17  2  0
 17 18  1  0
 18 19  2  0
 13 20  2  0
  8 21  1  0
 21 22  2  0
 22 23  1  0
 22 24  1  0
 24 25  1  0
 24 26  1  0
 26 27  2  0
  7 28  1  0
 28 29  2  0
 29  5  1  0
 26  8  1  0
 20  9  1  0
 19 14  1  0
  1 30  1  0
  1 31  1  0
  1 32  1  0
  2 33  1  0
  2 34  1  0
  3 35  1  0
  3 36  1  0
  4 37  1  0
  4 38  1  0
  6 39  1  0
 10 40  1  0
 11 41  1  0
 12 42  1  0
 15 43  1  0
 17 44  1  0
 19 45  1  0
 20 46  1  0
 23 47  1  0
 23 48  1  0
 25 49  1  0
 25 50  1  0
 25 51  1  0
 28 52  1  0
M  END
$$$$
