@<TRIPOS>MOLECULE
*****
 52 55 0 0 0
SMALL
GASTEIGER

@<TRIPOS>ATOM
      1 C           7.0738   -1.4046   -0.3058 C.3     1  UNL1       -0.0652
      2 C           5.7620   -2.0346    0.1643 C.3     1  UNL1       -0.0542
      3 C           4.5857   -1.2132   -0.3052 C.3     1  UNL1       -0.0336
      4 C           3.3200   -1.8773    0.1835 C.3     1  UNL1        0.0415
      5 N           2.1360   -1.1508   -0.2337 N.ar    1  UNL1       -0.2710
      6 C           1.4778   -0.1643    0.3944 C.ar    1  UNL1        0.0332
      7 C           0.4066    0.2353   -0.3741 C.ar    1  UNL1        0.0480
      8 C          -0.5553    1.2883   -0.0452 C.3     1  UNL1        0.2674
      9 C          -1.9051    0.7946    0.3319 C.ar    1  UNL1        0.0113
     10 C          -2.6676    1.6518    1.1274 C.ar    1  UNL1       -0.0540
     11 C          -3.9337    1.3143    1.5433 C.ar    1  UNL1       -0.0608
     12 C          -4.4494    0.0987    1.1591 C.ar    1  UNL1       -0.0539
     13 C          -3.6864   -0.7629    0.3618 C.ar    1  UNL1       -0.0146
     14 C          -4.2097   -2.0533   -0.0610 C.ar    1  UNL1        0.0183
     15 C          -5.5452   -2.2787   -0.3082 C.ar    1  UNL1        0.0385
     16 N          -6.0003   -3.5036   -0.6978 N.ar    1  UNL1       -0.2431
     17 C          -5.1109   -4.5038   -0.8398 C.ar    1  UNL1        0.1159
     18 N          -3.8002   -4.3125   -0.6054 N.ar    1  UNL1       -0.2431
     19 C          -3.3331   -3.0997   -0.2170 C.ar    1  UNL1        0.0385
     20 C          -2.4214   -0.4117   -0.0470 C.ar    1  UNL1       -0.0462
     21 N          -0.0755    2.0939    1.0516 N.2     1  UNL1       -0.0890
     22 C           0.0296    3.3256    0.7729 C.2     1  UNL1        0.3731
     23 N           0.4892    4.2863    1.7300 N.pl3   1  UNL1       -0.2512
     24 N          -0.3678    3.5386   -0.5598 N.am    1  UNL1       -0.1614
     25 C          -0.3712    4.8373   -1.2103 C.3     1  UNL1        0.0573
     26 C          -0.7455    2.2859   -1.1099 C.2     1  UNL1        0.3304
     27 O          -1.1526    2.1478   -2.2892 O.2     1  UNL1       -0.2520
     28 C           0.4315   -0.5441   -1.5002 C.ar    1  UNL1        0.0571
     29 N           1.4890   -1.3612   -1.3690 N.ar    1  UNL1       -0.1792
     30 H           6.9980   -1.3605   -1.4208 H       1  UNL1        0.0230
     31 H           7.9062   -2.0742   -0.0470 H       1  UNL1        0.0230
     32 H           7.1976   -0.4101    0.1552 H       1  UNL1        0.0230
     33 H           5.7296   -2.0979    1.2598 H       1  UNL1        0.0263
     34 H           5.7530   -3.0584   -0.3029 H       1  UNL1        0.0263
     35 H           4.5977   -1.0510   -1.4017 H       1  UNL1        0.0283
     36 H           4.6913   -0.2100    0.1757 H       1  UNL1        0.0283
     37 H           3.3369   -2.9209   -0.1936 H       1  UNL1        0.0509
     38 H           3.4023   -1.9497    1.2859 H       1  UNL1        0.0509
     39 H           1.7665    0.2429    1.3669 H       1  UNL1        0.0830
     40 H          -2.2580    2.6202    1.4333 H       1  UNL1        0.0622
     41 H          -4.5106    1.9990    2.1613 H       1  UNL1        0.0618
     42 H          -5.4381   -0.2181    1.4555 H       1  UNL1        0.0624
     43 H          -6.2660   -1.4840   -0.1972 H       1  UNL1        0.0837
     44 H          -5.5119   -5.4581   -1.1502 H       1  UNL1        0.1047
     45 H          -2.2880   -2.9286   -0.0222 H       1  UNL1        0.0837
     46 H          -1.8303   -1.0676   -0.6581 H       1  UNL1        0.0628
     47 H          -0.1223    4.4987    2.5379 H       1  UNL1        0.2412
     48 H           1.3980    4.7714    1.6483 H       1  UNL1        0.2412
     49 H           0.5964    4.9389   -1.7456 H       1  UNL1        0.0602
     50 H          -0.5327    5.6425   -0.4673 H       1  UNL1        0.0602
     51 H          -1.2441    4.8991   -1.9212 H       1  UNL1        0.0602
     52 H          -0.2415   -0.5457   -2.3636 H       1  UNL1        0.0852
@<TRIPOS>BOND
     1     1     2    1
     2     2     3    1
     3     3     4    1
     4     4     5    1
     5     5     6   ar
     6     6     7   ar
     7     7     8    1
     8     8     9    1
     9     9    10   ar
    10    10    11   ar
    11    11    12   ar
    12    12    13   ar
    13    13    14    1
    14    14    15   ar
    15    15    16   ar
    16    16    17   ar
    17    17    18   ar
    18    18    19   ar
    19    13    20   ar
    20     8    21    1
    21    21    22    2
    22    22    23    1
    23    22    24    1
    24    24    25    1
    25    24    26   am
    26    26    27    2
    27     7    28   ar
    28    28    29   ar
    29    29     5   ar
    30    26     8    1
    31    20     9   ar
    32    19    14   ar
    33     1    30    1
    34     1    31    1
    35     1    32    1
    36     2    33    1
    37     2    34    1
    38     3    35    1
    39     3    36    1
    40     4    37    1
    41     4    38    1
    42     6    39    1
    43    10    40    1
    44    11    41    1
    45    12    42    1
    46    15    43    1
    47    17    44    1
    48    19    45    1
    49    20    46    1
    50    23    47    1
    51    23    48    1
    52    25    49    1
    53    25    50    1
    54    25    51    1
    55    28    52    1
