@<TRIPOS>MOLECULE
*****
 36 39 0 0 0
SMALL
GASTEIGER

@<TRIPOS>ATOM
      1 C          -5.4624    2.3487    0.4211 C.3     1  UNL1       -0.0218
      2 C          -4.6226    1.1638    0.8307 C.ar    1  UNL1        0.0462
      3 C          -5.0744    0.2910    1.7899 C.ar    1  UNL1       -0.0012
      4 S          -3.7757   -0.8738    1.9008 S.2     1  UNL1       -0.0723
      5 C          -2.7262   -0.0068    0.5785 C.ar    1  UNL1        0.1455
      6 C          -1.4246   -0.5715    0.2129 C.ar    1  UNL1        0.1876
      7 N          -0.2571   -0.1491    0.7702 N.ar    1  UNL1       -0.2098
      8 C           0.9195   -0.6869    0.4093 C.ar    1  UNL1        0.1346
      9 N           2.1678   -0.3022    0.9586 N.pl3   1  UNL1       -0.2988
     10 C           2.7882    0.9314    0.7342 C.ar    1  UNL1        0.0353
     11 C           2.1101    1.9570    0.1222 C.ar    1  UNL1       -0.0224
     12 C           2.7070    3.1946   -0.1091 C.ar    1  UNL1        0.0293
     13 N           3.9788    3.4081    0.2708 N.ar    1  UNL1       -0.2631
     14 C           4.6752    2.4253    0.8743 C.ar    1  UNL1        0.0293
     15 C           4.0958    1.1795    1.1141 C.ar    1  UNL1       -0.0224
     16 C           0.9061   -1.6802   -0.5427 C.ar    1  UNL1        0.0405
     17 C           2.0918   -2.2765   -0.9478 C.ar    1  UNL1       -0.0493
     18 C           2.1335   -3.2791   -1.8919 C.ar    1  UNL1       -0.0610
     19 C           0.9493   -3.7067   -2.4564 C.ar    1  UNL1       -0.0597
     20 C          -0.2314   -3.1241   -2.0633 C.ar    1  UNL1       -0.0356
     21 C          -0.2776   -2.1214   -1.1194 C.ar    1  UNL1        0.0767
     22 N          -1.4370   -1.5438   -0.7191 N.ar    1  UNL1       -0.2254
     23 N          -3.4542    0.8949    0.3224 N.ar    1  UNL1       -0.2411
     24 H          -6.5411    2.0742    0.3717 H       1  UNL1        0.0293
     25 H          -5.1811    2.7499   -0.5555 H       1  UNL1        0.0293
     26 H          -5.3722    3.1109    1.2069 H       1  UNL1        0.0293
     27 H          -6.0110    0.3076    2.3513 H       1  UNL1        0.0712
     28 H           2.6557   -0.9977    1.5763 H       1  UNL1        0.1536
     29 H           1.0699    1.8656   -0.2182 H       1  UNL1        0.0651
     30 H           2.1781    4.0028   -0.5859 H       1  UNL1        0.0830
     31 H           5.7133    2.5972    1.1862 H       1  UNL1        0.0830
     32 H           4.7127    0.4463    1.5989 H       1  UNL1        0.0651
     33 H           3.0244   -1.9458   -0.5075 H       1  UNL1        0.0625
     34 H           3.1090   -3.7093   -2.1670 H       1  UNL1        0.0618
     35 H           1.0289   -4.4978   -3.1952 H       1  UNL1        0.0618
     36 H          -1.1662   -3.4762   -2.5224 H       1  UNL1        0.0639
@<TRIPOS>BOND
     1     1     2    1
     2     2     3   ar
     3     3     4   ar
     4     4     5   ar
     5     5     6    1
     6     6     7   ar
     7     7     8   ar
     8     8     9    1
     9     9    10    1
    10    10    11   ar
    11    11    12   ar
    12    12    13   ar
    13    13    14   ar
    14    14    15   ar
    15     8    16   ar
    16    16    17   ar
    17    17    18   ar
    18    18    19   ar
    19    19    20   ar
    20    20    21   ar
    21    21    22   ar
    22     5    23   ar
    23    23     2   ar
    24    22     6   ar
    25    15    10   ar
    26    21    16   ar
    27     1    24    1
    28     1    25    1
    29     1    26    1
    30     3    27    1
    31     9    28    1
    32    11    29    1
    33    12    30    1
    34    14    31    1
    35    15    32    1
    36    17    33    1
    37    18    34    1
    38    19    35    1
    39    20    36    1
