@<TRIPOS>MOLECULE
*****
 62 67 0 0 0
SMALL
GASTEIGER

@<TRIPOS>ATOM
      1 C          -7.2367    0.1657   -1.1443 C.3     1  UNL1       -0.0130
      2 N          -7.4482    0.8197    0.0967 N.3     1  UNL1       -0.3081
      3 C          -8.4812    0.2066    0.8573 C.3     1  UNL1       -0.0130
      4 C          -6.3251    1.3038    0.8004 C.3     1  UNL1        0.0012
      5 C          -5.3851    0.3121    1.3758 C.3     1  UNL1       -0.0270
      6 C          -4.6829   -0.6429    0.4733 C.3     1  UNL1       -0.0393
      7 C          -3.4100   -0.3045    1.2063 C.3     1  UNL1        0.0182
      8 C          -2.1669   -0.2192    0.4646 C.ar    1  UNL1        0.1181
      9 N          -1.0381   -0.9237    0.7808 N.ar    1  UNL1       -0.2309
     10 C          -0.0441   -0.6475   -0.0683 C.ar    1  UNL1        0.1002
     11 C           1.2792   -1.2479   -0.0050 C.ar    1  UNL1        0.0046
     12 C           1.4217   -2.6203    0.0318 C.ar    1  UNL1       -0.0518
     13 C           2.6501   -3.2390    0.1269 C.ar    1  UNL1       -0.0519
     14 C           3.7996   -2.4708    0.1894 C.ar    1  UNL1        0.0005
     15 C           5.0520   -3.0142    0.2865 C.ar    1  UNL1       -0.0505
     16 C           6.1381   -2.1500    0.3449 C.ar    1  UNL1       -0.0351
     17 C           5.9940   -0.7948    0.3091 C.ar    1  UNL1        0.0717
     18 C           7.1080    0.1454    0.3720 C.ar    1  UNL1        0.0004
     19 C           6.8058    1.5072    0.3286 C.ar    1  UNL1       -0.0526
     20 C           7.8346    2.4297    0.3881 C.ar    1  UNL1       -0.0611
     21 C           9.1474    2.0279    0.4890 C.ar    1  UNL1       -0.0617
     22 C           9.4545    0.6960    0.5322 C.ar    1  UNL1       -0.0611
     23 C           8.4142   -0.2362    0.4721 C.ar    1  UNL1       -0.0526
     24 N           4.7245   -0.3311    0.2123 N.ar    1  UNL1       -0.2467
     25 C           3.6638   -1.1135    0.1540 C.ar    1  UNL1        0.0723
     26 C           2.4188   -0.4821    0.0577 C.ar    1  UNL1       -0.0265
     27 C          -0.5496    0.2622   -0.9606 C.ar    1  UNL1        0.1135
     28 C          -0.0062    0.8999   -2.0577 C.ar    1  UNL1        0.1424
     29 N           1.3328    0.6088   -2.4134 N.pl3   1  UNL1       -0.3414
     30 N          -0.7680    1.7541   -2.7617 N.ar    1  UNL1       -0.2371
     31 C          -2.0389    1.9965   -2.4206 C.ar    1  UNL1        0.0463
     32 C          -2.6109    1.3668   -1.3215 C.ar    1  UNL1        0.0297
     33 N          -1.8533    0.5126   -0.6159 N.ar    1  UNL1       -0.2982
     34 C          -4.0385    0.9454    1.7421 C.3     1  UNL1       -0.0393
     35 H          -6.9721   -0.9012   -1.0815 H       1  UNL1        0.0391
     36 H          -8.1432    0.2938   -1.8092 H       1  UNL1        0.0391
     37 H          -6.4304    0.6927   -1.7048 H       1  UNL1        0.0391
     38 H          -9.3506    0.9284    0.8732 H       1  UNL1        0.0391
     39 H          -8.2293    0.0547    1.9260 H       1  UNL1        0.0391
     40 H          -8.8721   -0.6994    0.3681 H       1  UNL1        0.0391
     41 H          -6.7186    1.9561    1.6367 H       1  UNL1        0.0429
     42 H          -5.7234    1.9453    0.0901 H       1  UNL1        0.0429
     43 H          -5.7545   -0.2014    2.3165 H       1  UNL1        0.0313
     44 H          -4.6861   -0.4913   -0.5982 H       1  UNL1        0.0275
     45 H          -5.0597   -1.6949    0.6625 H       1  UNL1        0.0275
     46 H          -3.3367   -1.0342    2.0740 H       1  UNL1        0.0379
     47 H           0.5457   -3.2633   -0.0147 H       1  UNL1        0.0624
     48 H           2.7589   -4.3136    0.1553 H       1  UNL1        0.0624
     49 H           5.1574   -4.0782    0.3139 H       1  UNL1        0.0625
     50 H           7.1268   -2.6005    0.4217 H       1  UNL1        0.0639
     51 H           5.7753    1.8252    0.2492 H       1  UNL1        0.0624
     52 H           7.6079    3.4808    0.3552 H       1  UNL1        0.0618
     53 H           9.9380    2.7572    0.5345 H       1  UNL1        0.0618
     54 H          10.4639    0.3189    0.6110 H       1  UNL1        0.0618
     55 H           8.6367   -1.2996    0.5048 H       1  UNL1        0.0624
     56 H           2.4028    0.6158    0.0552 H       1  UNL1        0.0645
     57 H           1.5872   -0.3508   -2.7800 H       1  UNL1        0.1438
     58 H           2.1171    1.2925   -2.3393 H       1  UNL1        0.1438
     59 H          -2.6381    2.6899   -3.0009 H       1  UNL1        0.0845
     60 H          -3.6508    1.5712   -1.0504 H       1  UNL1        0.0829
     61 H          -3.8099    1.8992    1.2765 H       1  UNL1        0.0275
     62 H          -3.8980    1.0842    2.8581 H       1  UNL1        0.0275
@<TRIPOS>BOND
     1     1     2    1
     2     2     3    1
     3     2     4    1
     4     4     5    1
     5     5     6    1
     6     6     7    1
     7     7     8    1
     8     8     9   ar
     9     9    10   ar
    10    10    11    1
    11    11    12   ar
    12    12    13   ar
    13    13    14   ar
    14    14    15   ar
    15    15    16   ar
    16    16    17   ar
    17    17    18    1
    18    18    19   ar
    19    19    20   ar
    20    20    21   ar
    21    21    22   ar
    22    22    23   ar
    23    17    24   ar
    24    24    25   ar
    25    25    26   ar
    26    10    27   ar
    27    27    28   ar
    28    28    29    1
    29    28    30   ar
    30    30    31   ar
    31    31    32   ar
    32    32    33   ar
    33     7    34    1
    34    34     5    1
    35    33     8   ar
    36    26    11   ar
    37    33    27   ar
    38    25    14   ar
    39    23    18   ar
    40     1    35    1
    41     1    36    1
    42     1    37    1
    43     3    38    1
    44     3    39    1
    45     3    40    1
    46     4    41    1
    47     4    42    1
    48     5    43    1
    49     6    44    1
    50     6    45    1
    51     7    46    1
    52    12    47    1
    53    13    48    1
    54    15    49    1
    55    16    50    1
    56    19    51    1
    57    20    52    1
    58    21    53    1
    59    22    54    1
    60    23    55    1
    61    26    56    1
    62    29    57    1
    63    29    58    1
    64    31    59    1
    65    32    60    1
    66    34    61    1
    67    34    62    1
