
     RDKit          3D

 51 52  0  0  0  0  0  0  0  0999 V2000
   -8.7734    2.2363    0.8088 N   0  0  0  0  0  0  0  0  0  0  0  0
   -7.9816    1.1814    0.2320 C   0  0  0  0  0  0  0  0  0  0  0  0
   -8.4221   -0.0221    0.0069 N   0  0  0  0  0  0  0  0  0  0  0  0
   -6.6108    1.4488   -0.1305 N   0  0  0  0  0  0  0  0  0  0  0  0
   -6.1435    0.8872   -1.2700 O   0  0  0  0  0  0  0  0  0  0  0  0
   -4.7535    0.9712   -1.3558 C   0  0  0  0  0  0  0  0  0  0  0  0
   -4.3941    0.3941   -2.7019 C   0  0  0  0  0  0  0  0  0  0  0  0
   -3.0017    0.3804   -3.0024 N   0  0  0  0  0  0  0  0  0  0  0  0
   -2.0690   -0.3432   -2.1824 C   0  0  0  0  0  0  0  0  0  0  0  0
   -2.5725   -0.9532   -1.1969 O   0  0  0  0  0  0  0  0  0  0  0  0
   -0.6549   -0.2885   -2.5820 C   0  0  0  0  0  0  0  0  0  0  0  0
    0.2547   -1.0602   -1.7021 C   0  0  0  0  0  0  0  0  0  0  0  0
    0.2237   -2.4273   -1.8778 C   0  0  0  0  0  0  0  0  0  0  0  0
   -0.8063   -3.2229   -3.0473 Cl  0  0  0  0  0  0  0  0  0  0  0  0
    1.0490   -3.2411   -1.0940 C   0  0  0  0  0  0  0  0  0  0  0  0
    1.8528   -2.5950   -0.1797 C   0  0  0  0  0  0  0  0  0  0  0  0
    1.9262   -1.2195    0.0419 C   0  0  0  0  0  0  0  0  0  0  0  0
    2.7923   -0.6591    1.0125 N   0  0  0  0  0  0  0  0  0  0  0  0
    3.6149   -1.5692    1.7838 C   0  0  0  0  0  0  0  0  0  0  0  0
    4.4757   -0.8529    2.7706 C   0  0  0  0  0  0  0  0  0  0  0  0
    5.2625   -1.7452    3.5049 F   0  0  0  0  0  0  0  0  0  0  0  0
    3.6443   -0.2132    3.6910 F   0  0  0  0  0  0  0  0  0  0  0  0
    5.3696    0.1667    2.1855 C   0  0  0  0  0  0  0  0  0  0  0  0
    5.1165    1.5142    2.0048 C   0  0  0  0  0  0  0  0  0  0  0  0
    6.0414    2.3557    1.4393 C   0  0  0  0  0  0  0  0  0  0  0  0
    7.2657    1.8385    1.0378 C   0  0  0  0  0  0  0  0  0  0  0  0
    7.5861    0.5244    1.1832 C   0  0  0  0  0  0  0  0  0  0  0  0
    6.6127   -0.2915    1.7633 C   0  0  0  0  0  0  0  0  0  0  0  0
    1.0869   -0.4849   -0.7651 C   0  0  0  0  0  0  0  0  0  0  0  0
    1.0722    0.8652   -0.6389 F   0  0  0  0  0  0  0  0  0  0  0  0
   -9.0614    2.7222    1.6883 H   0  0  0  0  0  0  0  0  0  0  0  0
   -9.4372    3.0057    0.5476 H   0  0  0  0  0  0  0  0  0  0  0  0
   -9.3865   -0.3017    0.2322 H   0  0  0  0  0  0  0  0  0  0  0  0
   -6.0506    2.0748    0.5239 H   0  0  0  0  0  0  0  0  0  0  0  0
   -4.2765    0.4778   -0.5098 H   0  0  0  0  0  0  0  0  0  0  0  0
   -4.5506    2.0829   -1.3563 H   0  0  0  0  0  0  0  0  0  0  0  0
   -4.9206    1.0188   -3.4518 H   0  0  0  0  0  0  0  0  0  0  0  0
   -4.8544   -0.6347   -2.7479 H   0  0  0  0  0  0  0  0  0  0  0  0
   -2.6339    0.9066   -3.8385 H   0  0  0  0  0  0  0  0  0  0  0  0
   -0.3794    0.8079   -2.6102 H   0  0  0  0  0  0  0  0  0  0  0  0
   -0.5078   -0.6065   -3.6529 H   0  0  0  0  0  0  0  0  0  0  0  0
    1.1017   -4.3247   -1.1521 H   0  0  0  0  0  0  0  0  0  0  0  0
    2.5105   -3.2204    0.4472 H   0  0  0  0  0  0  0  0  0  0  0  0
    2.7571    0.3799    1.0843 H   0  0  0  0  0  0  0  0  0  0  0  0
    2.9249   -2.2497    2.3293 H   0  0  0  0  0  0  0  0  0  0  0  0
    4.2451   -2.2116    1.1102 H   0  0  0  0  0  0  0  0  0  0  0  0
    4.1632    1.8507    2.3339 H   0  0  0  0  0  0  0  0  0  0  0  0
    5.8359    3.3951    1.3028 H   0  0  0  0  0  0  0  0  0  0  0  0
    8.0219    2.4843    0.5846 H   0  0  0  0  0  0  0  0  0  0  0  0
    8.5359    0.1112    0.8742 H   0  0  0  0  0  0  0  0  0  0  0  0
    6.8989   -1.3435    1.8666 H   0  0  0  0  0  0  0  0  0  0  0  0
  1  2  1  0
  2  3  2  3
  2  4  1  0
  4  5  1  0
  5  6  1  0
  6  7  1  0
  7  8  1  0
  8  9  1  0
  9 10  2  0
  9 11  1  0
 11 12  1  0
 12 13  2  0
 13 14  1  0
 13 15  1  0
 15 16  2  0
 16 17  1  0
 17 18  1  0
 18 19  1  0
 19 20  1  0
 20 21  1  0
 20 22  1  0
 20 23  1  0
 23 24  2  0
 24 25  1  0
 25 26  2  0
 26 27  1  0
 27 28  2  0
 17 29  2  0
 29 30  1  0
 29 12  1  0
 28 23  1  0
  1 31  1  0
  1 32  1  0
  3 33  1  0
  4 34  1  0
  6 35  1  0
  6 36  1  0
  7 37  1  0
  7 38  1  0
  8 39  1  0
 11 40  1  0
 11 41  1  0
 15 42  1  0
 16 43  1  0
 18 44  1  0
 19 45  1  0
 19 46  1  0
 24 47  1  0
 25 48  1  0
 26 49  1  0
 27 50  1  0
 28 51  1  0
M  END
$$$$
