@<TRIPOS>MOLECULE
*****
 51 52 0 0 0
SMALL
GASTEIGER

@<TRIPOS>ATOM
      1 N          -8.7734    2.2363    0.8088 N.pl3   1  UNL1       -0.2872
      2 C          -7.9816    1.1814    0.2320 C.2     1  UNL1        0.4042
      3 N          -8.4221   -0.0221    0.0069 N.pl3   1  UNL1       -0.1277
      4 N          -6.6108    1.4488   -0.1305 N.3     1  UNL1       -0.1393
      5 O          -6.1435    0.8872   -1.2700 O.3     1  UNL1       -0.2169
      6 C          -4.7535    0.9712   -1.3558 C.3     1  UNL1        0.1052
      7 C          -4.3941    0.3941   -2.7019 C.3     1  UNL1        0.0388
      8 N          -3.0017    0.3804   -3.0024 N.am    1  UNL1       -0.3127
      9 C          -2.0690   -0.3432   -2.1824 C.2     1  UNL1        0.2176
     10 O          -2.5725   -0.9532   -1.1969 O.2     1  UNL1       -0.2755
     11 C          -0.6549   -0.2885   -2.5820 C.3     1  UNL1        0.0532
     12 C           0.2547   -1.0602   -1.7021 C.ar    1  UNL1        0.0166
     13 C           0.2237   -2.4273   -1.8778 C.ar    1  UNL1        0.0474
     14 CL         -0.8063   -3.2229   -3.0473 Cl      1  UNL1       -0.0832
     15 C           1.0490   -3.2411   -1.0940 C.ar    1  UNL1       -0.0412
     16 C           1.8528   -2.5950   -0.1797 C.ar    1  UNL1       -0.0367
     17 C           1.9262   -1.2195    0.0419 C.ar    1  UNL1        0.0634
     18 N           2.7923   -0.6591    1.0125 N.pl3   1  UNL1       -0.3356
     19 C           3.6149   -1.5692    1.7838 C.3     1  UNL1        0.0770
     20 C           4.4757   -0.8529    2.7706 C.3     1  UNL1        0.2889
     21 F           5.2625   -1.7452    3.5049 F       1  UNL1       -0.1986
     22 F           3.6443   -0.2132    3.6910 F       1  UNL1       -0.1986
     23 C           5.3696    0.1667    2.1855 C.ar    1  UNL1        0.0221
     24 C           5.1165    1.5142    2.0048 C.ar    1  UNL1       -0.0529
     25 C           6.0414    2.3557    1.4393 C.ar    1  UNL1       -0.0613
     26 C           7.2657    1.8385    1.0378 C.ar    1  UNL1       -0.0617
     27 C           7.5861    0.5244    1.1832 C.ar    1  UNL1       -0.0613
     28 C           6.6127   -0.2915    1.7633 C.ar    1  UNL1       -0.0529
     29 C           1.0869   -0.4849   -0.7651 C.ar    1  UNL1        0.1491
     30 F           1.0722    0.8652   -0.6389 F       1  UNL1       -0.2032
     31 H          -9.0614    2.7222    1.6883 H       1  UNL1        0.2547
     32 H          -9.4372    3.0057    0.5476 H       1  UNL1        0.2547
     33 H          -9.3865   -0.3017    0.2322 H       1  UNL1        0.3063
     34 H          -6.0506    2.0748    0.5239 H       1  UNL1        0.2988
     35 H          -4.2765    0.4778   -0.5098 H       1  UNL1        0.0615
     36 H          -4.5506    2.0829   -1.3563 H       1  UNL1        0.0615
     37 H          -4.9206    1.0188   -3.4518 H       1  UNL1        0.0486
     38 H          -4.8544   -0.6347   -2.7479 H       1  UNL1        0.0486
     39 H          -2.6339    0.9066   -3.8385 H       1  UNL1        0.1488
     40 H          -0.3794    0.8079   -2.6102 H       1  UNL1        0.0408
     41 H          -0.5078   -0.6065   -3.6529 H       1  UNL1        0.0408
     42 H           1.1017   -4.3247   -1.1521 H       1  UNL1        0.0633
     43 H           2.5105   -3.2204    0.4472 H       1  UNL1        0.0637
     44 H           2.7571    0.3799    1.0843 H       1  UNL1        0.1464
     45 H           2.9249   -2.2497    2.3293 H       1  UNL1        0.0524
     46 H           4.2451   -2.2116    1.1102 H       1  UNL1        0.0524
     47 H           4.1632    1.8507    2.3339 H       1  UNL1        0.0622
     48 H           5.8359    3.3951    1.3028 H       1  UNL1        0.0618
     49 H           8.0219    2.4843    0.5846 H       1  UNL1        0.0618
     50 H           8.5359    0.1112    0.8742 H       1  UNL1        0.0618
     51 H           6.8989   -1.3435    1.8666 H       1  UNL1        0.0622
@<TRIPOS>BOND
     1     1     2    1
     2     2     3    2
     3     2     4    1
     4     4     5    1
     5     5     6    1
     6     6     7    1
     7     7     8    1
     8     8     9   am
     9     9    10    2
    10     9    11    1
    11    11    12    1
    12    12    13   ar
    13    13    14    1
    14    13    15   ar
    15    15    16   ar
    16    16    17   ar
    17    17    18    1
    18    18    19    1
    19    19    20    1
    20    20    21    1
    21    20    22    1
    22    20    23    1
    23    23    24   ar
    24    24    25   ar
    25    25    26   ar
    26    26    27   ar
    27    27    28   ar
    28    17    29   ar
    29    29    30    1
    30    29    12   ar
    31    28    23   ar
    32     1    31    1
    33     1    32    1
    34     3    33    1
    35     4    34    1
    36     6    35    1
    37     6    36    1
    38     7    37    1
    39     7    38    1
    40     8    39    1
    41    11    40    1
    42    11    41    1
    43    15    42    1
    44    16    43    1
    45    18    44    1
    46    19    45    1
    47    19    46    1
    48    24    47    1
    49    25    48    1
    50    26    49    1
    51    27    50    1
    52    28    51    1
