@<TRIPOS>MOLECULE
*****
 46 47 0 0 0
SMALL
GASTEIGER

@<TRIPOS>ATOM
      1 O           2.5264    1.1993   -1.2333 O.2     1  UNL1       -0.2737
      2 C           1.8205    1.7596   -0.3642 C.2     1  UNL1        0.2362
      3 C           0.6298    1.1685    0.2653 C.3     1  UNL1        0.0373
      4 C           0.4885   -0.3049    0.0745 C.3     1  UNL1        0.0480
      5 C           1.4991   -1.1929    0.6629 C.3     1  UNL1       -0.0161
      6 C           2.8941   -1.1243    0.3328 C.ar    1  UNL1       -0.0466
      7 C           3.7562   -0.3606    1.1325 C.ar    1  UNL1       -0.0586
      8 C           5.1054   -0.2732    0.8752 C.ar    1  UNL1       -0.0615
      9 C           5.6661   -0.9416   -0.1917 C.ar    1  UNL1       -0.0617
     10 C           4.8528   -1.6944   -0.9903 C.ar    1  UNL1       -0.0615
     11 C           3.5102   -1.7809   -0.7335 C.ar    1  UNL1       -0.0586
     12 C          -0.8490   -0.7049    0.6411 C.2     1  UNL1        0.2201
     13 O          -0.8310   -1.3094    1.7786 O.2     1  UNL1       -0.2753
     14 N          -2.0911   -0.4832    0.0525 N.am    1  UNL1       -0.2878
     15 C          -2.2311    0.1204   -1.2507 C.3     1  UNL1        0.0155
     16 C          -3.1095    1.3537   -1.1939 C.3     1  UNL1       -0.0371
     17 C          -4.4444    0.8790   -0.6063 C.3     1  UNL1       -0.0494
     18 C          -4.1765    0.3896    0.7808 C.3     1  UNL1       -0.0239
     19 C          -3.2993   -0.8583    0.8007 C.3     1  UNL1        0.1227
     20 C          -3.9454   -2.0405    0.2338 C.2     1  UNL1        0.3255
     21 O          -3.4961   -2.6575   -0.7898 O.2     1  UNL1       -0.2489
     22 O          -5.1033   -2.5662    0.7870 O.3     1  UNL1       -0.4793
     23 N           2.2218    3.0838    0.0362 N.am    1  UNL1       -0.1975
     24 O           3.3007    3.6827   -0.4997 O.3     1  UNL1       -0.2952
     25 H           0.6313    1.4141    1.3767 H       1  UNL1        0.0366
     26 H          -0.2524    1.6833   -0.1823 H       1  UNL1        0.0366
     27 H           0.4011   -0.4399   -1.0468 H       1  UNL1        0.0402
     28 H           1.4263   -1.1107    1.8063 H       1  UNL1        0.0321
     29 H           1.1911   -2.2915    0.5224 H       1  UNL1        0.0321
     30 H           3.3378    0.1741    1.9777 H       1  UNL1        0.0620
     31 H           5.7831    0.3175    1.4908 H       1  UNL1        0.0618
     32 H           6.7471   -0.8517   -0.3709 H       1  UNL1        0.0618
     33 H           5.3054   -2.2264   -1.8412 H       1  UNL1        0.0618
     34 H           2.8914   -2.3803   -1.3773 H       1  UNL1        0.0620
     35 H          -2.7392   -0.6170   -1.9462 H       1  UNL1        0.0465
     36 H          -1.2935    0.3621   -1.7160 H       1  UNL1        0.0465
     37 H          -3.3023    1.7206   -2.2046 H       1  UNL1        0.0280
     38 H          -2.6828    2.0928   -0.5007 H       1  UNL1        0.0280
     39 H          -5.0979    1.7481   -0.5581 H       1  UNL1        0.0266
     40 H          -4.8276    0.0991   -1.2863 H       1  UNL1        0.0266
     41 H          -3.5902    1.1751    1.3062 H       1  UNL1        0.0288
     42 H          -5.1006    0.2382    1.3771 H       1  UNL1        0.0288
     43 H          -3.0114   -1.0273    1.8515 H       1  UNL1        0.0616
     44 H          -5.2654   -3.5812    0.8573 H       1  UNL1        0.2951
     45 H           1.6746    3.6039    0.7565 H       1  UNL1        0.1822
     46 H           3.0794    4.5537   -0.8923 H       1  UNL1        0.2414
@<TRIPOS>BOND
     1     1     2    2
     2     2     3    1
     3     3     4    1
     4     4     5    1
     5     5     6    1
     6     6     7   ar
     7     7     8   ar
     8     8     9   ar
     9     9    10   ar
    10    10    11   ar
    11     4    12    1
    12    12    13    2
    13    12    14   am
    14    14    15    1
    15    15    16    1
    16    16    17    1
    17    17    18    1
    18    18    19    1
    19    19    20    1
    20    20    21    2
    21    20    22    1
    22     2    23   am
    23    23    24    1
    24    11     6   ar
    25    19    14    1
    26     3    25    1
    27     3    26    1
    28     4    27    1
    29     5    28    1
    30     5    29    1
    31     7    30    1
    32     8    31    1
    33     9    32    1
    34    10    33    1
    35    11    34    1
    36    15    35    1
    37    15    36    1
    38    16    37    1
    39    16    38    1
    40    17    39    1
    41    17    40    1
    42    18    41    1
    43    18    42    1
    44    19    43    1
    45    22    44    1
    46    23    45    1
    47    24    46    1
