@<TRIPOS>MOLECULE
*****
 44 45 0 0 0
SMALL
GASTEIGER

@<TRIPOS>ATOM
      1 O          -0.4086    0.1044    2.2996 O.3     1  UNL1       -0.3864
      2 C          -1.0771   -0.2527    1.1402 C.3     1  UNL1        0.1135
      3 C          -2.5975   -0.2310    1.3229 C.3     1  UNL1        0.1286
      4 O          -2.8235    0.6508    2.3935 O.3     1  UNL1       -0.3847
      5 C          -3.0387    0.4526    0.0449 C.3     1  UNL1        0.1679
      6 O          -1.9361    0.3479   -0.8310 O.3     1  UNL1       -0.3456
      7 C          -0.9281    0.7958    0.0504 C.3     1  UNL1        0.1134
      8 C           0.4225    0.8022   -0.5750 C.3     1  UNL1        0.0879
      9 O           1.3616    1.2460    0.3269 O.3     1  UNL1       -0.2837
     10 P           2.9192    1.2960   -0.2649 P.3     1  UNL1        0.4835
     11 O           3.3256    2.7654   -0.9666 O.3     1  UNL1       -0.3022
     12 O           3.8471    1.1107    0.9386 O.2     1  UNL1       -0.2269
     13 O           3.2138    0.0645   -1.3968 O.3     1  UNL1       -0.1858
     14 P           4.8533    0.1779   -1.8595 P.3     1  UNL1        0.4918
     15 O           5.6991    1.2467   -0.8317 O.3     1  UNL1       -0.3019
     16 O           4.9977    0.6913   -3.2750 O.2     1  UNL1       -0.2265
     17 O           5.5173   -1.3594   -1.6895 O.3     1  UNL1       -0.1859
     18 P           6.2661   -1.5659   -0.1885 P.3     1  UNL1        0.4808
     19 O           7.4030   -2.8163   -0.3544 O.3     1  UNL1       -0.3023
     20 O           6.9895   -0.1510    0.3648 O.3     1  UNL1       -0.3023
     21 O           5.2546   -2.0408    0.8581 O.2     1  UNL1       -0.2271
     22 N          -4.2215   -0.1730   -0.4597 N.ar    1  UNL1       -0.2715
     23 C          -5.3664    0.2922    0.0948 C.ar    1  UNL1        0.0171
     24 C          -6.6223   -0.1703   -0.2446 C.ar    1  UNL1        0.0192
     25 C          -6.6872   -1.1627   -1.2056 C.ar    1  UNL1        0.2539
     26 O          -7.8105   -1.6157   -1.5475 O.2     1  UNL1       -0.2677
     27 N          -5.5352   -1.6022   -1.7358 N.ar    1  UNL1       -0.2749
     28 C          -4.3203   -1.1384   -1.3914 C.ar    1  UNL1        0.3314
     29 O          -3.2354   -1.5311   -1.8701 O.2     1  UNL1       -0.2464
     30 H          -0.1252   -0.7393    2.7463 H       1  UNL1        0.2100
     31 H          -0.7195   -1.2226    0.7560 H       1  UNL1        0.0647
     32 H          -3.0264   -1.2218    1.4759 H       1  UNL1        0.0665
     33 H          -2.9316    1.5857    2.0622 H       1  UNL1        0.2101
     34 H          -3.2123    1.5478    0.2378 H       1  UNL1        0.0867
     35 H          -1.2808    1.7751    0.4058 H       1  UNL1        0.0647
     36 H           0.3799    1.3852   -1.5049 H       1  UNL1        0.0592
     37 H           0.6717   -0.2498   -0.8334 H       1  UNL1        0.0592
     38 H           2.8198    3.5423   -0.6246 H       1  UNL1        0.2220
     39 H           5.6011    2.1569   -1.2288 H       1  UNL1        0.2220
     40 H           6.8994   -3.5638   -0.7701 H       1  UNL1        0.2220
     41 H           7.9508   -0.1599    0.1392 H       1  UNL1        0.2220
     42 H          -5.3957    1.0786    0.8634 H       1  UNL1        0.0813
     43 H          -7.5324    0.2045    0.2011 H       1  UNL1        0.0686
     44 H          -5.5609   -2.3528   -2.4647 H       1  UNL1        0.1734
@<TRIPOS>BOND
     1     1     2    1
     2     2     3    1
     3     3     4    1
     4     3     5    1
     5     5     6    1
     6     6     7    1
     7     7     8    1
     8     8     9    1
     9     9    10    1
    10    10    11    1
    11    10    12    2
    12    10    13    1
    13    13    14    1
    14    14    15    1
    15    14    16    2
    16    14    17    1
    17    17    18    1
    18    18    19    1
    19    18    20    1
    20    18    21    2
    21     5    22    1
    22    22    23   ar
    23    23    24   ar
    24    24    25   ar
    25    25    26    2
    26    25    27   ar
    27    27    28   ar
    28    28    29    2
    29     7     2    1
    30    28    22   ar
    31     1    30    1
    32     2    31    1
    33     3    32    1
    34     4    33    1
    35     5    34    1
    36     7    35    1
    37     8    36    1
    38     8    37    1
    39    11    38    1
    40    15    39    1
    41    19    40    1
    42    20    41    1
    43    23    42    1
    44    24    43    1
    45    27    44    1
