
     RDKit          3D

 31 32  0  0  0  0  0  0  0  0999 V2000
    1.3694    4.4234   -0.2281 C   0  0  0  0  0  0  0  0  0  0  0  0
    1.2191    2.9845   -0.3527 C   0  0  0  0  0  0  0  0  0  0  0  0
    1.1018    1.6311   -0.4673 C   0  0  0  0  0  0  0  0  0  0  0  0
    1.5796    0.9424    0.6879 N   0  0  0  0  0  0  0  0  0  0  0  0
    2.8762    0.9304    0.9961 C   0  0  0  0  0  0  0  0  0  0  0  0
    0.4643    0.4903    1.4692 C   0  0  0  0  0  0  0  0  0  0  0  0
   -0.1384   -0.7399    0.8380 C   0  0  0  0  0  0  0  0  0  0  0  0
    0.6218   -1.9112    0.9425 C   0  0  0  0  0  0  0  0  0  0  0  0
    0.3338   -2.9351    0.0775 C   0  0  0  0  0  0  0  0  0  0  0  0
   -0.6696   -2.8434   -0.8754 C   0  0  0  0  0  0  0  0  0  0  0  0
   -0.8654   -3.9475   -1.6888 O   0  0  0  0  0  0  0  0  0  0  0  0
   -1.4229   -1.6996   -0.9821 C   0  0  0  0  0  0  0  0  0  0  0  0
   -2.3932   -1.6664   -1.9101 N   0  0  0  0  0  0  0  0  0  0  0  0
   -3.1577   -0.5203   -1.9717 C   0  0  0  0  0  0  0  0  0  0  0  0
   -2.9285    0.4978   -1.1324 C   0  0  0  0  0  0  0  0  0  0  0  0
   -1.9167    0.4949   -0.1531 C   0  0  0  0  0  0  0  0  0  0  0  0
   -1.1314   -0.6339   -0.0776 C   0  0  0  0  0  0  0  0  0  0  0  0
    1.4560    5.4000   -0.1512 H   0  0  0  0  0  0  0  0  0  0  0  0
    0.0831    1.3460   -0.8139 H   0  0  0  0  0  0  0  0  0  0  0  0
    1.7652    1.3223   -1.3603 H   0  0  0  0  0  0  0  0  0  0  0  0
    3.2914    1.8950    1.4711 H   0  0  0  0  0  0  0  0  0  0  0  0
    3.2268    0.1292    1.7411 H   0  0  0  0  0  0  0  0  0  0  0  0
    3.5251    0.8056    0.0733 H   0  0  0  0  0  0  0  0  0  0  0  0
    0.6336    0.3790    2.5076 H   0  0  0  0  0  0  0  0  0  0  0  0
   -0.2872    1.3440    1.3183 H   0  0  0  0  0  0  0  0  0  0  0  0
    1.3702   -1.9461    1.6726 H   0  0  0  0  0  0  0  0  0  0  0  0
    0.8883   -3.8842    0.0691 H   0  0  0  0  0  0  0  0  0  0  0  0
   -1.6049   -4.6375   -1.4513 H   0  0  0  0  0  0  0  0  0  0  0  0
   -3.9483   -0.4556   -2.7524 H   0  0  0  0  0  0  0  0  0  0  0  0
   -3.5166    1.4308   -1.1315 H   0  0  0  0  0  0  0  0  0  0  0  0
   -1.8250    1.3742    0.4432 H   0  0  0  0  0  0  0  0  0  0  0  0
  1  2  3  0
  2  3  1  0
  3  4  1  0
  4  5  1  0
  4  6  1  0
  6  7  1  0
  7  8  2  0
  8  9  1  0
  9 10  2  0
 10 11  1  0
 10 12  1  0
 12 13  2  0
 13 14  1  0
 14 15  2  0
 15 16  1  0
 16 17  2  0
 17  7  1  0
 17 12  1  0
  1 18  1  0
  3 19  1  0
  3 20  1  0
  5 21  1  0
  5 22  1  0
  5 23  1  0
  6 24  1  0
  6 25  1  0
  8 26  1  0
  9 27  1  0
 11 28  1  0
 14 29  1  0
 15 30  1  0
 16 31  1  0
M  END
$$$$
