@<TRIPOS>MOLECULE
*****
 31 32 0 0 0
SMALL
GASTEIGER

@<TRIPOS>ATOM
      1 C           1.3694    4.4234   -0.2281 C.1     1  UNL1       -0.1179
      2 C           1.2191    2.9845   -0.3527 C.1     1  UNL1       -0.0900
      3 C           1.1018    1.6311   -0.4673 C.3     1  UNL1        0.0607
      4 N           1.5796    0.9424    0.6879 N.3     1  UNL1       -0.2904
      5 C           2.8762    0.9304    0.9961 C.3     1  UNL1       -0.0115
      6 C           0.4643    0.4903    1.4692 C.3     1  UNL1        0.0253
      7 C          -0.1384   -0.7399    0.8380 C.ar    1  UNL1       -0.0240
      8 C           0.6218   -1.9112    0.9425 C.ar    1  UNL1       -0.0532
      9 C           0.3338   -2.9351    0.0775 C.ar    1  UNL1       -0.0177
     10 C          -0.6696   -2.8434   -0.8754 C.ar    1  UNL1        0.1427
     11 O          -0.8654   -3.9475   -1.6888 O.3     1  UNL1       -0.5046
     12 C          -1.4229   -1.6996   -0.9821 C.ar    1  UNL1        0.1125
     13 N          -2.3932   -1.6664   -1.9101 N.ar    1  UNL1       -0.2513
     14 C          -3.1577   -0.5203   -1.9717 C.ar    1  UNL1        0.0284
     15 C          -2.9285    0.4978   -1.1324 C.ar    1  UNL1       -0.0430
     16 C          -1.9167    0.4949   -0.1531 C.ar    1  UNL1       -0.0507
     17 C          -1.1314   -0.6339   -0.0776 C.ar    1  UNL1        0.0084
     18 H           1.4560    5.4000   -0.1512 H       1  UNL1        0.1228
     19 H           0.0831    1.3460   -0.8139 H       1  UNL1        0.0563
     20 H           1.7652    1.3223   -1.3603 H       1  UNL1        0.0563
     21 H           3.2914    1.8950    1.4711 H       1  UNL1        0.0391
     22 H           3.2268    0.1292    1.7411 H       1  UNL1        0.0391
     23 H           3.5251    0.8056    0.0733 H       1  UNL1        0.0391
     24 H           0.6336    0.3790    2.5076 H       1  UNL1        0.0476
     25 H          -0.2872    1.3440    1.3183 H       1  UNL1        0.0476
     26 H           1.3702   -1.9461    1.6726 H       1  UNL1        0.0622
     27 H           0.8883   -3.8842    0.0691 H       1  UNL1        0.0655
     28 H          -1.6049   -4.6375   -1.4513 H       1  UNL1        0.2922
     29 H          -3.9483   -0.4556   -2.7524 H       1  UNL1        0.0830
     30 H          -3.5166    1.4308   -1.1315 H       1  UNL1        0.0633
     31 H          -1.8250    1.3742    0.4432 H       1  UNL1        0.0625
@<TRIPOS>BOND
     1     1     2    3
     2     2     3    1
     3     3     4    1
     4     4     5    1
     5     4     6    1
     6     6     7    1
     7     7     8   ar
     8     8     9   ar
     9     9    10   ar
    10    10    11    1
    11    10    12   ar
    12    12    13   ar
    13    13    14   ar
    14    14    15   ar
    15    15    16   ar
    16    16    17   ar
    17    17     7   ar
    18    17    12   ar
    19     1    18    1
    20     3    19    1
    21     3    20    1
    22     5    21    1
    23     5    22    1
    24     5    23    1
    25     6    24    1
    26     6    25    1
    27     8    26    1
    28     9    27    1
    29    11    28    1
    30    14    29    1
    31    15    30    1
    32    16    31    1
