
     RDKit          3D

 37 38  0  0  0  0  0  0  0  0999 V2000
   -2.6874   -1.1775    1.3488 C   0  0  1  0  0  0  0  0  0  0  0  0
   -3.2868   -2.3709    2.5780 S   0  0  0  0  0  0  0  0  0  0  0  0
   -3.8008   -0.6396    0.4905 C   0  0  0  0  0  0  0  0  0  0  0  0
   -3.2440    0.7257    0.0991 C   0  0  0  0  0  0  0  0  0  0  0  0
   -2.6545    1.1978    1.3554 N   0  0  0  0  0  0  0  0  0  0  0  0
   -2.1290    0.0512    2.0167 C   0  0  0  0  0  0  0  0  0  0  0  0
   -1.5208    2.4032    0.9702 S   0  0  0  0  0  0  0  0  0  0  0  0
   -2.2762    3.5447    0.3335 O   0  0  0  0  0  0  0  0  0  0  0  0
   -1.0161    2.9588    2.2908 O   0  0  0  0  0  0  0  0  0  0  0  0
   -0.2034    1.8610   -0.0293 C   0  0  0  0  0  0  0  0  0  0  0  0
    0.9588    1.3634    0.5240 C   0  0  0  0  0  0  0  0  0  0  0  0
    2.0350    0.9194   -0.2167 C   0  0  0  0  0  0  0  0  0  0  0  0
    1.9689    0.9657   -1.5978 C   0  0  0  0  0  0  0  0  0  0  0  0
    2.9463    0.5655   -2.4970 O   0  0  0  0  0  0  0  0  0  0  0  0
    4.1992    0.0310   -2.0409 C   0  0  0  0  0  0  0  0  0  0  0  0
    4.0069   -1.1783   -1.2398 C   0  0  0  0  0  0  0  0  0  0  0  0
    3.8467   -2.1635   -0.5636 C   0  0  0  0  0  0  0  0  0  0  0  0
    3.6494   -3.3589    0.2878 C   0  0  0  0  0  0  0  0  0  0  0  0
    0.8082    1.4633   -2.1986 C   0  0  0  0  0  0  0  0  0  0  0  0
   -0.2538    1.9006   -1.4087 C   0  0  0  0  0  0  0  0  0  0  0  0
   -1.9510   -1.6671    0.6529 H   0  0  0  0  0  0  0  0  0  0  0  0
   -4.5232   -2.8480    2.1100 H   0  0  0  0  0  0  0  0  0  0  0  0
   -3.9509   -1.2832   -0.4245 H   0  0  0  0  0  0  0  0  0  0  0  0
   -4.7517   -0.4880    1.0199 H   0  0  0  0  0  0  0  0  0  0  0  0
   -4.0134    1.4017   -0.2909 H   0  0  0  0  0  0  0  0  0  0  0  0
   -2.4405    0.5064   -0.6502 H   0  0  0  0  0  0  0  0  0  0  0  0
   -1.0287   -0.0369    1.9689 H   0  0  0  0  0  0  0  0  0  0  0  0
   -2.5149    0.0424    3.0692 H   0  0  0  0  0  0  0  0  0  0  0  0
    1.0971    1.2908    1.5938 H   0  0  0  0  0  0  0  0  0  0  0  0
    2.9489    0.5286    0.1903 H   0  0  0  0  0  0  0  0  0  0  0  0
    4.6188    0.8306   -1.3705 H   0  0  0  0  0  0  0  0  0  0  0  0
    4.8697   -0.1836   -2.8736 H   0  0  0  0  0  0  0  0  0  0  0  0
    3.9198   -3.0798    1.3096 H   0  0  0  0  0  0  0  0  0  0  0  0
    2.5837   -3.6848    0.2979 H   0  0  0  0  0  0  0  0  0  0  0  0
    4.2616   -4.2092   -0.0952 H   0  0  0  0  0  0  0  0  0  0  0  0
    0.6975    1.5244   -3.2819 H   0  0  0  0  0  0  0  0  0  0  0  0
   -1.1694    2.2930   -1.8768 H   0  0  0  0  0  0  0  0  0  0  0  0
  1  2  1  0
  1  3  1  0
  3  4  1  0
  4  5  1  0
  5  6  1  0
  5  7  1  0
  7  8  2  0
  7  9  2  0
  7 10  1  0
 10 11  2  0
 11 12  1  0
 12 13  2  0
 13 14  1  0
 14 15  1  0
 15 16  1  0
 16 17  3  0
 17 18  1  0
 13 19  1  0
 19 20  2  0
  6  1  1  0
 20 10  1  0
  1 21  1  6
  2 22  1  0
  3 23  1  0
  3 24  1  0
  4 25  1  0
  4 26  1  0
  6 27  1  0
  6 28  1  0
 11 29  1  0
 12 30  1  0
 15 31  1  0
 15 32  1  0
 18 33  1  0
 18 34  1  0
 18 35  1  0
 19 36  1  0
 20 37  1  0
M  END
$$$$
