@<TRIPOS>MOLECULE
*****
 37 38 0 0 0
SMALL
GASTEIGER

@<TRIPOS>ATOM
      1 C          -2.6874   -1.1775    1.3488 C.3     1  UNL1        0.0179
      2 S          -3.2868   -2.3709    2.5780 S.3     1  UNL1       -0.1735
      3 C          -3.8008   -0.6396    0.4905 C.3     1  UNL1       -0.0257
      4 C          -3.2440    0.7257    0.0991 C.3     1  UNL1        0.0216
      5 N          -2.6545    1.1978    1.3554 N.3     1  UNL1       -0.1755
      6 C          -2.1290    0.0512    2.0167 C.3     1  UNL1        0.0321
      7 S          -1.5208    2.4032    0.9702 S.O2    1  UNL1        0.0609
      8 O          -2.2762    3.5447    0.3335 O.2     1  UNL1       -0.1528
      9 O          -1.0161    2.9588    2.2908 O.2     1  UNL1       -0.1528
     10 C          -0.2034    1.8610   -0.0293 C.ar    1  UNL1        0.1057
     11 C           0.9588    1.3634    0.5240 C.ar    1  UNL1       -0.0319
     12 C           2.0350    0.9194   -0.2167 C.ar    1  UNL1       -0.0180
     13 C           1.9689    0.9657   -1.5978 C.ar    1  UNL1        0.1220
     14 O           2.9463    0.5655   -2.4970 O.3     1  UNL1       -0.4795
     15 C           4.1992    0.0310   -2.0409 C.3     1  UNL1        0.1499
     16 C           4.0069   -1.1783   -1.2398 C.1     1  UNL1       -0.0617
     17 C           3.8467   -2.1635   -0.5636 C.1     1  UNL1       -0.1022
     18 C           3.6494   -3.3589    0.2878 C.3     1  UNL1       -0.0025
     19 C           0.8082    1.4633   -2.1986 C.ar    1  UNL1       -0.0180
     20 C          -0.2538    1.9006   -1.4087 C.ar    1  UNL1       -0.0319
     21 H          -1.9510   -1.6671    0.6529 H       1  UNL1        0.0423
     22 H          -4.5232   -2.8480    2.1100 H       1  UNL1        0.1020
     23 H          -3.9509   -1.2832   -0.4245 H       1  UNL1        0.0289
     24 H          -4.7517   -0.4880    1.0199 H       1  UNL1        0.0289
     25 H          -4.0134    1.4017   -0.2909 H       1  UNL1        0.0444
     26 H          -2.4405    0.5064   -0.6502 H       1  UNL1        0.0444
     27 H          -1.0287   -0.0369    1.9689 H       1  UNL1        0.0455
     28 H          -2.5149    0.0424    3.0692 H       1  UNL1        0.0455
     29 H           1.0971    1.2908    1.5938 H       1  UNL1        0.0638
     30 H           2.9489    0.5286    0.1903 H       1  UNL1        0.0655
     31 H           4.6188    0.8306   -1.3705 H       1  UNL1        0.0837
     32 H           4.8697   -0.1836   -2.8736 H       1  UNL1        0.0837
     33 H           3.9198   -3.0798    1.3096 H       1  UNL1        0.0362
     34 H           2.5837   -3.6848    0.2979 H       1  UNL1        0.0362
     35 H           4.2616   -4.2092   -0.0952 H       1  UNL1        0.0362
     36 H           0.6975    1.5244   -3.2819 H       1  UNL1        0.0655
     37 H          -1.1694    2.2930   -1.8768 H       1  UNL1        0.0638
@<TRIPOS>BOND
     1     1     2    1
     2     1     3    1
     3     3     4    1
     4     4     5    1
     5     5     6    1
     6     5     7    1
     7     7     8    2
     8     7     9    2
     9     7    10    1
    10    10    11   ar
    11    11    12   ar
    12    12    13   ar
    13    13    14    1
    14    14    15    1
    15    15    16    1
    16    16    17    3
    17    17    18    1
    18    13    19   ar
    19    19    20   ar
    20     6     1    1
    21    20    10   ar
    22     1    21    1
    23     2    22    1
    24     3    23    1
    25     3    24    1
    26     4    25    1
    27     4    26    1
    28     6    27    1
    29     6    28    1
    30    11    29    1
    31    12    30    1
    32    15    31    1
    33    15    32    1
    34    18    33    1
    35    18    34    1
    36    18    35    1
    37    19    36    1
    38    20    37    1
