@<TRIPOS>MOLECULE
*****
 49 53 0 0 0
SMALL
GASTEIGER

@<TRIPOS>ATOM
      1 C          -2.1676    0.8157    2.7582 C.3     1  UNL1       -0.0274
      2 C          -1.8680    0.7871    1.2639 C.3     1  UNL1        0.1037
      3 O          -1.9403   -0.5321    0.8136 O.3     1  UNL1       -0.4725
      4 C          -0.8157   -1.1087    0.2459 C.ar    1  UNL1        0.2265
      5 N           0.3486   -0.4529    0.1078 N.ar    1  UNL1       -0.2121
      6 C           1.4593   -1.0024   -0.4458 C.ar    1  UNL1        0.0798
      7 C           2.6925   -0.2137   -0.5584 C.ar    1  UNL1        0.0380
      8 C           3.8939   -0.6165   -1.0884 C.ar    1  UNL1        0.0586
      9 N           4.7476    0.4161   -0.9918 N.ar    1  UNL1       -0.1787
     10 N           4.1412    1.4599   -0.4227 N.ar    1  UNL1       -0.2678
     11 C           4.7306    2.7520   -0.1482 C.3     1  UNL1        0.0528
     12 C           6.0650    3.0190   -0.7366 C.3     1  UNL1       -0.0286
     13 C           5.9201    2.7666    0.7730 C.3     1  UNL1       -0.0286
     14 C           2.8655    1.0872   -0.1472 C.ar    1  UNL1        0.0350
     15 C           1.4206   -2.3038   -0.9004 C.ar    1  UNL1       -0.0076
     16 C           0.2586   -3.0166   -0.7834 C.ar    1  UNL1        0.0999
     17 N          -0.1310   -4.2740   -1.1096 N.ar    1  UNL1       -0.1712
     18 N          -1.3946   -4.4606   -0.7712 N.ar    1  UNL1       -0.2732
     19 C          -2.1568   -5.6783   -0.9637 C.3     1  UNL1        0.0302
     20 C          -1.8601   -3.3285   -0.2156 C.ar    1  UNL1        0.0380
     21 C          -0.8384   -2.4121   -0.2145 C.ar    1  UNL1        0.0812
     22 C          -2.8746    1.6968    0.6034 C.3     1  UNL1        0.0196
     23 C          -2.7155    1.7805   -0.8808 C.3     1  UNL1        0.0182
     24 N          -4.0248    2.2300   -1.3103 N.am    1  UNL1       -0.3149
     25 C          -4.9990    1.9214   -0.3232 C.2     1  UNL1        0.2135
     26 O          -6.2270    2.1896   -0.3231 O.2     1  UNL1       -0.2758
     27 C          -4.2916    1.1937    0.7618 C.3     1  UNL1        0.0315
     28 H          -2.5292    1.8336    2.9947 H       1  UNL1        0.0265
     29 H          -3.0078    0.1206    2.9659 H       1  UNL1        0.0265
     30 H          -1.2805    0.5194    3.3551 H       1  UNL1        0.0265
     31 H          -0.8774    1.2003    1.0943 H       1  UNL1        0.0734
     32 H           4.1212   -1.5832   -1.5081 H       1  UNL1        0.0854
     33 H           3.9993    3.5708   -0.0982 H       1  UNL1        0.0545
     34 H           6.2575    4.0583   -1.0611 H       1  UNL1        0.0286
     35 H           6.5479    2.2226   -1.3311 H       1  UNL1        0.0286
     36 H           6.3179    1.7833    1.1119 H       1  UNL1        0.0286
     37 H           6.0899    3.6376    1.4455 H       1  UNL1        0.0286
     38 H           2.1072    1.6826    0.3098 H       1  UNL1        0.0833
     39 H           2.3047   -2.7693   -1.3510 H       1  UNL1        0.0661
     40 H          -1.4904   -6.5408   -1.1686 H       1  UNL1        0.0473
     41 H          -2.8765   -5.5711   -1.7794 H       1  UNL1        0.0473
     42 H          -2.6345   -5.9004    0.0245 H       1  UNL1        0.0473
     43 H          -2.8510   -3.1448    0.1682 H       1  UNL1        0.0834
     44 H          -2.7607    2.6935    1.0579 H       1  UNL1        0.0356
     45 H          -2.5288    0.7613   -1.3229 H       1  UNL1        0.0466
     46 H          -1.9177    2.5024   -1.1799 H       1  UNL1        0.0466
     47 H          -4.2392    2.7116   -2.2098 H       1  UNL1        0.1487
     48 H          -4.2941    0.0973    0.5209 H       1  UNL1        0.0363
     49 H          -4.6965    1.3990    1.7606 H       1  UNL1        0.0363
@<TRIPOS>BOND
     1     1     2    1
     2     2     3    1
     3     3     4    1
     4     4     5   ar
     5     5     6   ar
     6     6     7    1
     7     7     8   ar
     8     8     9   ar
     9     9    10   ar
    10    10    11    1
    11    11    12    1
    12    12    13    1
    13    10    14   ar
    14     6    15   ar
    15    15    16   ar
    16    16    17   ar
    17    17    18   ar
    18    18    19    1
    19    18    20   ar
    20    20    21   ar
    21     2    22    1
    22    22    23    1
    23    23    24    1
    24    24    25   am
    25    25    26    2
    26    25    27    1
    27    21     4   ar
    28    27    22    1
    29    14     7   ar
    30    21    16   ar
    31    13    11    1
    32     1    28    1
    33     1    29    1
    34     1    30    1
    35     2    31    1
    36     8    32    1
    37    11    33    1
    38    12    34    1
    39    12    35    1
    40    13    36    1
    41    13    37    1
    42    14    38    1
    43    15    39    1
    44    19    40    1
    45    19    41    1
    46    19    42    1
    47    20    43    1
    48    22    44    1
    49    23    45    1
    50    23    46    1
    51    24    47    1
    52    27    48    1
    53    27    49    1
