
     RDKit          3D

 49 53  0  0  0  0  0  0  0  0999 V2000
   -2.1676    0.8157    2.7582 C   0  0  0  0  0  0  0  0  0  0  0  0
   -1.8680    0.7871    1.2639 C   0  0  1  0  0  0  0  0  0  0  0  0
   -1.9403   -0.5321    0.8136 O   0  0  0  0  0  0  0  0  0  0  0  0
   -0.8157   -1.1087    0.2459 C   0  0  0  0  0  0  0  0  0  0  0  0
    0.3486   -0.4529    0.1078 N   0  0  0  0  0  0  0  0  0  0  0  0
    1.4593   -1.0024   -0.4458 C   0  0  0  0  0  0  0  0  0  0  0  0
    2.6925   -0.2137   -0.5584 C   0  0  0  0  0  0  0  0  0  0  0  0
    3.8939   -0.6165   -1.0884 C   0  0  0  0  0  0  0  0  0  0  0  0
    4.7476    0.4161   -0.9918 N   0  0  0  0  0  0  0  0  0  0  0  0
    4.1412    1.4599   -0.4227 N   0  0  0  0  0  0  0  0  0  0  0  0
    4.7306    2.7520   -0.1482 C   0  0  0  0  0  0  0  0  0  0  0  0
    6.0650    3.0190   -0.7366 C   0  0  0  0  0  0  0  0  0  0  0  0
    5.9201    2.7666    0.7730 C   0  0  0  0  0  0  0  0  0  0  0  0
    2.8655    1.0872   -0.1472 C   0  0  0  0  0  0  0  0  0  0  0  0
    1.4206   -2.3038   -0.9004 C   0  0  0  0  0  0  0  0  0  0  0  0
    0.2586   -3.0166   -0.7834 C   0  0  0  0  0  0  0  0  0  0  0  0
   -0.1310   -4.2740   -1.1096 N   0  0  0  0  0  0  0  0  0  0  0  0
   -1.3946   -4.4606   -0.7712 N   0  0  0  0  0  0  0  0  0  0  0  0
   -2.1568   -5.6783   -0.9637 C   0  0  0  0  0  0  0  0  0  0  0  0
   -1.8601   -3.3285   -0.2156 C   0  0  0  0  0  0  0  0  0  0  0  0
   -0.8384   -2.4121   -0.2145 C   0  0  0  0  0  0  0  0  0  0  0  0
   -2.8746    1.6968    0.6034 C   0  0  1  0  0  0  0  0  0  0  0  0
   -2.7155    1.7805   -0.8808 C   0  0  0  0  0  0  0  0  0  0  0  0
   -4.0248    2.2300   -1.3103 N   0  0  0  0  0  0  0  0  0  0  0  0
   -4.9990    1.9214   -0.3232 C   0  0  0  0  0  0  0  0  0  0  0  0
   -6.2270    2.1896   -0.3231 O   0  0  0  0  0  0  0  0  0  0  0  0
   -4.2916    1.1937    0.7618 C   0  0  0  0  0  0  0  0  0  0  0  0
   -2.5292    1.8336    2.9947 H   0  0  0  0  0  0  0  0  0  0  0  0
   -3.0078    0.1206    2.9659 H   0  0  0  0  0  0  0  0  0  0  0  0
   -1.2805    0.5194    3.3551 H   0  0  0  0  0  0  0  0  0  0  0  0
   -0.8774    1.2003    1.0943 H   0  0  0  0  0  0  0  0  0  0  0  0
    4.1212   -1.5832   -1.5081 H   0  0  0  0  0  0  0  0  0  0  0  0
    3.9993    3.5708   -0.0982 H   0  0  0  0  0  0  0  0  0  0  0  0
    6.2575    4.0583   -1.0611 H   0  0  0  0  0  0  0  0  0  0  0  0
    6.5479    2.2226   -1.3311 H   0  0  0  0  0  0  0  0  0  0  0  0
    6.3179    1.7833    1.1119 H   0  0  0  0  0  0  0  0  0  0  0  0
    6.0899    3.6376    1.4455 H   0  0  0  0  0  0  0  0  0  0  0  0
    2.1072    1.6826    0.3098 H   0  0  0  0  0  0  0  0  0  0  0  0
    2.3047   -2.7693   -1.3510 H   0  0  0  0  0  0  0  0  0  0  0  0
   -1.4904   -6.5408   -1.1686 H   0  0  0  0  0  0  0  0  0  0  0  0
   -2.8765   -5.5711   -1.7794 H   0  0  0  0  0  0  0  0  0  0  0  0
   -2.6345   -5.9004    0.0245 H   0  0  0  0  0  0  0  0  0  0  0  0
   -2.8510   -3.1448    0.1682 H   0  0  0  0  0  0  0  0  0  0  0  0
   -2.7607    2.6935    1.0579 H   0  0  0  0  0  0  0  0  0  0  0  0
   -2.5288    0.7613   -1.3229 H   0  0  0  0  0  0  0  0  0  0  0  0
   -1.9177    2.5024   -1.1799 H   0  0  0  0  0  0  0  0  0  0  0  0
   -4.2392    2.7116   -2.2098 H   0  0  0  0  0  0  0  0  0  0  0  0
   -4.2941    0.0973    0.5209 H   0  0  0  0  0  0  0  0  0  0  0  0
   -4.6965    1.3990    1.7606 H   0  0  0  0  0  0  0  0  0  0  0  0
  1  2  1  0
  2  3  1  0
  3  4  1  0
  4  5  2  0
  5  6  1  0
  6  7  1  0
  7  8  1  0
  8  9  2  0
  9 10  1  0
 10 11  1  0
 11 12  1  0
 12 13  1  0
 10 14  1  0
  6 15  2  0
 15 16  1  0
 16 17  2  0
 17 18  1  0
 18 19  1  0
 18 20  1  0
 20 21  2  0
  2 22  1  0
 22 23  1  0
 23 24  1  0
 24 25  1  0
 25 26  2  0
 25 27  1  0
 21  4  1  0
 27 22  1  0
 14  7  2  0
 21 16  1  0
 13 11  1  0
  1 28  1  0
  1 29  1  0
  1 30  1  0
  2 31  1  1
  8 32  1  0
 11 33  1  0
 12 34  1  0
 12 35  1  0
 13 36  1  0
 13 37  1  0
 14 38  1  0
 15 39  1  0
 19 40  1  0
 19 41  1  0
 19 42  1  0
 20 43  1  0
 22 44  1  1
 23 45  1  0
 23 46  1  0
 24 47  1  0
 27 48  1  0
 27 49  1  0
M  END
$$$$
