
     RDKit          3D

 46 50  0  0  0  0  0  0  0  0999 V2000
   -2.3014   -2.5690    4.3634 N   0  0  0  0  0  0  0  0  0  0  0  0
   -2.2998   -2.8079    3.2118 C   0  0  0  0  0  0  0  0  0  0  0  0
   -2.2737   -3.1008    1.8083 C   0  0  0  0  0  0  0  0  0  0  0  0
   -2.7438   -4.2452    1.2023 C   0  0  0  0  0  0  0  0  0  0  0  0
   -2.5021   -4.0764   -0.1231 N   0  0  0  0  0  0  0  0  0  0  0  0
   -1.9108   -2.8877   -0.3401 C   0  0  0  0  0  0  0  0  0  0  0  0
   -1.4591   -2.2265   -1.4590 C   0  0  0  0  0  0  0  0  0  0  0  0
   -0.8776   -0.9802   -1.3627 C   0  0  0  0  0  0  0  0  0  0  0  0
   -0.7479   -0.3862   -0.1145 C   0  0  0  0  0  0  0  0  0  0  0  0
   -0.1396    0.9257    0.0359 C   0  0  0  0  0  0  0  0  0  0  0  0
   -0.6248    2.0712   -0.5595 C   0  0  0  0  0  0  0  0  0  0  0  0
   -1.7928    2.1721   -1.4253 C   0  0  0  0  0  0  0  0  0  0  0  0
   -1.7417    2.5947   -2.7356 C   0  0  0  0  0  0  0  0  0  0  0  0
   -2.8562    2.6800   -3.5377 C   0  0  0  0  0  0  0  0  0  0  0  0
   -4.0863    2.3307   -3.0224 C   0  0  0  0  0  0  0  0  0  0  0  0
   -5.2109    2.4049   -3.7948 F   0  0  0  0  0  0  0  0  0  0  0  0
   -4.1779    1.9027   -1.7145 C   0  0  0  0  0  0  0  0  0  0  0  0
   -5.7559    1.4673   -1.0943 Cl  0  0  0  0  0  0  0  0  0  0  0  0
   -3.0289    1.8253   -0.9207 C   0  0  0  0  0  0  0  0  0  0  0  0
    0.1743    3.1046   -0.2064 N   0  0  0  0  0  0  0  0  0  0  0  0
    1.1488    2.5966    0.6042 C   0  0  0  0  0  0  0  0  0  0  0  0
    0.9482    1.2746    0.7438 N   0  0  0  0  0  0  0  0  0  0  0  0
    1.7823    0.4015    1.5327 C   0  0  0  0  0  0  0  0  0  0  0  0
    2.9150   -0.1809    0.7197 C   0  0  2  0  0  0  0  0  0  0  0  0
    3.7554   -1.0857    1.5935 C   0  0  0  0  0  0  0  0  0  0  0  0
    5.1610   -0.7200    1.0959 C   0  0  0  0  0  0  0  0  0  0  0  0
    4.9583    0.7513    0.8044 C   0  0  0  0  0  0  0  0  0  0  0  0
    3.7378    0.7632    0.1639 O   0  0  0  0  0  0  0  0  0  0  0  0
   -1.2131   -1.0940    0.9341 N   0  0  0  0  0  0  0  0  0  0  0  0
   -1.7642   -2.2738    0.8503 N   0  0  0  0  0  0  0  0  0  0  0  0
   -3.2092   -5.0988    1.6920 H   0  0  0  0  0  0  0  0  0  0  0  0
   -1.5619   -2.6948   -2.4366 H   0  0  0  0  0  0  0  0  0  0  0  0
   -0.5154   -0.4460   -2.2443 H   0  0  0  0  0  0  0  0  0  0  0  0
   -0.7672    2.8677   -3.1326 H   0  0  0  0  0  0  0  0  0  0  0  0
   -2.8195    3.0110   -4.5666 H   0  0  0  0  0  0  0  0  0  0  0  0
   -3.1554    1.4859    0.0931 H   0  0  0  0  0  0  0  0  0  0  0  0
    1.9223    3.2296    1.0253 H   0  0  0  0  0  0  0  0  0  0  0  0
    2.2104    0.9176    2.4198 H   0  0  0  0  0  0  0  0  0  0  0  0
    1.1946   -0.4491    1.9347 H   0  0  0  0  0  0  0  0  0  0  0  0
    2.4540   -0.8481   -0.0659 H   0  0  0  0  0  0  0  0  0  0  0  0
    3.7251   -0.7753    2.6587 H   0  0  0  0  0  0  0  0  0  0  0  0
    3.5541   -2.1481    1.4545 H   0  0  0  0  0  0  0  0  0  0  0  0
    5.3677   -1.2233    0.1330 H   0  0  0  0  0  0  0  0  0  0  0  0
    5.9194   -0.9121    1.8637 H   0  0  0  0  0  0  0  0  0  0  0  0
    4.8645    1.2822    1.7666 H   0  0  0  0  0  0  0  0  0  0  0  0
    5.7436    1.1697    0.1512 H   0  0  0  0  0  0  0  0  0  0  0  0
  1  2  3  0
  2  3  1  0
  3  4  2  0
  4  5  1  0
  5  6  2  0
  6  7  1  0
  7  8  2  0
  8  9  1  0
  9 10  1  0
 10 11  2  0
 11 12  1  0
 12 13  2  0
 13 14  1  0
 14 15  2  0
 15 16  1  0
 15 17  1  0
 17 18  1  0
 17 19  2  0
 11 20  1  0
 20 21  2  0
 21 22  1  0
 22 23  1  0
 23 24  1  0
 24 25  1  0
 25 26  1  0
 26 27  1  0
 27 28  1  0
  9 29  2  0
 29 30  1  0
 30  3  1  0
 30  6  1  0
 22 10  1  0
 28 24  1  0
 19 12  1  0
  4 31  1  0
  7 32  1  0
  8 33  1  0
 13 34  1  0
 14 35  1  0
 19 36  1  0
 21 37  1  0
 23 38  1  0
 23 39  1  0
 24 40  1  6
 25 41  1  0
 25 42  1  0
 26 43  1  0
 26 44  1  0
 27 45  1  0
 27 46  1  0
M  END
$$$$
