@<TRIPOS>MOLECULE
*****
 46 50 0 0 0
SMALL
GASTEIGER

@<TRIPOS>ATOM
      1 N          -2.3014   -2.5690    4.3634 N.1     1  UNL1       -0.1892
      2 C          -2.2998   -2.8079    3.2118 C.1     1  UNL1        0.1208
      3 C          -2.2737   -3.1008    1.8083 C.ar    1  UNL1        0.1618
      4 C          -2.7438   -4.2452    1.2023 C.ar    1  UNL1        0.0659
      5 N          -2.5021   -4.0764   -0.1231 N.ar    1  UNL1       -0.2333
      6 C          -1.9108   -2.8877   -0.3401 C.ar    1  UNL1        0.1555
      7 C          -1.4591   -2.2265   -1.4590 C.ar    1  UNL1       -0.0153
      8 C          -0.8776   -0.9802   -1.3627 C.ar    1  UNL1       -0.0290
      9 C          -0.7479   -0.3862   -0.1145 C.ar    1  UNL1        0.1103
     10 C          -0.1396    0.9257    0.0359 C.ar    1  UNL1        0.0967
     11 C          -0.6248    2.0712   -0.5595 C.ar    1  UNL1        0.0983
     12 C          -1.7928    2.1721   -1.4253 C.ar    1  UNL1        0.0040
     13 C          -1.7417    2.5947   -2.7356 C.ar    1  UNL1       -0.0497
     14 C          -2.8562    2.6800   -3.5377 C.ar    1  UNL1       -0.0244
     15 C          -4.0863    2.3307   -3.0224 C.ar    1  UNL1        0.1417
     16 F          -5.2109    2.4049   -3.7948 F       1  UNL1       -0.2040
     17 C          -4.1779    1.9027   -1.7145 C.ar    1  UNL1        0.0767
     18 CL         -5.7559    1.4673   -1.0943 Cl      1  UNL1       -0.0806
     19 C          -3.0289    1.8253   -0.9207 C.ar    1  UNL1       -0.0313
     20 N           0.1743    3.1046   -0.2064 N.ar    1  UNL1       -0.2351
     21 C           1.1488    2.5966    0.6042 C.ar    1  UNL1        0.0972
     22 N           0.9482    1.2746    0.7438 N.ar    1  UNL1       -0.3259
     23 C           1.7823    0.4015    1.5327 C.3     1  UNL1        0.0510
     24 C           2.9150   -0.1809    0.7197 C.3     1  UNL1        0.0766
     25 C           3.7554   -1.0857    1.5935 C.3     1  UNL1       -0.0228
     26 C           5.1610   -0.7200    1.0959 C.3     1  UNL1       -0.0271
     27 C           4.9583    0.7513    0.8044 C.3     1  UNL1        0.0482
     28 O           3.7378    0.7632    0.1639 O.3     1  UNL1       -0.3748
     29 N          -1.2131   -1.0940    0.9341 N.ar    1  UNL1       -0.1623
     30 N          -1.7642   -2.2738    0.8503 N.ar    1  UNL1       -0.2023
     31 H          -3.2092   -5.0988    1.6920 H       1  UNL1        0.0859
     32 H          -1.5619   -2.6948   -2.4366 H       1  UNL1        0.0655
     33 H          -0.5154   -0.4460   -2.2443 H       1  UNL1        0.0641
     34 H          -0.7672    2.8677   -3.1326 H       1  UNL1        0.0625
     35 H          -2.8195    3.0110   -4.5666 H       1  UNL1        0.0647
     36 H          -3.1554    1.4859    0.0931 H       1  UNL1        0.0640
     37 H           1.9223    3.2296    1.0253 H       1  UNL1        0.1029
     38 H           2.2104    0.9176    2.4198 H       1  UNL1        0.0518
     39 H           1.1946   -0.4491    1.9347 H       1  UNL1        0.0518
     40 H           2.4540   -0.8481   -0.0659 H       1  UNL1        0.0614
     41 H           3.7251   -0.7753    2.6587 H       1  UNL1        0.0291
     42 H           3.5541   -2.1481    1.4545 H       1  UNL1        0.0291
     43 H           5.3677   -1.2233    0.1330 H       1  UNL1        0.0288
     44 H           5.9194   -0.9121    1.8637 H       1  UNL1        0.0288
     45 H           4.8645    1.2822    1.7666 H       1  UNL1        0.0560
     46 H           5.7436    1.1697    0.1512 H       1  UNL1        0.0560
@<TRIPOS>BOND
     1     1     2    3
     2     2     3    1
     3     3     4   ar
     4     4     5   ar
     5     5     6   ar
     6     6     7   ar
     7     7     8   ar
     8     8     9   ar
     9     9    10    1
    10    10    11   ar
    11    11    12    1
    12    12    13   ar
    13    13    14   ar
    14    14    15   ar
    15    15    16    1
    16    15    17   ar
    17    17    18    1
    18    17    19   ar
    19    11    20   ar
    20    20    21   ar
    21    21    22   ar
    22    22    23    1
    23    23    24    1
    24    24    25    1
    25    25    26    1
    26    26    27    1
    27    27    28    1
    28     9    29   ar
    29    29    30   ar
    30    30     3   ar
    31    30     6   ar
    32    22    10   ar
    33    28    24    1
    34    19    12   ar
    35     4    31    1
    36     7    32    1
    37     8    33    1
    38    13    34    1
    39    14    35    1
    40    19    36    1
    41    21    37    1
    42    23    38    1
    43    23    39    1
    44    24    40    1
    45    25    41    1
    46    25    42    1
    47    26    43    1
    48    26    44    1
    49    27    45    1
    50    27    46    1
