@<TRIPOS>MOLECULE
*****
 60 63 0 0 0
SMALL
GASTEIGER

@<TRIPOS>ATOM
      1 C           5.8973    1.6075    2.5724 C.3     1  UNL1        0.0121
      2 C           4.8583    1.8766    1.5441 C.2     1  UNL1        0.2099
      3 O           5.0127    2.7833    0.6870 O.2     1  UNL1       -0.2761
      4 N           3.6777    1.0919    1.5387 N.am    1  UNL1       -0.3152
      5 C           2.5939    1.2440    0.5979 C.3     1  UNL1        0.0156
      6 C           3.0153    1.0149   -0.8448 C.3     1  UNL1       -0.0115
      7 C           3.5489   -0.3173   -1.0703 C.ar    1  UNL1       -0.0382
      8 C           4.9274   -0.4856   -1.1641 C.ar    1  UNL1       -0.0579
      9 C           5.5243   -1.7108   -1.3401 C.ar    1  UNL1       -0.0615
     10 C           4.7159   -2.8332   -1.4285 C.ar    1  UNL1       -0.0612
     11 C           3.3536   -2.6766   -1.3377 C.ar    1  UNL1       -0.0538
     12 C           2.7546   -1.4194   -1.1585 C.ar    1  UNL1       -0.0146
     13 C           1.3088   -1.2878   -1.1028 C.ar    1  UNL1       -0.0162
     14 C           0.5462   -0.5635   -1.9738 C.ar    1  UNL1       -0.0537
     15 C          -0.8199   -0.4637   -1.8423 C.ar    1  UNL1       -0.0563
     16 C          -1.5301   -1.0943   -0.8115 C.ar    1  UNL1       -0.0242
     17 C          -3.0015   -0.9649   -0.6635 C.3     1  UNL1        0.0049
     18 C          -3.7474   -2.2024   -1.0496 C.3     1  UNL1        0.0033
     19 N          -4.6148   -2.7499   -0.0782 N.3     1  UNL1       -0.3154
     20 C          -5.3938   -1.8696    0.6981 C.3     1  UNL1       -0.0035
     21 C          -4.9383   -0.4952    0.8578 C.3     1  UNL1       -0.0330
     22 C          -3.4722   -0.2309    0.5363 C.3     1  UNL1       -0.0066
     23 C          -3.3453    1.2266    0.5084 C.ar    1  UNL1       -0.0407
     24 C          -3.8503    2.0684   -0.4470 C.ar    1  UNL1       -0.0554
     25 C          -3.6834    3.4348   -0.3936 C.ar    1  UNL1       -0.0233
     26 C          -2.9880    4.0337    0.6416 C.ar    1  UNL1        0.1584
     27 F          -2.8062    5.3709    0.7243 F       1  UNL1       -0.2025
     28 C          -2.4706    3.2123    1.6139 C.ar    1  UNL1        0.1587
     29 F          -1.7815    3.7959    2.6404 F       1  UNL1       -0.2025
     30 C          -2.6551    1.8499    1.5313 C.ar    1  UNL1       -0.0201
     31 C          -0.7549   -1.8264    0.0649 C.ar    1  UNL1        0.0450
     32 CL         -1.5572   -2.6661    1.3585 Cl      1  UNL1       -0.0832
     33 C           0.6190   -1.9262   -0.0668 C.ar    1  UNL1       -0.0354
     34 H           6.6565    0.9299    2.1069 H       1  UNL1        0.0322
     35 H           5.4791    1.1222    3.4749 H       1  UNL1        0.0322
     36 H           6.3766    2.5814    2.8764 H       1  UNL1        0.0322
     37 H           3.5787    0.3384    2.2758 H       1  UNL1        0.1487
     38 H           1.6941    0.6940    0.8818 H       1  UNL1        0.0465
     39 H           2.3062    2.3352    0.6453 H       1  UNL1        0.0465
     40 H           2.1887    1.3522   -1.4590 H       1  UNL1        0.0328
     41 H           3.8506    1.7625   -1.0180 H       1  UNL1        0.0328
     42 H           5.6056    0.3676   -1.1000 H       1  UNL1        0.0620
     43 H           6.6098   -1.8054   -1.4097 H       1  UNL1        0.0618
     44 H           5.2006   -3.7898   -1.5664 H       1  UNL1        0.0618
     45 H           2.6986   -3.5274   -1.4023 H       1  UNL1        0.0624
     46 H           1.0032   -0.0628   -2.8085 H       1  UNL1        0.0624
     47 H          -1.4273    0.1047   -2.5236 H       1  UNL1        0.0621
     48 H          -3.2937   -0.2561   -1.5196 H       1  UNL1        0.0367
     49 H          -4.3062   -2.1513   -2.0074 H       1  UNL1        0.0430
     50 H          -2.9539   -2.9875   -1.2517 H       1  UNL1        0.0430
     51 H          -5.1565   -3.5150   -0.4822 H       1  UNL1        0.1220
     52 H          -5.5481   -2.3573    1.7080 H       1  UNL1        0.0424
     53 H          -6.4405   -1.8715    0.2682 H       1  UNL1        0.0424
     54 H          -5.1427   -0.1594    1.9014 H       1  UNL1        0.0283
     55 H          -5.5323    0.1719    0.1664 H       1  UNL1        0.0283
     56 H          -2.9174   -0.6071    1.4085 H       1  UNL1        0.0355
     57 H          -4.3883    1.6400   -1.2524 H       1  UNL1        0.0621
     58 H          -4.0919    4.1007   -1.1642 H       1  UNL1        0.0647
     59 H          -2.2089    1.2748    2.3497 H       1  UNL1        0.0650
     60 H           1.2163   -2.5120    0.6402 H       1  UNL1        0.0638
@<TRIPOS>BOND
     1     1     2    1
     2     2     3    2
     3     2     4   am
     4     4     5    1
     5     5     6    1
     6     6     7    1
     7     7     8   ar
     8     8     9   ar
     9     9    10   ar
    10    10    11   ar
    11    11    12   ar
    12    12    13    1
    13    13    14   ar
    14    14    15   ar
    15    15    16   ar
    16    16    17    1
    17    17    18    1
    18    18    19    1
    19    19    20    1
    20    20    21    1
    21    21    22    1
    22    22    23    1
    23    23    24   ar
    24    24    25   ar
    25    25    26   ar
    26    26    27    1
    27    26    28   ar
    28    28    29    1
    29    28    30   ar
    30    16    31   ar
    31    31    32    1
    32    31    33   ar
    33    12     7   ar
    34    33    13   ar
    35    22    17    1
    36    30    23   ar
    37     1    34    1
    38     1    35    1
    39     1    36    1
    40     4    37    1
    41     5    38    1
    42     5    39    1
    43     6    40    1
    44     6    41    1
    45     8    42    1
    46     9    43    1
    47    10    44    1
    48    11    45    1
    49    14    46    1
    50    15    47    1
    51    17    48    1
    52    18    49    1
    53    18    50    1
    54    19    51    1
    55    20    52    1
    56    20    53    1
    57    21    54    1
    58    21    55    1
    59    22    56    1
    60    24    57    1
    61    25    58    1
    62    30    59    1
    63    33    60    1
