
     RDKit          3D

 54 59  0  0  0  0  0  0  0  0999 V2000
   -0.5252    3.1916   -1.7205 N   0  0  0  0  0  0  0  0  0  0  0  0
   -0.7245    1.8282   -1.3480 C   0  0  0  0  0  0  0  0  0  0  0  0
   -0.5238    1.3953   -0.1719 N   0  0  0  0  0  0  0  0  0  0  0  0
   -0.7219    0.0358    0.2020 C   0  0  0  0  0  0  0  0  0  0  0  0
   -0.8981   -0.9335   -0.9568 C   0  0  0  0  0  0  0  0  0  0  0  0
   -1.5114   -0.3462   -2.1648 C   0  0  0  0  0  0  0  0  0  0  0  0
   -1.1580    0.9851   -2.3598 O   0  0  0  0  0  0  0  0  0  0  0  0
    0.4660   -0.4934    0.9404 C   0  0  0  0  0  0  0  0  0  0  0  0
    1.7150   -0.4009    0.3002 C   0  0  0  0  0  0  0  0  0  0  0  0
    2.8676   -0.8901    0.8954 C   0  0  0  0  0  0  0  0  0  0  0  0
    4.0581   -0.7393    0.1561 N   0  0  0  0  0  0  0  0  0  0  0  0
    5.3582   -1.1513    0.5388 C   0  0  0  0  0  0  0  0  0  0  0  0
    5.5300   -1.7133    1.6370 O   0  0  0  0  0  0  0  0  0  0  0  0
    6.5072   -0.9354   -0.3201 C   0  0  0  0  0  0  0  0  0  0  0  0
    7.7479   -1.3507    0.0907 C   0  0  0  0  0  0  0  0  0  0  0  0
    8.8527   -1.1647   -0.6906 N   0  0  0  0  0  0  0  0  0  0  0  0
    8.7422   -0.5651   -1.8887 C   0  0  0  0  0  0  0  0  0  0  0  0
   10.1543   -0.3120   -2.9189 Cl  0  0  0  0  0  0  0  0  0  0  0  0
    7.5014   -0.1509   -2.2972 C   0  0  0  0  0  0  0  0  0  0  0  0
    6.4268   -0.3401   -1.5201 N   0  0  0  0  0  0  0  0  0  0  0  0
    2.7276   -1.4609    2.1241 C   0  0  0  0  0  0  0  0  0  0  0  0
    1.5152   -1.5585    2.7628 C   0  0  0  0  0  0  0  0  0  0  0  0
    0.3395   -1.0622    2.1626 C   0  0  0  0  0  0  0  0  0  0  0  0
   -0.8494   -1.1875    2.8601 O   0  0  0  0  0  0  0  0  0  0  0  0
   -1.9864   -0.6929    2.2625 C   0  0  0  0  0  0  0  0  0  0  0  0
   -1.9434   -0.1087    1.0390 C   0  0  0  0  0  0  0  0  0  0  0  0
   -3.1402    0.3733    0.5102 C   0  0  0  0  0  0  0  0  0  0  0  0
   -4.3355    0.2861    1.1509 C   0  0  0  0  0  0  0  0  0  0  0  0
   -5.5732    0.7972    0.5766 C   0  0  0  0  0  0  0  0  0  0  0  0
   -6.7566    0.6666    1.3022 C   0  0  0  0  0  0  0  0  0  0  0  0
   -7.9376    1.1133    0.8383 N   0  0  0  0  0  0  0  0  0  0  0  0
   -8.0431    1.7162   -0.3620 C   0  0  0  0  0  0  0  0  0  0  0  0
   -6.8931    1.8602   -1.1024 C   0  0  0  0  0  0  0  0  0  0  0  0
   -7.0228    2.4748   -2.3175 F   0  0  0  0  0  0  0  0  0  0  0  0
   -5.6626    1.4086   -0.6475 C   0  0  0  0  0  0  0  0  0  0  0  0
   -4.3379   -0.3052    2.3687 N   0  0  0  0  0  0  0  0  0  0  0  0
   -3.2211   -0.7826    2.9222 C   0  0  0  0  0  0  0  0  0  0  0  0
   -3.2673   -1.3645    4.1380 F   0  0  0  0  0  0  0  0  0  0  0  0
   -1.3208    3.8172   -1.9217 H   0  0  0  0  0  0  0  0  0  0  0  0
    0.4406    3.5474   -1.7866 H   0  0  0  0  0  0  0  0  0  0  0  0
   -1.4879   -1.7960   -0.5524 H   0  0  0  0  0  0  0  0  0  0  0  0
    0.1403   -1.2907   -1.2253 H   0  0  0  0  0  0  0  0  0  0  0  0
   -1.0928   -0.9105   -3.0625 H   0  0  0  0  0  0  0  0  0  0  0  0
   -2.6161   -0.5542   -2.2608 H   0  0  0  0  0  0  0  0  0  0  0  0
    1.7185    0.0688   -0.6705 H   0  0  0  0  0  0  0  0  0  0  0  0
    4.0373   -0.2696   -0.8061 H   0  0  0  0  0  0  0  0  0  0  0  0
    7.9061   -1.8429    1.0498 H   0  0  0  0  0  0  0  0  0  0  0  0
    7.3839    0.3298   -3.2472 H   0  0  0  0  0  0  0  0  0  0  0  0
    3.5876   -1.8547    2.6266 H   0  0  0  0  0  0  0  0  0  0  0  0
    1.4274   -2.0213    3.7497 H   0  0  0  0  0  0  0  0  0  0  0  0
   -3.0943    0.8563   -0.4680 H   0  0  0  0  0  0  0  0  0  0  0  0
   -6.6975    0.1837    2.2735 H   0  0  0  0  0  0  0  0  0  0  0  0
   -9.0191    2.0692   -0.7121 H   0  0  0  0  0  0  0  0  0  0  0  0
   -4.7896    1.5454   -1.2661 H   0  0  0  0  0  0  0  0  0  0  0  0
  1  2  1  0
  2  3  2  0
  3  4  1  0
  4  5  1  0
  5  6  1  0
  6  7  1  0
  4  8  1  0
  8  9  2  0
  9 10  1  0
 10 11  1  0
 11 12  1  0
 12 13  2  0
 12 14  1  0
 14 15  2  0
 15 16  1  0
 16 17  2  0
 17 18  1  0
 17 19  1  0
 19 20  2  0
 10 21  2  0
 21 22  1  0
 22 23  2  0
 23 24  1  0
 24 25  1  0
 25 26  2  0
 26 27  1  0
 27 28  2  0
 28 29  1  0
 29 30  2  0
 30 31  1  0
 31 32  2  0
 32 33  1  0
 33 34  1  0
 33 35  2  0
 28 36  1  0
 36 37  2  0
 37 38  1  0
  7  2  1  0
 23  8  1  0
 37 25  1  0
 26  4  1  0
 35 29  1  0
 20 14  1  0
  1 39  1  0
  1 40  1  0
  5 41  1  0
  5 42  1  0
  6 43  1  0
  6 44  1  0
  9 45  1  0
 11 46  1  0
 15 47  1  0
 19 48  1  0
 21 49  1  0
 22 50  1  0
 27 51  1  0
 30 52  1  0
 32 53  1  0
 35 54  1  0
M  END
$$$$
