@<TRIPOS>MOLECULE
*****
 54 59 0 0 0
SMALL
GASTEIGER

@<TRIPOS>ATOM
      1 N          -0.5252    3.1916   -1.7205 N.pl3   1  UNL1       -0.3134
      2 C          -0.7245    1.8282   -1.3480 C.2     1  UNL1        0.2763
      3 N          -0.5238    1.3953   -0.1719 N.2     1  UNL1       -0.2205
      4 C          -0.7219    0.0358    0.2020 C.3     1  UNL1        0.1265
      5 C          -0.8981   -0.9335   -0.9568 C.3     1  UNL1        0.0155
      6 C          -1.5114   -0.3462   -2.1648 C.3     1  UNL1        0.0953
      7 O          -1.1580    0.9851   -2.3598 O.2     1  UNL1       -0.4658
      8 C           0.4660   -0.4934    0.9404 C.ar    1  UNL1        0.0287
      9 C           1.7150   -0.4009    0.3002 C.ar    1  UNL1       -0.0312
     10 C           2.8676   -0.8901    0.8954 C.ar    1  UNL1        0.0343
     11 N           4.0581   -0.7393    0.1561 N.am    1  UNL1       -0.2802
     12 C           5.3582   -1.1513    0.5388 C.2     1  UNL1        0.2681
     13 O           5.5300   -1.7133    1.6370 O.2     1  UNL1       -0.2681
     14 C           6.5072   -0.9354   -0.3201 C.ar    1  UNL1        0.1437
     15 C           7.7479   -1.3507    0.0907 C.ar    1  UNL1        0.0597
     16 N           8.8527   -1.1647   -0.6906 N.ar    1  UNL1       -0.2397
     17 C           8.7422   -0.5651   -1.8887 C.ar    1  UNL1        0.1472
     18 CL         10.1543   -0.3120   -2.9189 Cl      1  UNL1       -0.0604
     19 C           7.5014   -0.1509   -2.2972 C.ar    1  UNL1        0.0652
     20 N           6.4268   -0.3401   -1.5201 N.ar    1  UNL1       -0.2458
     21 C           2.7276   -1.4609    2.1241 C.ar    1  UNL1       -0.0370
     22 C           1.5152   -1.5585    2.7628 C.ar    1  UNL1       -0.0172
     23 C           0.3395   -1.0622    2.1626 C.ar    1  UNL1        0.1346
     24 O          -0.8494   -1.1875    2.8601 O.3     1  UNL1       -0.4508
     25 C          -1.9864   -0.6929    2.2625 C.ar    1  UNL1        0.1883
     26 C          -1.9434   -0.1087    1.0390 C.ar    1  UNL1        0.0334
     27 C          -3.1402    0.3733    0.5102 C.ar    1  UNL1       -0.0261
     28 C          -4.3355    0.2861    1.1509 C.ar    1  UNL1        0.0762
     29 C          -5.5732    0.7972    0.5766 C.ar    1  UNL1        0.0213
     30 C          -6.7566    0.6666    1.3022 C.ar    1  UNL1        0.0369
     31 N          -7.9376    1.1133    0.8383 N.ar    1  UNL1       -0.2598
     32 C          -8.0431    1.7162   -0.3620 C.ar    1  UNL1        0.0628
     33 C          -6.8931    1.8602   -1.1024 C.ar    1  UNL1        0.1420
     34 F          -7.0228    2.4748   -2.3175 F       1  UNL1       -0.2039
     35 C          -5.6626    1.4086   -0.6475 C.ar    1  UNL1       -0.0143
     36 N          -4.3379   -0.3052    2.3687 N.ar    1  UNL1       -0.2160
     37 C          -3.2211   -0.7826    2.9222 C.ar    1  UNL1        0.2567
     38 F          -3.2673   -1.3645    4.1380 F       1  UNL1       -0.1799
     39 H          -1.3208    3.8172   -1.9217 H       1  UNL1        0.1466
     40 H           0.4406    3.5474   -1.7866 H       1  UNL1        0.1466
     41 H          -1.4879   -1.7960   -0.5524 H       1  UNL1        0.0328
     42 H           0.1403   -1.2907   -1.2253 H       1  UNL1        0.0328
     43 H          -1.0928   -0.9105   -3.0625 H       1  UNL1        0.0698
     44 H          -2.6161   -0.5542   -2.2608 H       1  UNL1        0.0698
     45 H           1.7185    0.0688   -0.6705 H       1  UNL1        0.0641
     46 H           4.0373   -0.2696   -0.8061 H       1  UNL1        0.1552
     47 H           7.9061   -1.8429    1.0498 H       1  UNL1        0.0853
     48 H           7.3839    0.3298   -3.2472 H       1  UNL1        0.0860
     49 H           3.5876   -1.8547    2.6266 H       1  UNL1        0.0637
     50 H           1.4274   -2.0213    3.7497 H       1  UNL1        0.0655
     51 H          -3.0943    0.8563   -0.4680 H       1  UNL1        0.0644
     52 H          -6.6975    0.1837    2.2735 H       1  UNL1        0.0836
     53 H          -9.0191    2.0692   -0.7121 H       1  UNL1        0.0859
     54 H          -4.7896    1.5454   -1.2661 H       1  UNL1        0.0654
@<TRIPOS>BOND
     1     1     2    1
     2     2     3    2
     3     3     4    1
     4     4     5    1
     5     5     6    1
     6     6     7    1
     7     4     8    1
     8     8     9   ar
     9     9    10   ar
    10    10    11    1
    11    11    12   am
    12    12    13    2
    13    12    14    1
    14    14    15   ar
    15    15    16   ar
    16    16    17   ar
    17    17    18    1
    18    17    19   ar
    19    19    20   ar
    20    10    21   ar
    21    21    22   ar
    22    22    23   ar
    23    23    24    1
    24    24    25    1
    25    25    26   ar
    26    26    27   ar
    27    27    28   ar
    28    28    29    1
    29    29    30   ar
    30    30    31   ar
    31    31    32   ar
    32    32    33   ar
    33    33    34    1
    34    33    35   ar
    35    28    36   ar
    36    36    37   ar
    37    37    38    1
    38     7     2    1
    39    23     8   ar
    40    37    25   ar
    41    26     4    1
    42    35    29   ar
    43    20    14   ar
    44     1    39    1
    45     1    40    1
    46     5    41    1
    47     5    42    1
    48     6    43    1
    49     6    44    1
    50     9    45    1
    51    11    46    1
    52    15    47    1
    53    19    48    1
    54    21    49    1
    55    22    50    1
    56    27    51    1
    57    30    52    1
    58    32    53    1
    59    35    54    1
