
     RDKit          3D

 37 39  0  0  0  0  0  0  0  0999 V2000
   -5.7617   -1.9729    0.3127 C   0  0  0  0  0  0  0  0  0  0  0  0
   -5.2610   -0.5737    0.1870 C   0  0  0  0  0  0  0  0  0  0  0  0
   -3.9091   -0.3242    0.1158 C   0  0  0  0  0  0  0  0  0  0  0  0
   -3.3224    0.9158   -0.0008 C   0  0  0  0  0  0  0  0  0  0  0  0
   -4.2208    1.9548   -0.0449 C   0  0  0  0  0  0  0  0  0  0  0  0
   -5.5843    1.7664    0.0220 C   0  0  0  0  0  0  0  0  0  0  0  0
   -6.1194    0.5034    0.1384 C   0  0  0  0  0  0  0  0  0  0  0  0
   -7.4339    0.2194    0.2108 F   0  0  0  0  0  0  0  0  0  0  0  0
   -1.8811    1.1687   -0.0756 C   0  0  0  0  0  0  0  0  0  0  0  0
   -1.3580    2.4676   -0.1930 C   0  0  0  0  0  0  0  0  0  0  0  0
    0.4567    2.0472   -0.2308 S   0  0  0  0  0  0  0  0  0  0  0  0
    0.1597    0.2622   -0.0856 C   0  0  0  0  0  0  0  0  0  0  0  0
    1.1596   -0.7750   -0.0446 N   0  0  0  0  0  0  0  0  0  0  0  0
    2.5536   -0.6096   -0.1265 C   0  0  0  0  0  0  0  0  0  0  0  0
    3.3302   -1.7427    0.1445 C   0  0  0  0  0  0  0  0  0  0  0  0
    4.6990   -1.7086    0.0931 C   0  0  0  0  0  0  0  0  0  0  0  0
    5.4010   -0.5699   -0.2252 C   0  0  0  0  0  0  0  0  0  0  0  0
    6.8558   -0.5315   -0.2797 C   0  0  0  0  0  0  0  0  0  0  0  0
    7.5995   -1.6753   -0.0053 O   0  0  0  0  0  0  0  0  0  0  0  0
    7.3956    0.5640   -0.5810 O   0  0  0  0  0  0  0  0  0  0  0  0
    4.6706    0.5653   -0.4984 C   0  0  0  0  0  0  0  0  0  0  0  0
    5.3053    1.7546   -0.8278 O   0  0  0  0  0  0  0  0  0  0  0  0
    3.3076    0.4924   -0.4372 C   0  0  0  0  0  0  0  0  0  0  0  0
   -1.0253    0.1591   -0.0326 N   0  0  0  0  0  0  0  0  0  0  0  0
   -6.5833   -2.0514    1.0481 H   0  0  0  0  0  0  0  0  0  0  0  0
   -4.9471   -2.6380    0.6745 H   0  0  0  0  0  0  0  0  0  0  0  0
   -6.1518   -2.2560   -0.6823 H   0  0  0  0  0  0  0  0  0  0  0  0
   -3.2348   -1.1909    0.1557 H   0  0  0  0  0  0  0  0  0  0  0  0
   -3.9223    2.9799   -0.1335 H   0  0  0  0  0  0  0  0  0  0  0  0
   -6.2748    2.5887   -0.0138 H   0  0  0  0  0  0  0  0  0  0  0  0
   -1.9440    3.4025   -0.2410 H   0  0  0  0  0  0  0  0  0  0  0  0
    0.7788   -1.7235    0.0528 H   0  0  0  0  0  0  0  0  0  0  0  0
    2.8845   -2.6961    0.4065 H   0  0  0  0  0  0  0  0  0  0  0  0
    5.2876   -2.6105    0.3091 H   0  0  0  0  0  0  0  0  0  0  0  0
    8.5195   -1.7725   -0.4376 H   0  0  0  0  0  0  0  0  0  0  0  0
    5.7954    2.2114   -0.0524 H   0  0  0  0  0  0  0  0  0  0  0  0
    2.7751    1.3990   -0.6619 H   0  0  0  0  0  0  0  0  0  0  0  0
  1  2  1  0
  2  3  2  0
  3  4  1  0
  4  5  2  0
  5  6  1  0
  6  7  2  0
  7  8  1  0
  4  9  1  0
  9 10  2  0
 10 11  1  0
 11 12  1  0
 12 13  1  0
 13 14  1  0
 14 15  2  0
 15 16  1  0
 16 17  2  0
 17 18  1  0
 18 19  1  0
 18 20  2  0
 17 21  1  0
 21 22  1  0
 21 23  2  0
 12 24  2  0
  7  2  1  0
 24  9  1  0
 23 14  1  0
  1 25  1  0
  1 26  1  0
  1 27  1  0
  3 28  1  0
  5 29  1  0
  6 30  1  0
 10 31  1  0
 13 32  1  0
 15 33  1  0
 16 34  1  0
 19 35  1  0
 22 36  1  0
 23 37  1  0
M  END
$$$$
