@<TRIPOS>MOLECULE
*****
 41 43 0 0 0
SMALL
GASTEIGER

@<TRIPOS>ATOM
      1 C          -2.5742    1.4887   -1.8839 C.3     1  UNL1        0.0788
      2 O          -1.9144    0.8870   -0.7910 O.3     1  UNL1       -0.4948
      3 C          -2.5375   -0.1683   -0.1441 C.ar    1  UNL1        0.1251
      4 C          -3.7891   -0.6086   -0.5827 C.ar    1  UNL1       -0.0196
      5 C          -4.4536   -1.6507    0.0198 C.ar    1  UNL1       -0.0583
      6 C          -3.8668   -2.2766    1.0853 C.ar    1  UNL1       -0.0612
      7 C          -2.6135   -1.8446    1.5337 C.ar    1  UNL1       -0.0532
      8 C          -1.9616   -0.8022    0.9222 C.ar    1  UNL1        0.0169
      9 C          -0.6534   -0.3760    1.4248 C.3     1  UNL1        0.0828
     10 C           0.4215   -1.0599    0.6304 C.3     1  UNL1        0.0165
     11 C           1.3870    0.0135    0.3395 C.2     1  UNL1        0.0688
     12 C           2.7076   -0.2373   -0.2833 C.ar    1  UNL1       -0.0020
     13 C           3.0663   -1.5209   -0.6115 C.ar    1  UNL1       -0.0494
     14 C           4.2917   -1.8060   -1.1962 C.ar    1  UNL1       -0.0196
     15 C           5.1618   -0.7728   -1.4498 C.ar    1  UNL1        0.1169
     16 O           6.4008   -1.0653   -2.0415 O.3     1  UNL1       -0.5068
     17 C           4.8399    0.5420   -1.1339 C.ar    1  UNL1       -0.0196
     18 C           3.6107    0.7613   -0.5561 C.ar    1  UNL1       -0.0494
     19 N           0.8935    1.1189    0.7046 N.2     1  UNL1       -0.1809
     20 N          -0.3770    1.0112    1.2588 N.am    1  UNL1       -0.1852
     21 C          -1.2432    2.0788    1.6031 C.2     1  UNL1        0.2322
     22 C          -0.8414    3.4851    1.3819 C.3     1  UNL1        0.0140
     23 O          -2.3679    1.8601    2.1018 O.2     1  UNL1       -0.2741
     24 H          -1.9355    2.2469   -2.3722 H       1  UNL1        0.0660
     25 H          -2.8838    0.7378   -2.6564 H       1  UNL1        0.0660
     26 H          -3.5337    1.9471   -1.5257 H       1  UNL1        0.0660
     27 H          -4.2646   -0.1218   -1.4251 H       1  UNL1        0.0654
     28 H          -5.4381   -1.9547   -0.3690 H       1  UNL1        0.0619
     29 H          -4.3953   -3.0924    1.5508 H       1  UNL1        0.0618
     30 H          -2.2018   -2.3779    2.3787 H       1  UNL1        0.0622
     31 H          -0.4984   -0.6993    2.4964 H       1  UNL1        0.0576
     32 H           0.8810   -1.9036    1.1905 H       1  UNL1        0.0351
     33 H           0.0435   -1.4098   -0.3682 H       1  UNL1        0.0351
     34 H           2.3742   -2.3547   -0.4114 H       1  UNL1        0.0625
     35 H           4.5197   -2.8328   -1.4325 H       1  UNL1        0.0654
     36 H           6.9822   -1.8061   -1.6779 H       1  UNL1        0.2921
     37 H           5.5493    1.3203   -1.3489 H       1  UNL1        0.0654
     38 H           3.3383    1.7729   -0.3020 H       1  UNL1        0.0625
     39 H          -0.9591    3.7168    0.2987 H       1  UNL1        0.0323
     40 H          -1.4043    4.1751    2.0358 H       1  UNL1        0.0323
     41 H           0.2392    3.5787    1.6066 H       1  UNL1        0.0323
@<TRIPOS>BOND
     1     1     2    1
     2     2     3    1
     3     3     4   ar
     4     4     5   ar
     5     5     6   ar
     6     6     7   ar
     7     7     8   ar
     8     8     9    1
     9     9    10    1
    10    10    11    1
    11    11    12    1
    12    12    13   ar
    13    13    14   ar
    14    14    15   ar
    15    15    16    1
    16    15    17   ar
    17    17    18   ar
    18    11    19    2
    19    19    20    1
    20    20    21   am
    21    21    22    1
    22    21    23    2
    23     8     3   ar
    24    20     9    1
    25    18    12   ar
    26     1    24    1
    27     1    25    1
    28     1    26    1
    29     4    27    1
    30     5    28    1
    31     6    29    1
    32     7    30    1
    33     9    31    1
    34    10    32    1
    35    10    33    1
    36    13    34    1
    37    14    35    1
    38    16    36    1
    39    17    37    1
    40    18    38    1
    41    22    39    1
    42    22    40    1
    43    22    41    1
