
     RDKit          3D

 32 34  0  0  0  0  0  0  0  0999 V2000
   -3.2283    2.6757   -0.2054 C   0  0  0  0  0  0  0  0  0  0  0  0
   -2.2888    1.5796   -0.3594 N   0  0  0  0  0  0  0  0  0  0  0  0
   -1.1134    1.6280   -0.9906 C   0  0  0  0  0  0  0  0  0  0  0  0
   -0.4637    0.4245   -0.9594 C   0  0  0  0  0  0  0  0  0  0  0  0
    0.7730    0.0227   -1.4841 N   0  0  0  0  0  0  0  0  0  0  0  0
    1.8758   -0.5523   -0.8359 C   0  0  0  0  0  0  0  0  0  0  0  0
    2.2081   -1.8714   -1.2278 C   0  0  0  0  0  0  0  0  0  0  0  0
    3.2263   -2.5476   -0.7012 N   0  0  0  0  0  0  0  0  0  0  0  0
    4.0290   -2.0389    0.2487 C   0  0  0  0  0  0  0  0  0  0  0  0
    3.7384   -0.7573    0.6555 C   0  0  0  0  0  0  0  0  0  0  0  0
    2.6752   -0.0117    0.1244 C   0  0  0  0  0  0  0  0  0  0  0  0
    2.5064    1.3430    0.5812 C   0  0  0  0  0  0  0  0  0  0  0  0
    3.2827    1.7459    1.5184 O   0  0  0  0  0  0  0  0  0  0  0  0
    1.6086    2.2779    0.1340 O   0  0  0  0  0  0  0  0  0  0  0  0
   -1.3507   -0.3998   -0.2398 C   0  0  0  0  0  0  0  0  0  0  0  0
   -1.3056   -1.7206    0.1444 C   0  0  0  0  0  0  0  0  0  0  0  0
   -2.3403   -2.2865    0.8615 C   0  0  0  0  0  0  0  0  0  0  0  0
   -3.4511   -1.5169    1.2062 C   0  0  0  0  0  0  0  0  0  0  0  0
   -3.4626   -0.2433    0.8189 N   0  0  0  0  0  0  0  0  0  0  0  0
   -2.4576    0.3350    0.1135 C   0  0  0  0  0  0  0  0  0  0  0  0
   -2.7857    3.3356    0.5949 H   0  0  0  0  0  0  0  0  0  0  0  0
   -4.2246    2.2956    0.1197 H   0  0  0  0  0  0  0  0  0  0  0  0
   -3.3406    3.2350   -1.1536 H   0  0  0  0  0  0  0  0  0  0  0  0
   -0.7307    2.5120   -1.4643 H   0  0  0  0  0  0  0  0  0  0  0  0
    0.8789    0.1857   -2.5453 H   0  0  0  0  0  0  0  0  0  0  0  0
    1.5921   -2.3377   -1.9957 H   0  0  0  0  0  0  0  0  0  0  0  0
    4.8508   -2.6165    0.6586 H   0  0  0  0  0  0  0  0  0  0  0  0
    4.3872   -0.3377    1.4276 H   0  0  0  0  0  0  0  0  0  0  0  0
    1.8573    3.2663   -0.0226 H   0  0  0  0  0  0  0  0  0  0  0  0
   -0.4349   -2.2959   -0.1347 H   0  0  0  0  0  0  0  0  0  0  0  0
   -2.2702   -3.3329    1.1478 H   0  0  0  0  0  0  0  0  0  0  0  0
   -4.2409   -1.9955    1.7680 H   0  0  0  0  0  0  0  0  0  0  0  0
  1  2  1  0
  2  3  1  0
  3  4  2  0
  4  5  1  0
  5  6  1  0
  6  7  2  0
  7  8  1  0
  8  9  2  0
  9 10  1  0
 10 11  2  0
 11 12  1  0
 12 13  2  0
 12 14  1  0
  4 15  1  0
 15 16  2  0
 16 17  1  0
 17 18  2  0
 18 19  1  0
 19 20  2  0
 20  2  1  0
 11  6  1  0
 20 15  1  0
  1 21  1  0
  1 22  1  0
  1 23  1  0
  3 24  1  0
  5 25  1  0
  7 26  1  0
  9 27  1  0
 10 28  1  0
 14 29  1  0
 16 30  1  0
 17 31  1  0
 18 32  1  0
M  END
$$$$
