@<TRIPOS>MOLECULE
*****
 32 34 0 0 0
SMALL
GASTEIGER

@<TRIPOS>ATOM
      1 C          -3.2283    2.6757   -0.2054 C.3     1  UNL1        0.0133
      2 N          -2.2888    1.5796   -0.3594 N.ar    1  UNL1       -0.3331
      3 C          -1.1134    1.6280   -0.9906 C.ar    1  UNL1        0.0280
      4 C          -0.4637    0.4245   -0.9594 C.ar    1  UNL1        0.0585
      5 N           0.7730    0.0227   -1.4841 N.pl3   1  UNL1       -0.3110
      6 C           1.8758   -0.5523   -0.8359 C.ar    1  UNL1        0.0638
      7 C           2.2081   -1.8714   -1.2278 C.ar    1  UNL1        0.0495
      8 N           3.2263   -2.5476   -0.7012 N.ar    1  UNL1       -0.2614
      9 C           4.0290   -2.0389    0.2487 C.ar    1  UNL1        0.0285
     10 C           3.7384   -0.7573    0.6555 C.ar    1  UNL1       -0.0278
     11 C           2.6752   -0.0117    0.1244 C.ar    1  UNL1        0.0828
     12 C           2.5064    1.3430    0.5812 C.2     1  UNL1        0.3387
     13 O           3.2827    1.7459    1.5184 O.2     1  UNL1       -0.2451
     14 O           1.6086    2.2779    0.1340 O.3     1  UNL1       -0.4771
     15 C          -1.3507   -0.3998   -0.2398 C.ar    1  UNL1        0.0400
     16 C          -1.3056   -1.7206    0.1444 C.ar    1  UNL1       -0.0478
     17 C          -2.3403   -2.2865    0.8615 C.ar    1  UNL1       -0.0428
     18 C          -3.4511   -1.5169    1.2062 C.ar    1  UNL1        0.0299
     19 N          -3.4626   -0.2433    0.8189 N.ar    1  UNL1       -0.2372
     20 C          -2.4576    0.3350    0.1135 C.ar    1  UNL1        0.1422
     21 H          -2.7857    3.3356    0.5949 H       1  UNL1        0.0456
     22 H          -4.2246    2.2956    0.1197 H       1  UNL1        0.0456
     23 H          -3.3406    3.2350   -1.1536 H       1  UNL1        0.0456
     24 H          -0.7307    2.5120   -1.4643 H       1  UNL1        0.0828
     25 H           0.8789    0.1857   -2.5453 H       1  UNL1        0.1523
     26 H           1.5921   -2.3377   -1.9957 H       1  UNL1        0.0849
     27 H           4.8508   -2.6165    0.6586 H       1  UNL1        0.0830
     28 H           4.3872   -0.3377    1.4276 H       1  UNL1        0.0641
     29 H           1.8573    3.2663   -0.0226 H       1  UNL1        0.2954
     30 H          -0.4349   -2.2959   -0.1347 H       1  UNL1        0.0626
     31 H          -2.2702   -3.3329    1.1478 H       1  UNL1        0.0633
     32 H          -4.2409   -1.9955    1.7680 H       1  UNL1        0.0830
@<TRIPOS>BOND
     1     1     2    1
     2     2     3   ar
     3     3     4   ar
     4     4     5    1
     5     5     6    1
     6     6     7   ar
     7     7     8   ar
     8     8     9   ar
     9     9    10   ar
    10    10    11   ar
    11    11    12    1
    12    12    13    2
    13    12    14    1
    14     4    15   ar
    15    15    16   ar
    16    16    17   ar
    17    17    18   ar
    18    18    19   ar
    19    19    20   ar
    20    20     2   ar
    21    11     6   ar
    22    20    15   ar
    23     1    21    1
    24     1    22    1
    25     1    23    1
    26     3    24    1
    27     5    25    1
    28     7    26    1
    29     9    27    1
    30    10    28    1
    31    14    29    1
    32    16    30    1
    33    17    31    1
    34    18    32    1
