@<TRIPOS>MOLECULE
*****
 38 40 0 0 0
SMALL
GASTEIGER

@<TRIPOS>ATOM
      1 C          -2.7136    4.0053   -1.7182 C.3     1  UNL1        0.0136
      2 C          -2.5274    2.9889   -0.6465 C.2     1  UNL1        0.2260
      3 O          -3.5004    2.3855   -0.0991 O.2     1  UNL1       -0.2746
      4 N          -1.2254    2.6180   -0.1587 N.am    1  UNL1       -0.2355
      5 N          -1.0022    1.6897    0.8231 N.pl3   1  UNL1       -0.2469
      6 C          -0.9018    0.2658    0.6856 C.ar    1  UNL1        0.1574
      7 N          -1.8616   -0.4109   -0.0049 N.ar    1  UNL1       -0.2274
      8 C          -1.8675   -1.7645   -0.0947 C.ar    1  UNL1        0.0914
      9 C          -2.8412   -2.4434   -0.7908 C.ar    1  UNL1       -0.0342
     10 C          -2.8215   -3.8105   -0.8593 C.ar    1  UNL1       -0.0596
     11 C          -1.8319   -4.5398   -0.2359 C.ar    1  UNL1       -0.0596
     12 C          -0.8469   -3.8894    0.4656 C.ar    1  UNL1       -0.0342
     13 C          -0.8719   -2.4972    0.5325 C.ar    1  UNL1        0.0896
     14 N           0.0831   -1.8589    1.2165 N.ar    1  UNL1       -0.2463
     15 C           0.0670   -0.4892    1.2879 C.ar    1  UNL1        0.0872
     16 C           1.2456    0.1463    1.9625 C.3     1  UNL1        0.0182
     17 C           2.3725    0.3307    0.9799 C.ar    1  UNL1       -0.0415
     18 C           2.3160    1.1854   -0.0838 C.ar    1  UNL1       -0.0582
     19 C           3.3528    1.3454   -0.9997 C.ar    1  UNL1       -0.0615
     20 C           4.4890    0.6181   -0.8368 C.ar    1  UNL1       -0.0617
     21 C           4.5642   -0.2597    0.2479 C.ar    1  UNL1       -0.0615
     22 C           3.5276   -0.4043    1.1420 C.ar    1  UNL1       -0.0582
     23 H          -2.0986    4.9144   -1.5658 H       1  UNL1        0.0323
     24 H          -3.7641    4.3821   -1.6081 H       1  UNL1        0.0323
     25 H          -2.5648    3.5738   -2.7351 H       1  UNL1        0.0323
     26 H          -0.4479    3.1323   -0.6125 H       1  UNL1        0.1727
     27 H          -0.8809    1.9890    1.8624 H       1  UNL1        0.1716
     28 H          -3.6268   -1.9119   -1.2863 H       1  UNL1        0.0639
     29 H          -3.6055   -4.3046   -1.4141 H       1  UNL1        0.0618
     30 H          -1.8572   -5.6198   -0.3138 H       1  UNL1        0.0618
     31 H          -0.0891   -4.4689    0.9428 H       1  UNL1        0.0639
     32 H           1.5721   -0.5425    2.7595 H       1  UNL1        0.0378
     33 H           0.9839    1.1061    2.4069 H       1  UNL1        0.0378
     34 H           1.4471    1.7945   -0.2772 H       1  UNL1        0.0620
     35 H           3.2546    2.0337   -1.8351 H       1  UNL1        0.0618
     36 H           5.3312    0.6943   -1.5283 H       1  UNL1        0.0618
     37 H           5.4679   -0.8664    0.4172 H       1  UNL1        0.0618
     38 H           3.6738   -1.1174    1.9724 H       1  UNL1        0.0620
@<TRIPOS>BOND
     1     1     2    1
     2     2     3    2
     3     2     4   am
     4     4     5    1
     5     5     6    1
     6     6     7   ar
     7     7     8   ar
     8     8     9   ar
     9     9    10   ar
    10    10    11   ar
    11    11    12   ar
    12    12    13   ar
    13    13    14   ar
    14    14    15   ar
    15    15    16    1
    16    16    17    1
    17    17    18   ar
    18    18    19   ar
    19    19    20   ar
    20    20    21   ar
    21    21    22   ar
    22    15     6   ar
    23    22    17   ar
    24    13     8   ar
    25     1    23    1
    26     1    24    1
    27     1    25    1
    28     4    26    1
    29     5    27    1
    30     9    28    1
    31    10    29    1
    32    11    30    1
    33    12    31    1
    34    16    32    1
    35    16    33    1
    36    18    34    1
    37    19    35    1
    38    20    36    1
    39    21    37    1
    40    22    38    1
