
     RDKit          3D

 38 40  0  0  0  0  0  0  0  0999 V2000
   -2.7136    4.0053   -1.7182 C   0  0  0  0  0  0  0  0  0  0  0  0
   -2.5274    2.9889   -0.6465 C   0  0  0  0  0  0  0  0  0  0  0  0
   -3.5004    2.3855   -0.0991 O   0  0  0  0  0  0  0  0  0  0  0  0
   -1.2254    2.6180   -0.1587 N   0  0  0  0  0  0  0  0  0  0  0  0
   -1.0022    1.6897    0.8231 N   0  0  0  0  0  0  0  0  0  0  0  0
   -0.9018    0.2658    0.6856 C   0  0  0  0  0  0  0  0  0  0  0  0
   -1.8616   -0.4109   -0.0049 N   0  0  0  0  0  0  0  0  0  0  0  0
   -1.8675   -1.7645   -0.0947 C   0  0  0  0  0  0  0  0  0  0  0  0
   -2.8412   -2.4434   -0.7908 C   0  0  0  0  0  0  0  0  0  0  0  0
   -2.8215   -3.8105   -0.8593 C   0  0  0  0  0  0  0  0  0  0  0  0
   -1.8319   -4.5398   -0.2359 C   0  0  0  0  0  0  0  0  0  0  0  0
   -0.8469   -3.8894    0.4656 C   0  0  0  0  0  0  0  0  0  0  0  0
   -0.8719   -2.4972    0.5325 C   0  0  0  0  0  0  0  0  0  0  0  0
    0.0831   -1.8589    1.2165 N   0  0  0  0  0  0  0  0  0  0  0  0
    0.0670   -0.4892    1.2879 C   0  0  0  0  0  0  0  0  0  0  0  0
    1.2456    0.1463    1.9625 C   0  0  0  0  0  0  0  0  0  0  0  0
    2.3725    0.3307    0.9799 C   0  0  0  0  0  0  0  0  0  0  0  0
    2.3160    1.1854   -0.0838 C   0  0  0  0  0  0  0  0  0  0  0  0
    3.3528    1.3454   -0.9997 C   0  0  0  0  0  0  0  0  0  0  0  0
    4.4890    0.6181   -0.8368 C   0  0  0  0  0  0  0  0  0  0  0  0
    4.5642   -0.2597    0.2479 C   0  0  0  0  0  0  0  0  0  0  0  0
    3.5276   -0.4043    1.1420 C   0  0  0  0  0  0  0  0  0  0  0  0
   -2.0986    4.9144   -1.5658 H   0  0  0  0  0  0  0  0  0  0  0  0
   -3.7641    4.3821   -1.6081 H   0  0  0  0  0  0  0  0  0  0  0  0
   -2.5648    3.5738   -2.7351 H   0  0  0  0  0  0  0  0  0  0  0  0
   -0.4479    3.1323   -0.6125 H   0  0  0  0  0  0  0  0  0  0  0  0
   -0.8809    1.9890    1.8624 H   0  0  0  0  0  0  0  0  0  0  0  0
   -3.6268   -1.9119   -1.2863 H   0  0  0  0  0  0  0  0  0  0  0  0
   -3.6055   -4.3046   -1.4141 H   0  0  0  0  0  0  0  0  0  0  0  0
   -1.8572   -5.6198   -0.3138 H   0  0  0  0  0  0  0  0  0  0  0  0
   -0.0891   -4.4689    0.9428 H   0  0  0  0  0  0  0  0  0  0  0  0
    1.5721   -0.5425    2.7595 H   0  0  0  0  0  0  0  0  0  0  0  0
    0.9839    1.1061    2.4069 H   0  0  0  0  0  0  0  0  0  0  0  0
    1.4471    1.7945   -0.2772 H   0  0  0  0  0  0  0  0  0  0  0  0
    3.2546    2.0337   -1.8351 H   0  0  0  0  0  0  0  0  0  0  0  0
    5.3312    0.6943   -1.5283 H   0  0  0  0  0  0  0  0  0  0  0  0
    5.4679   -0.8664    0.4172 H   0  0  0  0  0  0  0  0  0  0  0  0
    3.6738   -1.1174    1.9724 H   0  0  0  0  0  0  0  0  0  0  0  0
  1  2  1  0
  2  3  2  0
  2  4  1  0
  4  5  1  0
  5  6  1  0
  6  7  2  0
  7  8  1  0
  8  9  2  0
  9 10  1  0
 10 11  2  0
 11 12  1  0
 12 13  2  0
 13 14  1  0
 14 15  2  0
 15 16  1  0
 16 17  1  0
 17 18  2  0
 18 19  1  0
 19 20  2  0
 20 21  1  0
 21 22  2  0
 15  6  1  0
 22 17  1  0
 13  8  1  0
  1 23  1  0
  1 24  1  0
  1 25  1  0
  4 26  1  0
  5 27  1  0
  9 28  1  0
 10 29  1  0
 11 30  1  0
 12 31  1  0
 16 32  1  0
 16 33  1  0
 18 34  1  0
 19 35  1  0
 20 36  1  0
 21 37  1  0
 22 38  1  0
M  END
$$$$
