
     RDKit          3D

 42 43  0  0  0  0  0  0  0  0999 V2000
   -4.8800    1.6665   -0.3314 N   0  0  0  0  0  0  0  0  0  0  0  0
   -4.2617    0.5658    0.4550 C   0  0  2  0  0  0  0  0  0  0  0  0
   -2.8201    0.6684    0.1124 C   0  0  0  0  0  0  0  0  0  0  0  0
   -1.7040   -0.4421    0.8169 S   0  0  0  0  0  0  0  0  0  0  0  0
   -1.6365   -0.4548    2.2876 O   0  0  0  0  0  0  0  0  0  0  0  0
   -1.9506   -1.8518    0.3309 O   0  0  0  0  0  0  0  0  0  0  0  0
   -0.0785   -0.0347    0.2217 C   0  0  0  0  0  0  0  0  0  0  0  0
    0.4068   -0.6156   -0.9377 C   0  0  0  0  0  0  0  0  0  0  0  0
    1.6761   -0.2922   -1.3952 C   0  0  0  0  0  0  0  0  0  0  0  0
    2.4273    0.6065   -0.6775 C   0  0  0  0  0  0  0  0  0  0  0  0
    3.7208    1.0166   -1.0311 O   0  0  0  0  0  0  0  0  0  0  0  0
    4.8425    0.3344   -0.5738 C   0  0  0  0  0  0  0  0  0  0  0  0
    5.3746   -0.7132   -1.2937 C   0  0  0  0  0  0  0  0  0  0  0  0
    6.4900   -1.4189   -0.8743 C   0  0  0  0  0  0  0  0  0  0  0  0
    7.0978   -1.0633    0.3119 C   0  0  0  0  0  0  0  0  0  0  0  0
    6.6009   -0.0218    1.0659 C   0  0  0  0  0  0  0  0  0  0  0  0
    5.4911    0.6527    0.6129 C   0  0  0  0  0  0  0  0  0  0  0  0
    1.9430    1.1849    0.4776 C   0  0  0  0  0  0  0  0  0  0  0  0
    0.6928    0.8726    0.9368 C   0  0  0  0  0  0  0  0  0  0  0  0
   -4.9581   -0.6425   -0.0332 C   0  0  0  0  0  0  0  0  0  0  0  0
   -5.4050    0.2386   -0.8524 O   0  0  0  0  0  0  0  0  0  0  0  0
   -5.1658   -2.0287    0.1351 N   0  0  0  0  0  0  0  0  0  0  0  0
   -6.0086   -2.6144   -0.7316 O   0  0  0  0  0  0  0  0  0  0  0  0
   -4.5907    0.8930    1.8877 C   0  0  0  0  0  0  0  0  0  0  0  0
   -4.1268    0.0193    2.8116 F   0  0  0  0  0  0  0  0  0  0  0  0
   -4.1236    2.1840    2.1296 F   0  0  0  0  0  0  0  0  0  0  0  0
   -5.9797    0.9503    1.9685 F   0  0  0  0  0  0  0  0  0  0  0  0
   -4.3549    1.7942   -1.2473 H   0  0  0  0  0  0  0  0  0  0  0  0
   -4.6466    2.5360    0.2213 H   0  0  0  0  0  0  0  0  0  0  0  0
   -2.7585    0.5872   -1.0138 H   0  0  0  0  0  0  0  0  0  0  0  0
   -2.5384    1.7472    0.2915 H   0  0  0  0  0  0  0  0  0  0  0  0
   -0.1903   -1.3280   -1.5056 H   0  0  0  0  0  0  0  0  0  0  0  0
    2.1045   -0.7174   -2.2963 H   0  0  0  0  0  0  0  0  0  0  0  0
    4.9401   -1.0416   -2.2378 H   0  0  0  0  0  0  0  0  0  0  0  0
    6.8787   -2.2428   -1.4760 H   0  0  0  0  0  0  0  0  0  0  0  0
    7.9778   -1.6192    0.6439 H   0  0  0  0  0  0  0  0  0  0  0  0
    7.0954    0.2284    1.9804 H   0  0  0  0  0  0  0  0  0  0  0  0
    5.0745    1.4794    1.1848 H   0  0  0  0  0  0  0  0  0  0  0  0
    2.5036    1.9064    1.0843 H   0  0  0  0  0  0  0  0  0  0  0  0
    0.2596    1.2948    1.8372 H   0  0  0  0  0  0  0  0  0  0  0  0
   -4.5515   -2.1964    0.9591 H   0  0  0  0  0  0  0  0  0  0  0  0
   -6.8679   -2.0881   -0.6622 H   0  0  0  0  0  0  0  0  0  0  0  0
  2  1  1  6
  2  3  1  0
  3  4  1  0
  4  5  2  0
  4  6  2  0
  4  7  1  0
  7  8  2  0
  8  9  1  0
  9 10  2  0
 10 11  1  0
 11 12  1  0
 12 13  2  0
 13 14  1  0
 14 15  2  0
 15 16  1  0
 16 17  2  0
 10 18  1  0
 18 19  2  0
  2 20  1  0
 20 21  2  0
 20 22  1  0
 22 23  1  0
  2 24  1  0
 24 25  1  0
 24 26  1  0
 24 27  1  0
 19  7  1  0
 17 12  1  0
  1 28  1  0
  1 29  1  0
  3 30  1  0
  3 31  1  0
  8 32  1  0
  9 33  1  0
 13 34  1  0
 14 35  1  0
 15 36  1  0
 16 37  1  0
 17 38  1  0
 18 39  1  0
 19 40  1  0
 22 41  1  0
 23 42  1  0
M  END
$$$$
