@<TRIPOS>MOLECULE
*****
 42 43 0 0 0
SMALL
GASTEIGER

@<TRIPOS>ATOM
      1 N          -4.8800    1.6665   -0.3314 N.3     1  UNL1       -0.3089
      2 C          -4.2617    0.5658    0.4550 C.3     1  UNL1        0.2106
      3 C          -2.8201    0.6684    0.1124 C.3     1  UNL1        0.1060
      4 S          -1.7040   -0.4421    0.8169 S.O2    1  UNL1       -0.0006
      5 O          -1.6365   -0.4548    2.2876 O.2     1  UNL1       -0.1693
      6 O          -1.9506   -1.8518    0.3309 O.2     1  UNL1       -0.1693
      7 C          -0.0785   -0.0347    0.2217 C.ar    1  UNL1        0.0885
      8 C           0.4068   -0.6156   -0.9377 C.ar    1  UNL1       -0.0334
      9 C           1.6761   -0.2922   -1.3952 C.ar    1  UNL1       -0.0175
     10 C           2.4273    0.6065   -0.6775 C.ar    1  UNL1        0.1285
     11 O           3.7208    1.0166   -1.0311 O.3     1  UNL1       -0.4560
     12 C           4.8425    0.3344   -0.5738 C.ar    1  UNL1        0.1284
     13 C           5.3746   -0.7132   -1.2937 C.ar    1  UNL1       -0.0193
     14 C           6.4900   -1.4189   -0.8743 C.ar    1  UNL1       -0.0583
     15 C           7.0978   -1.0633    0.3119 C.ar    1  UNL1       -0.0615
     16 C           6.6009   -0.0218    1.0659 C.ar    1  UNL1       -0.0583
     17 C           5.4911    0.6527    0.6129 C.ar    1  UNL1       -0.0193
     18 C           1.9430    1.1849    0.4776 C.ar    1  UNL1       -0.0175
     19 C           0.6928    0.8726    0.9368 C.ar    1  UNL1       -0.0334
     20 C          -4.9581   -0.6425   -0.0332 C.2     1  UNL1        0.2659
     21 O          -5.4050    0.2386   -0.8524 O.2     1  UNL1       -0.2713
     22 N          -5.1658   -2.0287    0.1351 N.am    1  UNL1       -0.1957
     23 O          -6.0086   -2.6144   -0.7316 O.3     1  UNL1       -0.2951
     24 C          -4.5907    0.8930    1.8877 C.3     1  UNL1        0.4176
     25 F          -4.1268    0.0193    2.8116 F       1  UNL1       -0.1681
     26 F          -4.1236    2.1840    2.1296 F       1  UNL1       -0.1681
     27 F          -5.9797    0.9503    1.9685 F       1  UNL1       -0.1681
     28 H          -4.3549    1.7942   -1.2473 H       1  UNL1        0.1195
     29 H          -4.6466    2.5360    0.2213 H       1  UNL1        0.1195
     30 H          -2.7585    0.5872   -1.0138 H       1  UNL1        0.0530
     31 H          -2.5384    1.7472    0.2915 H       1  UNL1        0.0530
     32 H          -0.1903   -1.3280   -1.5056 H       1  UNL1        0.0638
     33 H           2.1045   -0.7174   -2.2963 H       1  UNL1        0.0655
     34 H           4.9401   -1.0416   -2.2378 H       1  UNL1        0.0654
     35 H           6.8787   -2.2428   -1.4760 H       1  UNL1        0.0619
     36 H           7.9778   -1.6192    0.6439 H       1  UNL1        0.0618
     37 H           7.0954    0.2284    1.9804 H       1  UNL1        0.0619
     38 H           5.0745    1.4794    1.1848 H       1  UNL1        0.0654
     39 H           2.5036    1.9064    1.0843 H       1  UNL1        0.0655
     40 H           0.2596    1.2948    1.8372 H       1  UNL1        0.0638
     41 H          -4.5515   -2.1964    0.9591 H       1  UNL1        0.1823
     42 H          -6.8679   -2.0881   -0.6622 H       1  UNL1        0.2414
@<TRIPOS>BOND
     1     2     1    1
     2     2     3    1
     3     3     4    1
     4     4     5    2
     5     4     6    2
     6     4     7    1
     7     7     8   ar
     8     8     9   ar
     9     9    10   ar
    10    10    11    1
    11    11    12    1
    12    12    13   ar
    13    13    14   ar
    14    14    15   ar
    15    15    16   ar
    16    16    17   ar
    17    10    18   ar
    18    18    19   ar
    19     2    20    1
    20    20    21    2
    21    20    22   am
    22    22    23    1
    23     2    24    1
    24    24    25    1
    25    24    26    1
    26    24    27    1
    27    19     7   ar
    28    17    12   ar
    29     1    28    1
    30     1    29    1
    31     3    30    1
    32     3    31    1
    33     8    32    1
    34     9    33    1
    35    13    34    1
    36    14    35    1
    37    15    36    1
    38    16    37    1
    39    17    38    1
    40    18    39    1
    41    19    40    1
    42    22    41    1
    43    23    42    1
