@<TRIPOS>MOLECULE
*****
 22 23 0 0 0
SMALL
GASTEIGER

@<TRIPOS>ATOM
      1 C          -0.8106    0.6651   -0.7106 C.3     1  UNL1        0.1166
      2 O          -0.2074    1.6734    0.0016 O.3     1  UNL1       -0.3672
      3 C           0.6575    1.0677    0.9167 C.3     1  UNL1        0.0947
      4 C           1.3139    0.0496   -0.0279 C.3     1  UNL1        0.2283
      5 O           2.1674   -0.8152    0.6602 O.2     1  UNL1       -0.2081
      6 N           3.5164   -0.8193    0.3066 N.pl3   1  UNL1        0.2847
      7 O           4.0709    0.3399   -0.2104 O.co2   1  UNL1       -0.5338
      8 O           4.3694   -1.7224    0.3715 O.2     1  UNL1        0.0934
      9 C           0.0861   -0.5743   -0.6068 C.3     1  UNL1        0.1331
     10 O          -0.5814   -1.4092    0.2671 O.3     1  UNL1       -0.3673
     11 C          -1.9447   -1.2474   -0.0252 C.3     1  UNL1        0.0767
     12 C          -2.0647    0.2620    0.0331 C.3     1  UNL1        0.1071
     13 O          -3.1814    0.7407   -0.6099 O.3     1  UNL1       -0.3869
     14 H          -0.9889    0.8994   -1.7672 H       1  UNL1        0.0650
     15 H           1.4216    1.7515    1.2856 H       1  UNL1        0.0600
     16 H           0.0539    0.5605    1.6943 H       1  UNL1        0.0600
     17 H           1.8023    0.6570   -0.7997 H       1  UNL1        0.0858
     18 H           0.2274   -1.0476   -1.5956 H       1  UNL1        0.0663
     19 H          -2.2219   -1.6097   -1.0292 H       1  UNL1        0.0586
     20 H          -2.5529   -1.7105    0.7759 H       1  UNL1        0.0586
     21 H          -2.0452    0.5606    1.1004 H       1  UNL1        0.0643
     22 H          -3.0879    1.7282   -0.6346 H       1  UNL1        0.2100
@<TRIPOS>UNITY_ATOM_ATTR
6 1
charge 1
7 1
charge -1
@<TRIPOS>BOND
     1     1     2    1
     2     2     3    1
     3     3     4    1
     4     4     5    1
     5     5     6    1
     6     6     7    1
     7     6     8    2
     8     4     9    1
     9     9    10    1
    10    10    11    1
    11    11    12    1
    12    12    13    1
    13     9     1    1
    14    12     1    1
    15     1    14    1
    16     3    15    1
    17     3    16    1
    18     4    17    1
    19     9    18    1
    20    11    19    1
    21    11    20    1
    22    12    21    1
    23    13    22    1
