@<TRIPOS>MOLECULE
*****
 28 30 0 0 0
SMALL
GASTEIGER

@<TRIPOS>ATOM
      1 F           4.3239   -2.4577    0.2926 F       1  UNL1       -0.2055
      2 C           3.3464   -1.5099    0.2721 C.ar    1  UNL1        0.1234
      3 C           3.1712   -0.6577    1.3194 C.ar    1  UNL1       -0.0259
      4 C           2.1596    0.2973    1.2586 C.ar    1  UNL1       -0.0512
      5 C           1.3377    0.3754    0.1343 C.ar    1  UNL1       -0.0142
      6 C           1.5152   -0.4908   -0.9313 C.ar    1  UNL1       -0.0512
      7 C           2.5300   -1.4411   -0.8585 C.ar    1  UNL1       -0.0259
      8 C           0.3395    1.4331    0.2516 C.ar    1  UNL1        0.0272
      9 C           0.5231    2.7910    0.3910 C.ar    1  UNL1        0.0306
     10 N          -0.6742    3.3935    0.4625 N.ar    1  UNL1       -0.2835
     11 N          -1.6336    2.4642    0.3733 N.ar    1  UNL1       -0.1733
     12 C          -1.0218    1.2500    0.2428 C.ar    1  UNL1        0.1003
     13 C          -1.7986    0.0424    0.1235 C.ar    1  UNL1        0.0084
     14 C          -2.6415   -0.0494   -0.9668 C.ar    1  UNL1        0.0020
     15 C          -3.4235   -1.1654   -1.1653 C.ar    1  UNL1        0.2138
     16 F          -4.2541   -1.2367   -2.2549 F       1  UNL1       -0.1839
     17 N          -3.3658   -2.1924   -0.2755 N.ar    1  UNL1       -0.2276
     18 C          -2.5516   -2.1140    0.7858 C.ar    1  UNL1        0.0313
     19 C          -1.7593   -1.0169    1.0134 C.ar    1  UNL1       -0.0341
     20 H           3.8277   -0.7461    2.1776 H       1  UNL1        0.0646
     21 H           2.0880    0.9336    2.1305 H       1  UNL1        0.0624
     22 H           0.8362   -0.3495   -1.7420 H       1  UNL1        0.0624
     23 H           2.6320   -2.1018   -1.7219 H       1  UNL1        0.0646
     24 H           1.5158    3.2200    0.4281 H       1  UNL1        0.0830
     25 H          -0.7118    4.4423    0.5715 H       1  UNL1        0.1882
     26 H          -2.7020    0.7686   -1.6956 H       1  UNL1        0.0669
     27 H          -2.5229   -2.9566    1.4900 H       1  UNL1        0.0831
     28 H          -1.0856   -0.9254    1.8705 H       1  UNL1        0.0639
@<TRIPOS>BOND
     1     1     2    1
     2     2     3   ar
     3     3     4   ar
     4     4     5   ar
     5     5     6   ar
     6     6     7   ar
     7     5     8    1
     8     8     9   ar
     9     9    10   ar
    10    10    11   ar
    11    11    12   ar
    12    12    13    1
    13    13    14   ar
    14    14    15   ar
    15    15    16    1
    16    15    17   ar
    17    17    18   ar
    18    18    19   ar
    19     7     2   ar
    20    12     8   ar
    21    19    13   ar
    22     3    20    1
    23     4    21    1
    24     6    22    1
    25     7    23    1
    26     9    24    1
    27    10    25    1
    28    14    26    1
    29    18    27    1
    30    19    28    1
