@<TRIPOS>MOLECULE
*****
 31 33 0 0 0
SMALL
GASTEIGER

@<TRIPOS>ATOM
      1 O           5.4915    1.6310    0.5209 O.2     1  UNL1       -0.2871
      2 C           4.8574    0.6920   -0.0208 C.ar    1  UNL1        0.1925
      3 C           5.4192   -0.3376   -0.7138 C.ar    1  UNL1        0.0207
      4 C           4.6223   -1.3163   -1.2676 C.ar    1  UNL1        0.0961
      5 O           3.3165   -1.2895   -1.1479 O.2     1  UNL1       -0.4626
      6 C           2.7455   -0.2945   -0.4761 C.ar    1  UNL1        0.1418
      7 C           1.3542   -0.2559   -0.3422 C.ar    1  UNL1        0.0231
      8 C           0.7159    0.7403    0.3357 C.ar    1  UNL1        0.1245
      9 O          -0.6489    0.7468    0.4472 O.3     1  UNL1       -0.4873
     10 C          -1.3840   -0.2981   -0.1533 C.3     1  UNL1        0.1146
     11 C          -2.8396   -0.1571    0.0502 C.ar    1  UNL1       -0.0102
     12 C          -3.5954    0.5469   -0.8687 C.ar    1  UNL1       -0.0526
     13 C          -4.9641    0.6890   -0.6929 C.ar    1  UNL1       -0.0261
     14 C          -5.5852    0.1279    0.4031 C.ar    1  UNL1        0.1234
     15 F          -6.9225    0.2950    0.5291 F       1  UNL1       -0.2055
     16 C          -4.8129   -0.5678    1.3038 C.ar    1  UNL1       -0.0261
     17 C          -3.4419   -0.7260    1.1534 C.ar    1  UNL1       -0.0526
     18 C           1.4512    1.7416    0.9086 C.ar    1  UNL1       -0.0190
     19 C           2.8235    1.7177    0.7855 C.ar    1  UNL1       -0.0439
     20 C           3.4762    0.7164    0.1033 C.ar    1  UNL1        0.0642
     21 H           6.5054   -0.3489   -0.8064 H       1  UNL1        0.0687
     22 H           5.1280   -2.1254   -1.8172 H       1  UNL1        0.1031
     23 H           0.7905   -1.0761   -0.8146 H       1  UNL1        0.0691
     24 H          -0.9994   -1.2627    0.2523 H       1  UNL1        0.0748
     25 H          -1.1172   -0.2708   -1.2468 H       1  UNL1        0.0748
     26 H          -3.1228    0.9966   -1.7398 H       1  UNL1        0.0622
     27 H          -5.5631    1.2493   -1.4250 H       1  UNL1        0.0646
     28 H          -5.2991   -1.0169    2.1777 H       1  UNL1        0.0646
     29 H          -2.8468   -1.2763    1.8704 H       1  UNL1        0.0622
     30 H           0.9928    2.5642    1.4630 H       1  UNL1        0.0654
     31 H           3.4528    2.5007    1.2293 H       1  UNL1        0.0627
@<TRIPOS>BOND
     1     1     2    2
     2     2     3   ar
     3     3     4   ar
     4     4     5   ar
     5     5     6   ar
     6     6     7   ar
     7     7     8   ar
     8     8     9    1
     9     9    10    1
    10    10    11    1
    11    11    12   ar
    12    12    13   ar
    13    13    14   ar
    14    14    15    1
    15    14    16   ar
    16    16    17   ar
    17     8    18   ar
    18    18    19   ar
    19    19    20   ar
    20    20     2   ar
    21    20     6   ar
    22    17    11   ar
    23     3    21    1
    24     4    22    1
    25     7    23    1
    26    10    24    1
    27    10    25    1
    28    12    26    1
    29    13    27    1
    30    16    28    1
    31    17    29    1
    32    18    30    1
    33    19    31    1
