
     RDKit          3D

 31 33  0  0  0  0  0  0  0  0999 V2000
    5.4915    1.6310    0.5209 O   0  0  0  0  0  0  0  0  0  0  0  0
    4.8574    0.6920   -0.0208 C   0  0  0  0  0  0  0  0  0  0  0  0
    5.4192   -0.3376   -0.7138 C   0  0  0  0  0  0  0  0  0  0  0  0
    4.6223   -1.3163   -1.2676 C   0  0  0  0  0  0  0  0  0  0  0  0
    3.3165   -1.2895   -1.1479 O   0  0  0  0  0  0  0  0  0  0  0  0
    2.7455   -0.2945   -0.4761 C   0  0  0  0  0  0  0  0  0  0  0  0
    1.3542   -0.2559   -0.3422 C   0  0  0  0  0  0  0  0  0  0  0  0
    0.7159    0.7403    0.3357 C   0  0  0  0  0  0  0  0  0  0  0  0
   -0.6489    0.7468    0.4472 O   0  0  0  0  0  0  0  0  0  0  0  0
   -1.3840   -0.2981   -0.1533 C   0  0  0  0  0  0  0  0  0  0  0  0
   -2.8396   -0.1571    0.0502 C   0  0  0  0  0  0  0  0  0  0  0  0
   -3.5954    0.5469   -0.8687 C   0  0  0  0  0  0  0  0  0  0  0  0
   -4.9641    0.6890   -0.6929 C   0  0  0  0  0  0  0  0  0  0  0  0
   -5.5852    0.1279    0.4031 C   0  0  0  0  0  0  0  0  0  0  0  0
   -6.9225    0.2950    0.5291 F   0  0  0  0  0  0  0  0  0  0  0  0
   -4.8129   -0.5678    1.3038 C   0  0  0  0  0  0  0  0  0  0  0  0
   -3.4419   -0.7260    1.1534 C   0  0  0  0  0  0  0  0  0  0  0  0
    1.4512    1.7416    0.9086 C   0  0  0  0  0  0  0  0  0  0  0  0
    2.8235    1.7177    0.7855 C   0  0  0  0  0  0  0  0  0  0  0  0
    3.4762    0.7164    0.1033 C   0  0  0  0  0  0  0  0  0  0  0  0
    6.5054   -0.3489   -0.8064 H   0  0  0  0  0  0  0  0  0  0  0  0
    5.1280   -2.1254   -1.8172 H   0  0  0  0  0  0  0  0  0  0  0  0
    0.7905   -1.0761   -0.8146 H   0  0  0  0  0  0  0  0  0  0  0  0
   -0.9994   -1.2627    0.2523 H   0  0  0  0  0  0  0  0  0  0  0  0
   -1.1172   -0.2708   -1.2468 H   0  0  0  0  0  0  0  0  0  0  0  0
   -3.1228    0.9966   -1.7398 H   0  0  0  0  0  0  0  0  0  0  0  0
   -5.5631    1.2493   -1.4250 H   0  0  0  0  0  0  0  0  0  0  0  0
   -5.2991   -1.0169    2.1777 H   0  0  0  0  0  0  0  0  0  0  0  0
   -2.8468   -1.2763    1.8704 H   0  0  0  0  0  0  0  0  0  0  0  0
    0.9928    2.5642    1.4630 H   0  0  0  0  0  0  0  0  0  0  0  0
    3.4528    2.5007    1.2293 H   0  0  0  0  0  0  0  0  0  0  0  0
  1  2  2  0
  2  3  1  0
  3  4  2  0
  4  5  1  0
  5  6  1  0
  6  7  2  0
  7  8  1  0
  8  9  1  0
  9 10  1  0
 10 11  1  0
 11 12  2  0
 12 13  1  0
 13 14  2  0
 14 15  1  0
 14 16  1  0
 16 17  2  0
  8 18  2  0
 18 19  1  0
 19 20  2  0
 20  2  1  0
 20  6  1  0
 17 11  1  0
  3 21  1  0
  4 22  1  0
  7 23  1  0
 10 24  1  0
 10 25  1  0
 12 26  1  0
 13 27  1  0
 16 28  1  0
 17 29  1  0
 18 30  1  0
 19 31  1  0
M  END
$$$$
