@<TRIPOS>MOLECULE
*****
 42 44 0 0 0
SMALL
GASTEIGER

@<TRIPOS>ATOM
      1 C          -1.8519   -1.9913   -1.7938 C.3     1  UNL1       -0.0432
      2 C          -2.7091   -1.1764   -0.9217 C.2     1  UNL1       -0.0674
      3 C          -4.1824   -1.4532   -0.9108 C.3     1  UNL1       -0.0432
      4 C          -2.2712   -0.1738   -0.1392 C.2     1  UNL1       -0.0119
      5 C          -3.1970    0.5727    0.6869 C.ar    1  UNL1       -0.0145
      6 C          -3.3465    1.9221    0.6815 C.ar    1  UNL1       -0.0359
      7 C          -4.2437    2.5319    1.5623 C.ar    1  UNL1        0.0281
      8 N          -4.9673    1.8165    2.4189 N.ar    1  UNL1       -0.2632
      9 C          -4.8602    0.4808    2.4670 C.ar    1  UNL1        0.0281
     10 C          -3.9774   -0.1461    1.6043 C.ar    1  UNL1       -0.0359
     11 C          -0.8215    0.0017   -0.1387 C.ar    1  UNL1       -0.0173
     12 C          -0.0038   -1.1024    0.1610 C.ar    1  UNL1       -0.0534
     13 C           1.3715   -1.0118    0.1505 C.ar    1  UNL1       -0.0535
     14 C           2.0033    0.1513   -0.1503 C.ar    1  UNL1       -0.0178
     15 C           3.4605    0.2314   -0.1594 C.ar    1  UNL1       -0.0149
     16 C           4.1244    1.4027    0.1693 C.ar    1  UNL1       -0.0504
     17 C           5.5012    1.4872    0.1614 C.ar    1  UNL1       -0.0167
     18 C           6.2685    0.3818   -0.1820 C.ar    1  UNL1        0.1519
     19 O           7.6688    0.4475   -0.1963 O.3     1  UNL1       -0.5039
     20 C           5.6187   -0.7888   -0.5108 C.ar    1  UNL1        0.1651
     21 F           6.3573   -1.8656   -0.8451 F       1  UNL1       -0.2016
     22 C           4.2412   -0.8548   -0.4975 C.ar    1  UNL1       -0.0151
     23 C           1.2361    1.2509   -0.4481 C.ar    1  UNL1       -0.0535
     24 C          -0.1646    1.1611   -0.4385 C.ar    1  UNL1       -0.0534
     25 H          -2.4040   -2.0940   -2.7728 H       1  UNL1        0.0275
     26 H          -1.7482   -3.0070   -1.3346 H       1  UNL1        0.0275
     27 H          -0.8715   -1.5762   -2.0336 H       1  UNL1        0.0275
     28 H          -4.7904   -0.5852   -0.6293 H       1  UNL1        0.0275
     29 H          -4.3733   -2.3806   -0.3599 H       1  UNL1        0.0275
     30 H          -4.5134   -1.6920   -1.9724 H       1  UNL1        0.0275
     31 H          -2.7845    2.5545   -0.0153 H       1  UNL1        0.0639
     32 H          -4.3162    3.6105    1.5085 H       1  UNL1        0.0830
     33 H          -5.4614   -0.0846    3.1755 H       1  UNL1        0.0830
     34 H          -3.8644   -1.2231    1.6250 H       1  UNL1        0.0639
     35 H          -0.5028   -2.0313    0.4093 H       1  UNL1        0.0624
     36 H           1.9363   -1.9188    0.3950 H       1  UNL1        0.0624
     37 H           3.5240    2.2569    0.4347 H       1  UNL1        0.0625
     38 H           6.0389    2.3987    0.4171 H       1  UNL1        0.0655
     39 H           8.1699   -0.0070    0.5736 H       1  UNL1        0.2923
     40 H           3.7256   -1.7805   -0.7575 H       1  UNL1        0.0653
     41 H           1.6911    2.2187   -0.6991 H       1  UNL1        0.0624
     42 H          -0.7107    2.0653   -0.6952 H       1  UNL1        0.0624
@<TRIPOS>BOND
     1     1     2    1
     2     2     3    1
     3     2     4    2
     4     4     5    1
     5     5     6   ar
     6     6     7   ar
     7     7     8   ar
     8     8     9   ar
     9     9    10   ar
    10     4    11    1
    11    11    12   ar
    12    12    13   ar
    13    13    14   ar
    14    14    15    1
    15    15    16   ar
    16    16    17   ar
    17    17    18   ar
    18    18    19    1
    19    18    20   ar
    20    20    21    1
    21    20    22   ar
    22    14    23   ar
    23    23    24   ar
    24    10     5   ar
    25    24    11   ar
    26    22    15   ar
    27     1    25    1
    28     1    26    1
    29     1    27    1
    30     3    28    1
    31     3    29    1
    32     3    30    1
    33     6    31    1
    34     7    32    1
    35     9    33    1
    36    10    34    1
    37    12    35    1
    38    13    36    1
    39    16    37    1
    40    17    38    1
    41    19    39    1
    42    22    40    1
    43    23    41    1
    44    24    42    1
