
     RDKit          3D

 42 44  0  0  0  0  0  0  0  0999 V2000
   -1.8519   -1.9913   -1.7938 C   0  0  0  0  0  0  0  0  0  0  0  0
   -2.7091   -1.1764   -0.9217 C   0  0  0  0  0  0  0  0  0  0  0  0
   -4.1824   -1.4532   -0.9108 C   0  0  0  0  0  0  0  0  0  0  0  0
   -2.2712   -0.1738   -0.1392 C   0  0  0  0  0  0  0  0  0  0  0  0
   -3.1970    0.5727    0.6869 C   0  0  0  0  0  0  0  0  0  0  0  0
   -3.3465    1.9221    0.6815 C   0  0  0  0  0  0  0  0  0  0  0  0
   -4.2437    2.5319    1.5623 C   0  0  0  0  0  0  0  0  0  0  0  0
   -4.9673    1.8165    2.4189 N   0  0  0  0  0  0  0  0  0  0  0  0
   -4.8602    0.4808    2.4670 C   0  0  0  0  0  0  0  0  0  0  0  0
   -3.9774   -0.1461    1.6043 C   0  0  0  0  0  0  0  0  0  0  0  0
   -0.8215    0.0017   -0.1387 C   0  0  0  0  0  0  0  0  0  0  0  0
   -0.0038   -1.1024    0.1610 C   0  0  0  0  0  0  0  0  0  0  0  0
    1.3715   -1.0118    0.1505 C   0  0  0  0  0  0  0  0  0  0  0  0
    2.0033    0.1513   -0.1503 C   0  0  0  0  0  0  0  0  0  0  0  0
    3.4605    0.2314   -0.1594 C   0  0  0  0  0  0  0  0  0  0  0  0
    4.1244    1.4027    0.1693 C   0  0  0  0  0  0  0  0  0  0  0  0
    5.5012    1.4872    0.1614 C   0  0  0  0  0  0  0  0  0  0  0  0
    6.2685    0.3818   -0.1820 C   0  0  0  0  0  0  0  0  0  0  0  0
    7.6688    0.4475   -0.1963 O   0  0  0  0  0  0  0  0  0  0  0  0
    5.6187   -0.7888   -0.5108 C   0  0  0  0  0  0  0  0  0  0  0  0
    6.3573   -1.8656   -0.8451 F   0  0  0  0  0  0  0  0  0  0  0  0
    4.2412   -0.8548   -0.4975 C   0  0  0  0  0  0  0  0  0  0  0  0
    1.2361    1.2509   -0.4481 C   0  0  0  0  0  0  0  0  0  0  0  0
   -0.1646    1.1611   -0.4385 C   0  0  0  0  0  0  0  0  0  0  0  0
   -2.4040   -2.0940   -2.7728 H   0  0  0  0  0  0  0  0  0  0  0  0
   -1.7482   -3.0070   -1.3346 H   0  0  0  0  0  0  0  0  0  0  0  0
   -0.8715   -1.5762   -2.0336 H   0  0  0  0  0  0  0  0  0  0  0  0
   -4.7904   -0.5852   -0.6293 H   0  0  0  0  0  0  0  0  0  0  0  0
   -4.3733   -2.3806   -0.3599 H   0  0  0  0  0  0  0  0  0  0  0  0
   -4.5134   -1.6920   -1.9724 H   0  0  0  0  0  0  0  0  0  0  0  0
   -2.7845    2.5545   -0.0153 H   0  0  0  0  0  0  0  0  0  0  0  0
   -4.3162    3.6105    1.5085 H   0  0  0  0  0  0  0  0  0  0  0  0
   -5.4614   -0.0846    3.1755 H   0  0  0  0  0  0  0  0  0  0  0  0
   -3.8644   -1.2231    1.6250 H   0  0  0  0  0  0  0  0  0  0  0  0
   -0.5028   -2.0313    0.4093 H   0  0  0  0  0  0  0  0  0  0  0  0
    1.9363   -1.9188    0.3950 H   0  0  0  0  0  0  0  0  0  0  0  0
    3.5240    2.2569    0.4347 H   0  0  0  0  0  0  0  0  0  0  0  0
    6.0389    2.3987    0.4171 H   0  0  0  0  0  0  0  0  0  0  0  0
    8.1699   -0.0070    0.5736 H   0  0  0  0  0  0  0  0  0  0  0  0
    3.7256   -1.7805   -0.7575 H   0  0  0  0  0  0  0  0  0  0  0  0
    1.6911    2.2187   -0.6991 H   0  0  0  0  0  0  0  0  0  0  0  0
   -0.7107    2.0653   -0.6952 H   0  0  0  0  0  0  0  0  0  0  0  0
  1  2  1  0
  2  3  1  0
  2  4  2  3
  4  5  1  0
  5  6  2  0
  6  7  1  0
  7  8  2  0
  8  9  1  0
  9 10  2  0
  4 11  1  0
 11 12  2  0
 12 13  1  0
 13 14  2  0
 14 15  1  0
 15 16  2  0
 16 17  1  0
 17 18  2  0
 18 19  1  0
 18 20  1  0
 20 21  1  0
 20 22  2  0
 14 23  1  0
 23 24  2  0
 10  5  1  0
 24 11  1  0
 22 15  1  0
  1 25  1  0
  1 26  1  0
  1 27  1  0
  3 28  1  0
  3 29  1  0
  3 30  1  0
  6 31  1  0
  7 32  1  0
  9 33  1  0
 10 34  1  0
 12 35  1  0
 13 36  1  0
 16 37  1  0
 17 38  1  0
 19 39  1  0
 22 40  1  0
 23 41  1  0
 24 42  1  0
M  END
$$$$
