@<TRIPOS>MOLECULE
*****
 35 37 0 0 0
SMALL
GASTEIGER

@<TRIPOS>ATOM
      1 C           4.4538    1.6331    0.1475 C.3     1  UNL1       -0.0393
      2 C           3.3763    0.5975    0.0599 C.ar    1  UNL1       -0.0441
      3 C           3.6965   -0.7235    0.0265 C.ar    1  UNL1       -0.0584
      4 C           2.7275   -1.6720   -0.0530 C.ar    1  UNL1       -0.0580
      5 C           1.3870   -1.2889   -0.1010 C.ar    1  UNL1       -0.0196
      6 C           1.0328    0.0364   -0.0690 C.ar    1  UNL1        0.1242
      7 O          -0.2521    0.4943   -0.1117 O.3     1  UNL1       -0.4848
      8 C          -1.4430   -0.2217   -0.1929 C.3     1  UNL1        0.1398
      9 C          -2.1665   -0.0902    1.1678 C.3     1  UNL1        0.0038
     10 C          -3.3232   -1.2208    1.1288 C.3     1  UNL1        0.0214
     11 N          -3.3592   -1.2665   -0.2782 N.am    1  UNL1       -0.2637
     12 C          -3.7502    0.0435   -0.8943 C.3     1  UNL1        0.0585
     13 C          -2.2693    0.1508   -1.3993 C.3     1  UNL1        0.1569
     14 O          -2.3314   -1.0174   -2.2693 O.3     1  UNL1       -0.4416
     15 C          -3.0070   -1.9737   -1.4096 C.2     1  UNL1        0.4034
     16 O          -3.2283   -3.1847   -1.6285 O.2     1  UNL1       -0.2262
     17 C           2.0651    0.9828    0.0133 C.ar    1  UNL1       -0.0059
     18 C           1.7279    2.4265    0.0505 C.3     1  UNL1       -0.0360
     19 H           4.5741    1.9439    1.1911 H       1  UNL1        0.0278
     20 H           4.1995    2.5317   -0.4538 H       1  UNL1        0.0278
     21 H           5.4176    1.1924   -0.1889 H       1  UNL1        0.0278
     22 H           4.7515   -1.0280    0.0642 H       1  UNL1        0.0620
     23 H           2.9667   -2.7341   -0.0806 H       1  UNL1        0.0619
     24 H           0.6191   -2.0583   -0.1646 H       1  UNL1        0.0654
     25 H          -1.1888   -1.3121   -0.2210 H       1  UNL1        0.0771
     26 H          -1.4945   -0.3650    1.9525 H       1  UNL1        0.0317
     27 H          -2.6253    0.8699    1.3218 H       1  UNL1        0.0317
     28 H          -2.9495   -2.0854    1.6659 H       1  UNL1        0.0467
     29 H          -4.1786   -0.7967    1.6499 H       1  UNL1        0.0467
     30 H          -3.9912    0.8011   -0.1780 H       1  UNL1        0.0503
     31 H          -4.3545   -0.0816   -1.7676 H       1  UNL1        0.0503
     32 H          -2.0567    1.0630   -1.8926 H       1  UNL1        0.0788
     33 H           2.1867    2.8783    0.9446 H       1  UNL1        0.0279
     34 H           0.6340    2.5640    0.0100 H       1  UNL1        0.0279
     35 H           2.1531    2.9112   -0.8702 H       1  UNL1        0.0279
@<TRIPOS>BOND
     1     1     2    1
     2     2     3   ar
     3     3     4   ar
     4     4     5   ar
     5     5     6   ar
     6     6     7    1
     7     7     8    1
     8     8     9    1
     9     9    10    1
    10    10    11    1
    11    11    12    1
    12    12    13    1
    13    13    14    1
    14    14    15    1
    15    15    16    2
    16     6    17   ar
    17    17    18    1
    18    17     2   ar
    19    13     8    1
    20    15    11   am
    21     1    19    1
    22     1    20    1
    23     1    21    1
    24     3    22    1
    25     4    23    1
    26     5    24    1
    27     8    25    1
    28     9    26    1
    29     9    27    1
    30    10    28    1
    31    10    29    1
    32    12    30    1
    33    12    31    1
    34    13    32    1
    35    18    33    1
    36    18    34    1
    37    18    35    1
