
     RDKit          3D

 68 72  0  0  0  0  0  0  0  0999 V2000
    4.9326   -4.5159   -1.9898 C   0  0  0  0  0  0  0  0  0  0  0  0
    4.1971   -3.4159   -1.5217 O   0  0  0  0  0  0  0  0  0  0  0  0
    4.8679   -2.4518   -0.7595 C   0  0  0  0  0  0  0  0  0  0  0  0
    6.1968   -2.5451   -0.4604 C   0  0  0  0  0  0  0  0  0  0  0  0
    6.8227   -1.5697    0.2965 C   0  0  0  0  0  0  0  0  0  0  0  0
    6.1441   -0.4801    0.7734 C   0  0  0  0  0  0  0  0  0  0  0  0
    4.7992   -0.3682    0.4812 C   0  0  0  0  0  0  0  0  0  0  0  0
    4.1748   -1.3379   -0.2718 C   0  0  0  0  0  0  0  0  0  0  0  0
    2.7438   -1.2226   -0.5847 C   0  0  0  0  0  0  0  0  0  0  0  0
    2.2123   -2.1309   -1.2757 O   0  0  0  0  0  0  0  0  0  0  0  0
    1.9320   -0.1081   -0.1280 C   0  0  0  0  0  0  0  0  0  0  0  0
    0.5898    0.0043   -0.4182 C   0  0  0  0  0  0  0  0  0  0  0  0
   -0.0179   -0.9837   -1.1782 O   0  0  0  0  0  0  0  0  0  0  0  0
   -0.1697    1.0678    0.0222 C   0  0  0  0  0  0  0  0  0  0  0  0
    0.4566    2.0406    0.7773 C   0  0  0  0  0  0  0  0  0  0  0  0
    1.7924    1.9287    1.0662 C   0  0  0  0  0  0  0  0  0  0  0  0
    2.4819    2.8862    1.8291 O   0  0  0  0  0  0  0  0  0  0  0  0
    2.5702    0.8550    0.6247 C   0  0  0  0  0  0  0  0  0  0  0  0
    3.9973    0.7585    0.9479 C   0  0  0  0  0  0  0  0  0  0  0  0
    4.5689    1.6420    1.6348 O   0  0  0  0  0  0  0  0  0  0  0  0
   -0.3003    3.2093    1.2775 C   0  0  0  0  0  0  0  0  0  0  0  0
   -1.3653    3.6537    0.3035 C   0  0  1  0  0  0  0  0  0  0  0  0
   -2.2678    4.4164    1.0761 O   0  0  0  0  0  0  0  0  0  0  0  0
   -0.7071    4.5926   -0.6386 C   0  0  0  0  0  0  0  0  0  0  0  0
    0.1308    4.2117   -1.4371 O   0  0  0  0  0  0  0  0  0  0  0  0
   -1.0671    6.0297   -0.6189 C   0  0  0  0  0  0  0  0  0  0  0  0
   -0.3421    6.7398   -1.5693 O   0  0  0  0  0  0  0  0  0  0  0  0
   -2.1278    2.5786   -0.3604 C   0  0  0  0  0  0  0  0  0  0  0  0
   -1.6135    1.1922   -0.2835 C   0  0  2  0  0  0  0  0  0  0  0  0
   -2.2865    0.5636    0.7913 O   0  0  0  0  0  0  0  0  0  0  0  0
   -2.9772   -0.5632    0.4063 C   0  0  1  0  0  0  0  0  0  0  0  0
   -2.4075   -1.7506    1.1301 C   0  0  0  0  0  0  0  0  0  0  0  0
   -3.5322   -2.6821    1.6033 C   0  0  2  0  0  0  0  0  0  0  0  0
   -2.9349   -3.9429    1.9992 N   0  0  0  0  0  0  0  0  0  0  0  0
   -4.4271   -2.8660    0.3890 C   0  0  2  0  0  0  0  0  0  0  0  0
   -3.7473   -3.5041   -0.6476 O   0  0  0  0  0  0  0  0  0  0  0  0
   -4.9820   -1.5408   -0.0029 C   0  0  2  0  0  0  0  0  0  0  0  0
   -5.0082   -1.3988   -1.5209 C   0  0  0  0  0  0  0  0  0  0  0  0
   -4.3529   -0.4469    0.5891 O   0  0  0  0  0  0  0  0  0  0  0  0
    5.5970   -4.2627   -2.8415 H   0  0  0  0  0  0  0  0  0  0  0  0
    5.5441   -4.9992   -1.1993 H   0  0  0  0  0  0  0  0  0  0  0  0
    4.1843   -5.2466   -2.3925 H   0  0  0  0  0  0  0  0  0  0  0  0
    6.7795   -3.3840   -0.8115 H   0  0  0  0  0  0  0  0  0  0  0  0
    7.8845   -1.6475    0.5334 H   0  0  0  0  0  0  0  0  0  0  0  0
    6.5881    0.3057    1.3670 H   0  0  0  0  0  0  0  0  0  0  0  0
    0.1354   -1.1203   -2.1600 H   0  0  0  0  0  0  0  0  0  0  0  0
    3.0590    3.5521    1.3723 H   0  0  0  0  0  0  0  0  0  0  0  0
    0.4217    4.0327    1.4460 H   0  0  0  0  0  0  0  0  0  0  0  0
   -0.7280    2.9463    2.2657 H   0  0  0  0  0  0  0  0  0  0  0  0
   -2.5401    3.9098    1.8778 H   0  0  0  0  0  0  0  0  0  0  0  0
   -0.8950    6.4281    0.4042 H   0  0  0  0  0  0  0  0  0  0  0  0
   -2.1407    6.2081   -0.8357 H   0  0  0  0  0  0  0  0  0  0  0  0
   -0.8098    6.7176   -2.4624 H   0  0  0  0  0  0  0  0  0  0  0  0
   -3.1933    2.5934   -0.0035 H   0  0  0  0  0  0  0  0  0  0  0  0
   -2.1604    2.8415   -1.4631 H   0  0  0  0  0  0  0  0  0  0  0  0
   -1.7912    0.6310   -1.2233 H   0  0  0  0  0  0  0  0  0  0  0  0
   -2.8297   -0.7087   -0.6818 H   0  0  0  0  0  0  0  0  0  0  0  0
   -1.7775   -2.3273    0.4459 H   0  0  0  0  0  0  0  0  0  0  0  0
   -1.8400   -1.4657    2.0330 H   0  0  0  0  0  0  0  0  0  0  0  0
   -4.1332   -2.2174    2.3928 H   0  0  0  0  0  0  0  0  0  0  0  0
   -2.6130   -3.8644    2.9950 H   0  0  0  0  0  0  0  0  0  0  0  0
   -2.0614   -4.0532    1.4334 H   0  0  0  0  0  0  0  0  0  0  0  0
   -5.2504   -3.5350    0.6810 H   0  0  0  0  0  0  0  0  0  0  0  0
   -3.2500   -4.2770   -0.2408 H   0  0  0  0  0  0  0  0  0  0  0  0
   -6.0428   -1.4840    0.3166 H   0  0  0  0  0  0  0  0  0  0  0  0
   -4.0468   -1.7592   -1.9610 H   0  0  0  0  0  0  0  0  0  0  0  0
   -5.8468   -2.0142   -1.8808 H   0  0  0  0  0  0  0  0  0  0  0  0
   -5.2202   -0.3450   -1.7585 H   0  0  0  0  0  0  0  0  0  0  0  0
  1  2  1  0
  2  3  1  0
  3  4  2  0
  4  5  1  0
  5  6  2  0
  6  7  1  0
  7  8  2  0
  8  9  1  0
  9 10  2  0
  9 11  1  0
 11 12  2  0
 12 13  1  0
 12 14  1  0
 14 15  2  0
 15 16  1  0
 16 17  1  0
 16 18  2  0
 18 19  1  0
 19 20  2  0
 15 21  1  0
 21 22  1  0
 22 23  1  1
 22 24  1  0
 24 25  2  0
 24 26  1  0
 26 27  1  0
 22 28  1  0
 28 29  1  0
 29 30  1  0
 30 31  1  0
 31 32  1  0
 32 33  1  0
 33 34  1  0
 33 35  1  0
 35 36  1  0
 35 37  1  0
 37 38  1  0
 37 39  1  0
  8  3  1  0
 18 11  1  0
 39 31  1  0
 19  7  1  0
 29 14  1  0
  1 40  1  0
  1 41  1  0
  1 42  1  0
  4 43  1  0
  5 44  1  0
  6 45  1  0
 13 46  1  0
 17 47  1  0
 21 48  1  0
 21 49  1  0
 23 50  1  0
 26 51  1  0
 26 52  1  0
 27 53  1  0
 28 54  1  0
 28 55  1  0
 29 56  1  6
 31 57  1  6
 32 58  1  0
 32 59  1  0
 33 60  1  1
 34 61  1  0
 34 62  1  0
 35 63  1  1
 36 64  1  0
 37 65  1  1
 38 66  1  0
 38 67  1  0
 38 68  1  0
M  END
$$$$
