@<TRIPOS>MOLECULE
*****
 68 72 0 0 0
SMALL
GASTEIGER

@<TRIPOS>ATOM
      1 C           4.9326   -4.5159   -1.9898 C.3     1  UNL1        0.0788
      2 O           4.1971   -3.4159   -1.5217 O.3     1  UNL1       -0.4944
      3 C           4.8679   -2.4518   -0.7595 C.ar    1  UNL1        0.1316
      4 C           6.1968   -2.5451   -0.4604 C.ar    1  UNL1       -0.0192
      5 C           6.8227   -1.5697    0.2965 C.ar    1  UNL1       -0.0576
      6 C           6.1441   -0.4801    0.7734 C.ar    1  UNL1       -0.0500
      7 C           4.7992   -0.3682    0.4812 C.ar    1  UNL1        0.0367
      8 C           4.1748   -1.3379   -0.2718 C.ar    1  UNL1        0.0748
      9 C           2.7438   -1.2226   -0.5847 C.2     1  UNL1        0.2016
     10 O           2.2123   -2.1309   -1.2757 O.2     1  UNL1       -0.2864
     11 C           1.9320   -0.1081   -0.1280 C.ar    1  UNL1        0.0784
     12 C           0.5898    0.0043   -0.4182 C.ar    1  UNL1        0.1345
     13 O          -0.0179   -0.9837   -1.1782 O.3     1  UNL1       -0.5057
     14 C          -0.1697    1.0678    0.0222 C.ar    1  UNL1        0.0302
     15 C           0.4566    2.0406    0.7773 C.ar    1  UNL1        0.0070
     16 C           1.7924    1.9287    1.0662 C.ar    1  UNL1        0.1322
     17 O           2.4819    2.8862    1.8291 O.3     1  UNL1       -0.5057
     18 C           2.5702    0.8550    0.6247 C.ar    1  UNL1        0.0782
     19 C           3.9973    0.7585    0.9479 C.2     1  UNL1        0.1982
     20 O           4.5689    1.6420    1.6348 O.2     1  UNL1       -0.2865
     21 C          -0.3003    3.2093    1.2775 C.3     1  UNL1        0.0123
     22 C          -1.3653    3.6537    0.3035 C.3     1  UNL1        0.1325
     23 O          -2.2678    4.4164    1.0761 O.3     1  UNL1       -0.3806
     24 C          -0.7071    4.5926   -0.6386 C.2     1  UNL1        0.1900
     25 O           0.1308    4.2117   -1.4371 O.2     1  UNL1       -0.2919
     26 C          -1.0671    6.0297   -0.6189 C.3     1  UNL1        0.1051
     27 O          -0.3421    6.7398   -1.5693 O.3     1  UNL1       -0.3874
     28 C          -2.1278    2.5786   -0.3604 C.3     1  UNL1        0.0141
     29 C          -1.6135    1.1922   -0.2835 C.3     1  UNL1        0.0934
     30 O          -2.2865    0.5636    0.7913 O.3     1  UNL1       -0.3432
     31 C          -2.9772   -0.5632    0.4063 C.3     1  UNL1        0.1618
     32 C          -2.4075   -1.7506    1.1301 C.3     1  UNL1        0.0161
     33 C          -3.5322   -2.6821    1.6033 C.3     1  UNL1        0.0382
     34 N          -2.9349   -3.9429    1.9992 N.3     1  UNL1       -0.3249
     35 C          -4.4271   -2.8660    0.3890 C.3     1  UNL1        0.0963
     36 O          -3.7473   -3.5041   -0.6476 O.3     1  UNL1       -0.3877
     37 C          -4.9820   -1.5408   -0.0029 C.3     1  UNL1        0.0861
     38 C          -5.0082   -1.3988   -1.5209 C.3     1  UNL1       -0.0361
     39 O          -4.3529   -0.4469    0.5891 O.3     1  UNL1       -0.3457
     40 H           5.5970   -4.2627   -2.8415 H       1  UNL1        0.0660
     41 H           5.5441   -4.9992   -1.1993 H       1  UNL1        0.0660
     42 H           4.1843   -5.2466   -2.3925 H       1  UNL1        0.0660
     43 H           6.7795   -3.3840   -0.8115 H       1  UNL1        0.0654
     44 H           7.8845   -1.6475    0.5334 H       1  UNL1        0.0619
     45 H           6.5881    0.3057    1.3670 H       1  UNL1        0.0625
     46 H           0.1354   -1.1203   -2.1600 H       1  UNL1        0.2922
     47 H           3.0590    3.5521    1.3723 H       1  UNL1        0.2922
     48 H           0.4217    4.0327    1.4460 H       1  UNL1        0.0347
     49 H          -0.7280    2.9463    2.2657 H       1  UNL1        0.0347
     50 H          -2.5401    3.9098    1.8778 H       1  UNL1        0.2108
     51 H          -0.8950    6.4281    0.4042 H       1  UNL1        0.0637
     52 H          -2.1407    6.2081   -0.8357 H       1  UNL1        0.0637
     53 H          -0.8098    6.7176   -2.4624 H       1  UNL1        0.2100
     54 H          -3.1933    2.5934   -0.0035 H       1  UNL1        0.0326
     55 H          -2.1604    2.8415   -1.4631 H       1  UNL1        0.0326
     56 H          -1.7912    0.6310   -1.2233 H       1  UNL1        0.0649
     57 H          -2.8297   -0.7087   -0.6818 H       1  UNL1        0.0910
     58 H          -1.7775   -2.3273    0.4459 H       1  UNL1        0.0330
     59 H          -1.8400   -1.4657    2.0330 H       1  UNL1        0.0330
     60 H          -4.1332   -2.2174    2.3928 H       1  UNL1        0.0486
     61 H          -2.6130   -3.8644    2.9950 H       1  UNL1        0.1186
     62 H          -2.0614   -4.0532    1.4334 H       1  UNL1        0.1186
     63 H          -5.2504   -3.5350    0.6810 H       1  UNL1        0.0635
     64 H          -3.2500   -4.2770   -0.2408 H       1  UNL1        0.2100
     65 H          -6.0428   -1.4840    0.3166 H       1  UNL1        0.0620
     66 H          -4.0468   -1.7592   -1.9610 H       1  UNL1        0.0255
     67 H          -5.8468   -2.0142   -1.8808 H       1  UNL1        0.0255
     68 H          -5.2202   -0.3450   -1.7585 H       1  UNL1        0.0255
@<TRIPOS>BOND
     1     1     2    1
     2     2     3    1
     3     3     4   ar
     4     4     5   ar
     5     5     6   ar
     6     6     7   ar
     7     7     8   ar
     8     8     9    1
     9     9    10    2
    10     9    11    1
    11    11    12   ar
    12    12    13    1
    13    12    14   ar
    14    14    15   ar
    15    15    16   ar
    16    16    17    1
    17    16    18   ar
    18    18    19    1
    19    19    20    2
    20    15    21    1
    21    21    22    1
    22    22    23    1
    23    22    24    1
    24    24    25    2
    25    24    26    1
    26    26    27    1
    27    22    28    1
    28    28    29    1
    29    29    30    1
    30    30    31    1
    31    31    32    1
    32    32    33    1
    33    33    34    1
    34    33    35    1
    35    35    36    1
    36    35    37    1
    37    37    38    1
    38    37    39    1
    39     8     3   ar
    40    18    11   ar
    41    39    31    1
    42    19     7    1
    43    29    14    1
    44     1    40    1
    45     1    41    1
    46     1    42    1
    47     4    43    1
    48     5    44    1
    49     6    45    1
    50    13    46    1
    51    17    47    1
    52    21    48    1
    53    21    49    1
    54    23    50    1
    55    26    51    1
    56    26    52    1
    57    27    53    1
    58    28    54    1
    59    28    55    1
    60    29    56    1
    61    31    57    1
    62    32    58    1
    63    32    59    1
    64    33    60    1
    65    34    61    1
    66    34    62    1
    67    35    63    1
    68    36    64    1
    69    37    65    1
    70    38    66    1
    71    38    67    1
    72    38    68    1
