@<TRIPOS>MOLECULE
*****
 52 55 0 0 0
SMALL
GASTEIGER

@<TRIPOS>ATOM
      1 C          -5.7378   -1.0562   -0.9151 C.3     1  UNL1       -0.0121
      2 N          -5.4637   -0.0094    0.0155 N.3     1  UNL1       -0.2923
      3 C          -4.2572   -0.1524    0.7762 C.3     1  UNL1        0.0334
      4 C          -3.0164   -0.0217   -0.0917 C.3     1  UNL1        0.1023
      5 O          -1.8455   -0.1538    0.6353 O.3     1  UNL1       -0.4901
      6 C          -0.5493   -0.1063    0.2262 C.ar    1  UNL1        0.1288
      7 C          -0.2890    0.1023   -1.1333 C.ar    1  UNL1       -0.0187
      8 C           0.9909    0.1626   -1.6255 C.ar    1  UNL1       -0.0505
      9 C           2.0869    0.0161   -0.7724 C.ar    1  UNL1       -0.0171
     10 C           3.4563    0.0750   -1.2818 C.ar    1  UNL1       -0.0174
     11 C           3.8208    0.8339   -2.3460 C.ar    1  UNL1       -0.0506
     12 C           5.1342    0.8769   -2.8046 C.ar    1  UNL1       -0.0191
     13 C           6.0743    0.1144   -2.1382 C.ar    1  UNL1        0.1238
     14 C           5.7053   -0.6534   -1.0613 C.ar    1  UNL1       -0.0019
     15 C           4.4092   -0.6764   -0.6332 C.ar    1  UNL1       -0.0473
     16 C           6.9025   -1.3663   -0.5246 C.3     1  UNL1        0.0101
     17 C           8.0192   -0.5721   -1.1443 C.3     1  UNL1        0.0937
     18 O           7.4575   -0.0683   -2.3360 O.3     1  UNL1       -0.4914
     19 C           1.8123   -0.1877    0.5556 C.ar    1  UNL1       -0.0423
     20 C           0.5181   -0.2488    1.0516 C.ar    1  UNL1        0.0309
     21 C           0.3376   -0.4692    2.4971 C.ar    1  UNL1        0.0228
     22 C          -0.7596   -0.5669    3.2751 C.ar    1  UNL1       -0.0468
     23 C          -0.6432   -0.7729    4.5944 C.ar    1  UNL1       -0.0541
     24 C           0.5915   -0.8772    5.1089 C.ar    1  UNL1       -0.0237
     25 S           1.6487   -0.6729    3.6478 S.2     1  UNL1       -0.0965
     26 C          -5.7311    1.3174   -0.4226 C.3     1  UNL1        0.0966
     27 C          -7.2045    1.5698   -0.5879 C.2     1  UNL1        0.3189
     28 O          -7.6615    2.6690   -0.9722 O.2     1  UNL1       -0.2496
     29 O          -8.1215    0.5592   -0.3088 O.3     1  UNL1       -0.4797
     30 H          -6.7797   -1.4329   -0.7524 H       1  UNL1        0.0391
     31 H          -5.5743   -0.7680   -1.9766 H       1  UNL1        0.0391
     32 H          -5.0472   -1.9126   -0.6714 H       1  UNL1        0.0391
     33 H          -4.2833    0.6728    1.5482 H       1  UNL1        0.0460
     34 H          -4.2742   -1.0856    1.3428 H       1  UNL1        0.0460
     35 H          -3.0505    1.0027   -0.5221 H       1  UNL1        0.0709
     36 H          -3.1154   -0.7321   -0.9327 H       1  UNL1        0.0709
     37 H          -1.1336    0.2140   -1.7787 H       1  UNL1        0.0654
     38 H           1.2119    0.3230   -2.6795 H       1  UNL1        0.0625
     39 H           3.1059    1.4366   -2.8820 H       1  UNL1        0.0625
     40 H           5.4539    1.4675   -3.6436 H       1  UNL1        0.0654
     41 H           4.1095   -1.2956    0.2360 H       1  UNL1        0.0627
     42 H           6.8636   -2.3998   -0.8956 H       1  UNL1        0.0347
     43 H           6.8987   -1.2915    0.5875 H       1  UNL1        0.0347
     44 H           8.9307   -1.1765   -1.3060 H       1  UNL1        0.0700
     45 H           8.2305    0.3013   -0.4899 H       1  UNL1        0.0700
     46 H           2.6450   -0.3052    1.2450 H       1  UNL1        0.0631
     47 H          -1.7762   -0.4722    2.8101 H       1  UNL1        0.0629
     48 H          -1.5620   -0.8573    5.2614 H       1  UNL1        0.0623
     49 H           0.9848   -1.0479    6.1679 H       1  UNL1        0.0693
     50 H          -5.2981    2.0300    0.3311 H       1  UNL1        0.0541
     51 H          -5.2746    1.5857   -1.3925 H       1  UNL1        0.0541
     52 H          -8.9506    0.4928   -0.8915 H       1  UNL1        0.2951
@<TRIPOS>BOND
     1     1     2    1
     2     2     3    1
     3     3     4    1
     4     4     5    1
     5     5     6    1
     6     6     7   ar
     7     7     8   ar
     8     8     9   ar
     9     9    10    1
    10    10    11   ar
    11    11    12   ar
    12    12    13   ar
    13    13    14   ar
    14    14    15   ar
    15    14    16    1
    16    16    17    1
    17    17    18    1
    18     9    19   ar
    19    19    20   ar
    20    20    21    1
    21    21    22   ar
    22    22    23   ar
    23    23    24   ar
    24    24    25   ar
    25     2    26    1
    26    26    27    1
    27    27    28    2
    28    27    29    1
    29    20     6   ar
    30    25    21   ar
    31    15    10   ar
    32    18    13    1
    33     1    30    1
    34     1    31    1
    35     1    32    1
    36     3    33    1
    37     3    34    1
    38     4    35    1
    39     4    36    1
    40     7    37    1
    41     8    38    1
    42    11    39    1
    43    12    40    1
    44    15    41    1
    45    16    42    1
    46    16    43    1
    47    17    44    1
    48    17    45    1
    49    19    46    1
    50    22    47    1
    51    23    48    1
    52    24    49    1
    53    26    50    1
    54    26    51    1
    55    29    52    1
