
     RDKit          3D

 52 55  0  0  0  0  0  0  0  0999 V2000
   -5.7378   -1.0562   -0.9151 C   0  0  0  0  0  0  0  0  0  0  0  0
   -5.4637   -0.0094    0.0155 N   0  0  0  0  0  0  0  0  0  0  0  0
   -4.2572   -0.1524    0.7762 C   0  0  0  0  0  0  0  0  0  0  0  0
   -3.0164   -0.0217   -0.0917 C   0  0  0  0  0  0  0  0  0  0  0  0
   -1.8455   -0.1538    0.6353 O   0  0  0  0  0  0  0  0  0  0  0  0
   -0.5493   -0.1063    0.2262 C   0  0  0  0  0  0  0  0  0  0  0  0
   -0.2890    0.1023   -1.1333 C   0  0  0  0  0  0  0  0  0  0  0  0
    0.9909    0.1626   -1.6255 C   0  0  0  0  0  0  0  0  0  0  0  0
    2.0869    0.0161   -0.7724 C   0  0  0  0  0  0  0  0  0  0  0  0
    3.4563    0.0750   -1.2818 C   0  0  0  0  0  0  0  0  0  0  0  0
    3.8208    0.8339   -2.3460 C   0  0  0  0  0  0  0  0  0  0  0  0
    5.1342    0.8769   -2.8046 C   0  0  0  0  0  0  0  0  0  0  0  0
    6.0743    0.1144   -2.1382 C   0  0  0  0  0  0  0  0  0  0  0  0
    5.7053   -0.6534   -1.0613 C   0  0  0  0  0  0  0  0  0  0  0  0
    4.4092   -0.6764   -0.6332 C   0  0  0  0  0  0  0  0  0  0  0  0
    6.9025   -1.3663   -0.5246 C   0  0  0  0  0  0  0  0  0  0  0  0
    8.0192   -0.5721   -1.1443 C   0  0  0  0  0  0  0  0  0  0  0  0
    7.4575   -0.0683   -2.3360 O   0  0  0  0  0  0  0  0  0  0  0  0
    1.8123   -0.1877    0.5556 C   0  0  0  0  0  0  0  0  0  0  0  0
    0.5181   -0.2488    1.0516 C   0  0  0  0  0  0  0  0  0  0  0  0
    0.3376   -0.4692    2.4971 C   0  0  0  0  0  0  0  0  0  0  0  0
   -0.7596   -0.5669    3.2751 C   0  0  0  0  0  0  0  0  0  0  0  0
   -0.6432   -0.7729    4.5944 C   0  0  0  0  0  0  0  0  0  0  0  0
    0.5915   -0.8772    5.1089 C   0  0  0  0  0  0  0  0  0  0  0  0
    1.6487   -0.6729    3.6478 S   0  0  0  0  0  0  0  0  0  0  0  0
   -5.7311    1.3174   -0.4226 C   0  0  0  0  0  0  0  0  0  0  0  0
   -7.2045    1.5698   -0.5879 C   0  0  0  0  0  0  0  0  0  0  0  0
   -7.6615    2.6690   -0.9722 O   0  0  0  0  0  0  0  0  0  0  0  0
   -8.1215    0.5592   -0.3088 O   0  0  0  0  0  0  0  0  0  0  0  0
   -6.7797   -1.4329   -0.7524 H   0  0  0  0  0  0  0  0  0  0  0  0
   -5.5743   -0.7680   -1.9766 H   0  0  0  0  0  0  0  0  0  0  0  0
   -5.0472   -1.9126   -0.6714 H   0  0  0  0  0  0  0  0  0  0  0  0
   -4.2833    0.6728    1.5482 H   0  0  0  0  0  0  0  0  0  0  0  0
   -4.2742   -1.0856    1.3428 H   0  0  0  0  0  0  0  0  0  0  0  0
   -3.0505    1.0027   -0.5221 H   0  0  0  0  0  0  0  0  0  0  0  0
   -3.1154   -0.7321   -0.9327 H   0  0  0  0  0  0  0  0  0  0  0  0
   -1.1336    0.2140   -1.7787 H   0  0  0  0  0  0  0  0  0  0  0  0
    1.2119    0.3230   -2.6795 H   0  0  0  0  0  0  0  0  0  0  0  0
    3.1059    1.4366   -2.8820 H   0  0  0  0  0  0  0  0  0  0  0  0
    5.4539    1.4675   -3.6436 H   0  0  0  0  0  0  0  0  0  0  0  0
    4.1095   -1.2956    0.2360 H   0  0  0  0  0  0  0  0  0  0  0  0
    6.8636   -2.3998   -0.8956 H   0  0  0  0  0  0  0  0  0  0  0  0
    6.8987   -1.2915    0.5875 H   0  0  0  0  0  0  0  0  0  0  0  0
    8.9307   -1.1765   -1.3060 H   0  0  0  0  0  0  0  0  0  0  0  0
    8.2305    0.3013   -0.4899 H   0  0  0  0  0  0  0  0  0  0  0  0
    2.6450   -0.3052    1.2450 H   0  0  0  0  0  0  0  0  0  0  0  0
   -1.7762   -0.4722    2.8101 H   0  0  0  0  0  0  0  0  0  0  0  0
   -1.5620   -0.8573    5.2614 H   0  0  0  0  0  0  0  0  0  0  0  0
    0.9848   -1.0479    6.1679 H   0  0  0  0  0  0  0  0  0  0  0  0
   -5.2981    2.0300    0.3311 H   0  0  0  0  0  0  0  0  0  0  0  0
   -5.2746    1.5857   -1.3925 H   0  0  0  0  0  0  0  0  0  0  0  0
   -8.9506    0.4928   -0.8915 H   0  0  0  0  0  0  0  0  0  0  0  0
  1  2  1  0
  2  3  1  0
  3  4  1  0
  4  5  1  0
  5  6  1  0
  6  7  2  0
  7  8  1  0
  8  9  2  0
  9 10  1  0
 10 11  2  0
 11 12  1  0
 12 13  2  0
 13 14  1  0
 14 15  2  0
 14 16  1  0
 16 17  1  0
 17 18  1  0
  9 19  1  0
 19 20  2  0
 20 21  1  0
 21 22  2  0
 22 23  1  0
 23 24  2  0
 24 25  1  0
  2 26  1  0
 26 27  1  0
 27 28  2  0
 27 29  1  0
 20  6  1  0
 25 21  1  0
 15 10  1  0
 18 13  1  0
  1 30  1  0
  1 31  1  0
  1 32  1  0
  3 33  1  0
  3 34  1  0
  4 35  1  0
  4 36  1  0
  7 37  1  0
  8 38  1  0
 11 39  1  0
 12 40  1  0
 15 41  1  0
 16 42  1  0
 16 43  1  0
 17 44  1  0
 17 45  1  0
 19 46  1  0
 22 47  1  0
 23 48  1  0
 24 49  1  0
 26 50  1  0
 26 51  1  0
 29 52  1  0
M  END
$$$$
