@<TRIPOS>MOLECULE
*****
 83 87 0 0 0
SMALL
GASTEIGER

@<TRIPOS>ATOM
      1 C           2.1907   -0.1481    2.4808 C.3     1  UNL1        0.0790
      2 O           3.3571   -0.5959    1.8301 O.3     1  UNL1       -0.4914
      3 C           3.2798   -1.2354    0.6157 C.ar    1  UNL1        0.1623
      4 C           4.4182   -1.6966   -0.0644 C.ar    1  UNL1        0.1639
      5 O           5.5495   -1.4269    0.6196 O.3     1  UNL1       -0.4882
      6 C           6.8626   -1.6838    0.2789 C.3     1  UNL1        0.0909
      7 C           7.2666   -0.9165   -0.9523 C.3     1  UNL1       -0.0058
      8 C           7.0868    0.5625   -0.5995 C.3     1  UNL1        0.0020
      9 N           7.9584    0.8352    0.5313 N.3     1  UNL1       -0.3022
     10 C           9.3592    0.7536    0.1411 C.3     1  UNL1       -0.0011
     11 C          10.1845    1.7530    0.8982 C.3     1  UNL1       -0.0402
     12 C           9.7206    1.8988    2.3328 C.3     1  UNL1       -0.0507
     13 C           8.2779    2.3331    2.3693 C.3     1  UNL1       -0.0402
     14 C           7.6588    2.1742    1.0105 C.3     1  UNL1       -0.0011
     15 C           4.1395   -2.3026   -1.2466 C.ar    1  UNL1        0.0098
     16 C           2.9061   -2.4990   -1.8180 C.ar    1  UNL1        0.0797
     17 N           2.7918   -3.1180   -3.0050 N.ar    1  UNL1       -0.2352
     18 C           1.5287   -3.2638   -3.4911 C.ar    1  UNL1        0.1187
     19 N           0.4712   -2.8030   -2.7976 N.ar    1  UNL1       -0.2201
     20 C           0.5660   -2.1836   -1.6131 C.ar    1  UNL1        0.1324
     21 N          -0.6338   -1.7576   -0.9822 N.pl3   1  UNL1       -0.3116
     22 C          -1.1919   -2.2241    0.2703 C.3     1  UNL1        0.0294
     23 C          -1.9175   -1.0599    0.9615 C.3     1  UNL1        0.0319
     24 N          -2.8924   -0.6085   -0.0130 N.am    1  UNL1       -0.2824
     25 C          -2.5631   -0.2644   -1.3583 C.3     1  UNL1        0.0319
     26 C          -1.2255   -0.7472   -1.8169 C.3     1  UNL1        0.0294
     27 C          -4.2197   -0.5303    0.4636 C.2     1  UNL1        0.3065
     28 O          -4.5407   -0.8249    1.6421 O.2     1  UNL1       -0.2523
     29 N          -5.2358   -0.0998   -0.4304 N.am    1  UNL1       -0.2693
     30 C          -6.6374    0.1208   -0.3981 C.ar    1  UNL1        0.0350
     31 C          -7.0629    1.3820   -0.0409 C.ar    1  UNL1       -0.0370
     32 C          -8.3969    1.7232    0.0252 C.ar    1  UNL1       -0.0182
     33 C          -9.3355    0.7581   -0.2798 C.ar    1  UNL1        0.1210
     34 O         -10.7049    0.8364   -0.2918 O.3     1  UNL1       -0.4894
     35 C         -11.4980    1.9405    0.0106 C.3     1  UNL1        0.0946
     36 C         -12.3148    2.4382   -1.1642 C.3     1  UNL1       -0.0281
     37 C         -12.4141    1.6988    1.1948 C.3     1  UNL1       -0.0281
     38 C          -8.9091   -0.5245   -0.6431 C.ar    1  UNL1       -0.0182
     39 C          -7.5615   -0.8591   -0.7070 C.ar    1  UNL1       -0.0370
     40 C           1.8284   -2.0248   -1.1040 C.ar    1  UNL1        0.0440
     41 C           1.9942   -1.3934    0.1084 C.ar    1  UNL1       -0.0038
     42 H           1.6059    0.5850    1.8811 H       1  UNL1        0.0660
     43 H           1.5130   -1.0029    2.7127 H       1  UNL1        0.0660
     44 H           2.5318    0.3698    3.4079 H       1  UNL1        0.0660
     45 H           7.0108   -2.7930    0.0709 H       1  UNL1        0.0697
     46 H           7.5547   -1.4140    1.1297 H       1  UNL1        0.0697
     47 H           6.6573   -1.1754   -1.8164 H       1  UNL1        0.0310
     48 H           8.3594   -1.1234   -1.1350 H       1  UNL1        0.0310
     49 H           7.2799    1.2265   -1.4511 H       1  UNL1        0.0428
     50 H           6.0361    0.6493   -0.2551 H       1  UNL1        0.0428
     51 H           9.4452    0.9811   -0.9542 H       1  UNL1        0.0426
     52 H           9.6891   -0.2974    0.3061 H       1  UNL1        0.0426
     53 H          11.2450    1.4397    0.9087 H       1  UNL1        0.0278
     54 H          10.0600    2.7495    0.4222 H       1  UNL1        0.0278
     55 H           9.9300    0.9868    2.9247 H       1  UNL1        0.0266
     56 H          10.3354    2.7111    2.7863 H       1  UNL1        0.0266
     57 H           7.6574    1.7618    3.0925 H       1  UNL1        0.0278
     58 H           8.1948    3.4182    2.6421 H       1  UNL1        0.0278
     59 H           6.5591    2.2350    1.1248 H       1  UNL1        0.0426
     60 H           8.0319    2.9220    0.2805 H       1  UNL1        0.0426
     61 H           4.9745   -2.6888   -1.7915 H       1  UNL1        0.0677
     62 H           1.3412   -3.7490   -4.4400 H       1  UNL1        0.1048
     63 H          -0.4939   -2.7472    0.9178 H       1  UNL1        0.0480
     64 H          -2.0364   -2.9120   -0.0371 H       1  UNL1        0.0480
     65 H          -2.3556   -1.4762    1.8746 H       1  UNL1        0.0480
     66 H          -1.1550   -0.2765    1.1883 H       1  UNL1        0.0480
     67 H          -2.6243    0.8333   -1.5549 H       1  UNL1        0.0480
     68 H          -3.3507   -0.7603   -2.0056 H       1  UNL1        0.0480
     69 H          -1.3236   -1.1164   -2.8743 H       1  UNL1        0.0480
     70 H          -0.5165    0.1193   -1.7940 H       1  UNL1        0.0480
     71 H          -5.0799    0.1689   -1.4303 H       1  UNL1        0.1564
     72 H          -6.3367    2.1689    0.2072 H       1  UNL1        0.0637
     73 H          -8.8087    2.6660    0.2888 H       1  UNL1        0.0655
     74 H         -10.8344    2.7862    0.2891 H       1  UNL1        0.0727
     75 H         -13.4017    2.2836   -0.9510 H       1  UNL1        0.0265
     76 H         -12.0929    1.8515   -2.0802 H       1  UNL1        0.0265
     77 H         -12.2216    3.5402   -1.3159 H       1  UNL1        0.0265
     78 H         -12.0232    2.1991    2.1089 H       1  UNL1        0.0265
     79 H         -13.4251    2.1013    1.0467 H       1  UNL1        0.0265
     80 H         -12.4441    0.6028    1.4553 H       1  UNL1        0.0265
     81 H          -9.5494   -1.3695   -0.9053 H       1  UNL1        0.0655
     82 H          -7.1983   -1.8339   -0.9819 H       1  UNL1        0.0637
     83 H           1.1185   -1.0376    0.6231 H       1  UNL1        0.0663
@<TRIPOS>BOND
     1     1     2    1
     2     2     3    1
     3     3     4   ar
     4     4     5    1
     5     5     6    1
     6     6     7    1
     7     7     8    1
     8     8     9    1
     9     9    10    1
    10    10    11    1
    11    11    12    1
    12    12    13    1
    13    13    14    1
    14     4    15   ar
    15    15    16   ar
    16    16    17   ar
    17    17    18   ar
    18    18    19   ar
    19    19    20   ar
    20    20    21    1
    21    21    22    1
    22    22    23    1
    23    23    24    1
    24    24    25    1
    25    25    26    1
    26    24    27   am
    27    27    28    2
    28    27    29   am
    29    29    30    1
    30    30    31   ar
    31    31    32   ar
    32    32    33   ar
    33    33    34    1
    34    34    35    1
    35    35    36    1
    36    35    37    1
    37    33    38   ar
    38    38    39   ar
    39    20    40   ar
    40    40    41   ar
    41    41     3   ar
    42    14     9    1
    43    40    16   ar
    44    26    21    1
    45    39    30   ar
    46     1    42    1
    47     1    43    1
    48     1    44    1
    49     6    45    1
    50     6    46    1
    51     7    47    1
    52     7    48    1
    53     8    49    1
    54     8    50    1
    55    10    51    1
    56    10    52    1
    57    11    53    1
    58    11    54    1
    59    12    55    1
    60    12    56    1
    61    13    57    1
    62    13    58    1
    63    14    59    1
    64    14    60    1
    65    15    61    1
    66    18    62    1
    67    22    63    1
    68    22    64    1
    69    23    65    1
    70    23    66    1
    71    25    67    1
    72    25    68    1
    73    26    69    1
    74    26    70    1
    75    29    71    1
    76    31    72    1
    77    32    73    1
    78    35    74    1
    79    36    75    1
    80    36    76    1
    81    36    77    1
    82    37    78    1
    83    37    79    1
    84    37    80    1
    85    38    81    1
    86    39    82    1
    87    41    83    1
