@<TRIPOS>MOLECULE
*****
 76 80 0 0 0
SMALL
GASTEIGER

@<TRIPOS>ATOM
      1 C          -9.3387   -2.8910   -2.4481 C.3     1  UNL1       -0.0306
      2 C          -9.4675   -3.2272   -0.9738 C.3     1  UNL1        0.0885
      3 O          -8.3500   -2.6453   -0.3089 O.3     1  UNL1       -0.4744
      4 C          -8.1262   -1.2726   -0.3504 C.ar    1  UNL1        0.2555
      5 N          -8.9089   -0.3710   -1.0009 N.ar    1  UNL1       -0.1317
      6 N          -8.4340    0.8487   -0.8523 N.ar    1  UNL1       -0.2692
      7 C          -9.0220    2.0585   -1.4082 C.3     1  UNL1        0.0304
      8 C          -7.3063    0.7894   -0.0876 C.ar    1  UNL1        0.0503
      9 C          -7.1234   -0.5335    0.2199 C.ar    1  UNL1        0.1152
     10 N          -6.0808   -1.0686    1.0183 N.pl3   1  UNL1       -0.2782
     11 C          -5.0814   -0.1994    1.5521 C.ar    1  UNL1        0.2202
     12 N          -5.3859    0.6342    2.5848 N.ar    1  UNL1       -0.2224
     13 C          -4.4909    1.4638    3.1357 C.ar    1  UNL1        0.0361
     14 C          -3.1991    1.4973    2.6596 C.ar    1  UNL1       -0.0062
     15 C          -2.1584    2.3886    3.2199 C.3     1  UNL1       -0.0362
     16 C          -2.8675    0.6490    1.6009 C.ar    1  UNL1        0.0809
     17 C          -1.4892    0.6986    1.1398 C.ar    1  UNL1        0.0258
     18 C          -0.7758    1.8017    0.6931 C.ar    1  UNL1        0.0120
     19 N           0.4760    1.4003    0.3761 N.ar    1  UNL1       -0.3586
     20 C           0.6259    0.0825    0.5916 C.ar    1  UNL1        0.0686
     21 C           1.6722   -0.7885    0.4415 C.ar    1  UNL1        0.0576
     22 N           2.9573   -0.3699   -0.0375 N.am    1  UNL1       -0.2825
     23 C           3.9324    0.1316    0.8732 C.2     1  UNL1        0.2342
     24 O           3.5528    0.1679    2.0942 O.2     1  UNL1       -0.2738
     25 C           5.2895    0.5892    0.4863 C.3     1  UNL1        0.0850
     26 C           6.3041    0.2235    1.5529 C.3     1  UNL1       -0.0409
     27 N           5.6836    0.3063   -0.8369 N.3     1  UNL1       -0.2866
     28 C           5.8847   -1.0558   -1.2078 C.3     1  UNL1        0.0127
     29 C           7.3687   -1.2836   -1.4749 C.3     1  UNL1        0.0115
     30 N           8.1949   -0.4129   -0.7014 N.3     1  UNL1       -0.3027
     31 C           9.5757   -0.7964   -0.8511 C.3     1  UNL1       -0.0127
     32 C           8.0218    0.9539   -1.1604 C.3     1  UNL1        0.0140
     33 C           6.5595    1.2352   -1.4711 C.3     1  UNL1        0.0211
     34 C           6.3442    1.2695   -2.9814 C.3     1  UNL1       -0.0483
     35 C           1.4787   -2.1082    0.7710 C.ar    1  UNL1       -0.0384
     36 C           0.2671   -2.5793    1.2477 C.ar    1  UNL1       -0.0593
     37 C          -0.7640   -1.6772    1.3886 C.ar    1  UNL1       -0.0518
     38 C          -0.6043   -0.3614    1.0698 C.ar    1  UNL1        0.0107
     39 N          -3.8175   -0.1563    1.0976 N.ar    1  UNL1       -0.2139
     40 H          -9.8815   -3.6933   -3.0002 H       1  UNL1        0.0262
     41 H          -9.8247   -1.9051   -2.5939 H       1  UNL1        0.0262
     42 H          -8.2908   -2.8838   -2.7645 H       1  UNL1        0.0262
     43 H          -9.4290   -4.3106   -0.7991 H       1  UNL1        0.0694
     44 H         -10.4010   -2.7826   -0.5478 H       1  UNL1        0.0694
     45 H          -8.9561    2.8755   -0.6310 H       1  UNL1        0.0473
     46 H          -8.4692    2.4170   -2.2857 H       1  UNL1        0.0473
     47 H         -10.0928    1.8414   -1.6480 H       1  UNL1        0.0473
     48 H          -6.7237    1.6584    0.1839 H       1  UNL1        0.0846
     49 H          -6.0118   -2.0960    1.2370 H       1  UNL1        0.1552
     50 H          -4.7401    2.1297    3.9614 H       1  UNL1        0.0834
     51 H          -2.3589    2.5899    4.3098 H       1  UNL1        0.0279
     52 H          -2.1027    3.3772    2.7446 H       1  UNL1        0.0279
     53 H          -1.1454    1.9254    3.1708 H       1  UNL1        0.0279
     54 H          -1.1642    2.8057    0.6158 H       1  UNL1        0.0814
     55 H           1.2449    2.0045    0.0107 H       1  UNL1        0.1654
     56 H           3.2304   -0.4096   -1.0320 H       1  UNL1        0.1549
     57 H           5.2339    1.7207    0.5515 H       1  UNL1        0.0556
     58 H           7.2048    0.8651    1.5524 H       1  UNL1        0.0249
     59 H           5.7862    0.4768    2.5304 H       1  UNL1        0.0249
     60 H           6.6196   -0.8138    1.5472 H       1  UNL1        0.0249
     61 H           5.3724   -1.2293   -2.1768 H       1  UNL1        0.0439
     62 H           5.5476   -1.7990   -0.4949 H       1  UNL1        0.0439
     63 H           7.6030   -2.3316   -1.1884 H       1  UNL1        0.0439
     64 H           7.5884   -1.2070   -2.5614 H       1  UNL1        0.0439
     65 H           9.7879   -1.1079   -1.8900 H       1  UNL1        0.0391
     66 H           9.7850   -1.6261   -0.1307 H       1  UNL1        0.0391
     67 H          10.2328    0.0501   -0.5770 H       1  UNL1        0.0391
     68 H           8.5853    1.1145   -2.1011 H       1  UNL1        0.0442
     69 H           8.3822    1.6354   -0.3774 H       1  UNL1        0.0442
     70 H           6.3394    2.2483   -1.0892 H       1  UNL1        0.0473
     71 H           7.3617    1.3617   -3.4428 H       1  UNL1        0.0245
     72 H           5.7745    2.1458   -3.3211 H       1  UNL1        0.0245
     73 H           5.8087    0.3766   -3.3459 H       1  UNL1        0.0245
     74 H           2.3129   -2.8048    0.6486 H       1  UNL1        0.0637
     75 H           0.1084   -3.6016    1.5047 H       1  UNL1        0.0618
     76 H          -1.7154   -2.0660    1.7679 H       1  UNL1        0.0624
@<TRIPOS>BOND
     1     1     2    1
     2     2     3    1
     3     3     4    1
     4     4     5   ar
     5     5     6   ar
     6     6     7    1
     7     6     8   ar
     8     8     9   ar
     9     9    10    1
    10    10    11    1
    11    11    12   ar
    12    12    13   ar
    13    13    14   ar
    14    14    15    1
    15    14    16   ar
    16    16    17    1
    17    17    18   ar
    18    18    19   ar
    19    19    20   ar
    20    20    21   ar
    21    21    22    1
    22    22    23   am
    23    23    24    2
    24    23    25    1
    25    25    26    1
    26    25    27    1
    27    27    28    1
    28    28    29    1
    29    29    30    1
    30    30    31    1
    31    30    32    1
    32    32    33    1
    33    33    34    1
    34    21    35   ar
    35    35    36   ar
    36    36    37   ar
    37    37    38   ar
    38    16    39   ar
    39     9     4   ar
    40    39    11   ar
    41    38    17   ar
    42    38    20   ar
    43    33    27    1
    44     1    40    1
    45     1    41    1
    46     1    42    1
    47     2    43    1
    48     2    44    1
    49     7    45    1
    50     7    46    1
    51     7    47    1
    52     8    48    1
    53    10    49    1
    54    13    50    1
    55    15    51    1
    56    15    52    1
    57    15    53    1
    58    18    54    1
    59    19    55    1
    60    22    56    1
    61    25    57    1
    62    26    58    1
    63    26    59    1
    64    26    60    1
    65    28    61    1
    66    28    62    1
    67    29    63    1
    68    29    64    1
    69    31    65    1
    70    31    66    1
    71    31    67    1
    72    32    68    1
    73    32    69    1
    74    33    70    1
    75    34    71    1
    76    34    72    1
    77    34    73    1
    78    35    74    1
    79    36    75    1
    80    37    76    1
