@<TRIPOS>MOLECULE
*****
 50 53 0 0 0
SMALL
GASTEIGER

@<TRIPOS>ATOM
      1 C           1.5056   -1.0687   -0.3937 C.3     1  UNL1        0.0093
      2 N           1.7289    0.3291   -0.0831 N.3     1  UNL1       -0.1763
      3 C           0.7428    1.2141   -0.6384 C.3     1  UNL1        0.0359
      4 C           0.0281    2.0202    0.4250 C.3     1  UNL1       -0.0313
      5 C          -0.8873    1.1513    1.2571 C.3     1  UNL1       -0.0242
      6 C          -1.9078    0.5559    0.3461 C.ar    1  UNL1       -0.0219
      7 C          -1.5661    0.2931   -0.9394 C.ar    1  UNL1       -0.0172
      8 C          -2.6817   -0.2494   -1.5722 C.ar    1  UNL1        0.0498
      9 C          -2.9383   -0.7002   -2.8447 C.ar    1  UNL1       -0.0375
     10 C          -4.1627   -1.2003   -3.2122 C.ar    1  UNL1       -0.0584
     11 C          -5.1713   -1.2532   -2.2741 C.ar    1  UNL1       -0.0451
     12 C          -4.8977   -0.7990   -1.0086 C.ar    1  UNL1        0.0101
     13 N          -3.6705   -0.3051   -0.6659 N.ar    1  UNL1       -0.3190
     14 C          -3.2288    0.1776    0.5091 C.ar    1  UNL1        0.0378
     15 C          -4.0055    0.2870    1.7520 C.3     1  UNL1        0.0857
     16 C          -4.4317    1.6863    2.0281 C.2     1  UNL1        0.3105
     17 O          -4.1280    2.6160    1.2479 O.2     1  UNL1       -0.2506
     18 O          -5.1690    1.9290    3.1656 O.3     1  UNL1       -0.4804
     19 C          -0.2392    0.5483   -1.5323 C.3     1  UNL1       -0.0081
     20 S           3.3251    0.7225   -0.5438 S.O2    1  UNL1        0.0609
     21 O           3.5601    2.2041   -0.4308 O.2     1  UNL1       -0.1528
     22 O           3.4570    0.3862   -2.0200 O.2     1  UNL1       -0.1528
     23 C           4.5359   -0.1717    0.2928 C.ar    1  UNL1        0.1056
     24 C           5.0384    0.3295    1.4722 C.ar    1  UNL1       -0.0326
     25 C           6.0163   -0.3789    2.1590 C.ar    1  UNL1       -0.0246
     26 C           6.5007   -1.5883    1.6792 C.ar    1  UNL1        0.1235
     27 F           7.4476   -2.2876    2.3308 F       1  UNL1       -0.2055
     28 C           5.9803   -2.0644    0.4989 C.ar    1  UNL1       -0.0246
     29 C           5.0165   -1.3619   -0.1738 C.ar    1  UNL1       -0.0326
     30 H           1.9225   -1.3551   -1.3732 H       1  UNL1        0.0408
     31 H           2.0859   -1.6469    0.3840 H       1  UNL1        0.0408
     32 H           0.4547   -1.3727   -0.2417 H       1  UNL1        0.0408
     33 H           1.3183    1.9604   -1.2537 H       1  UNL1        0.0483
     34 H           0.7330    2.5052    1.1043 H       1  UNL1        0.0284
     35 H          -0.5578    2.8097   -0.0777 H       1  UNL1        0.0284
     36 H          -0.2986    0.4055    1.7960 H       1  UNL1        0.0314
     37 H          -1.4372    1.8137    1.9520 H       1  UNL1        0.0314
     38 H          -2.1355   -0.6556   -3.5835 H       1  UNL1        0.0638
     39 H          -4.4012   -1.5628   -4.2003 H       1  UNL1        0.0619
     40 H          -6.1506   -1.6506   -2.5593 H       1  UNL1        0.0632
     41 H          -5.6757   -0.8338   -0.2638 H       1  UNL1        0.0813
     42 H          -4.9191   -0.3360    1.6641 H       1  UNL1        0.0441
     43 H          -3.4273   -0.1046    2.6257 H       1  UNL1        0.0441
     44 H          -5.1778    2.8727    3.5785 H       1  UNL1        0.2951
     45 H           0.1655   -0.3750   -1.9941 H       1  UNL1        0.0330
     46 H          -0.4386    1.2368   -2.4052 H       1  UNL1        0.0330
     47 H           4.7145    1.2631    1.9124 H       1  UNL1        0.0638
     48 H           6.4420   -0.0270    3.0892 H       1  UNL1        0.0647
     49 H           6.3542   -3.0223    0.1051 H       1  UNL1        0.0647
     50 H           4.6307   -1.7578   -1.0896 H       1  UNL1        0.0638
@<TRIPOS>BOND
     1     1     2    1
     2     2     3    1
     3     3     4    1
     4     4     5    1
     5     5     6    1
     6     6     7   ar
     7     7     8   ar
     8     8     9   ar
     9     9    10   ar
    10    10    11   ar
    11    11    12   ar
    12    12    13   ar
    13    13    14   ar
    14    14    15    1
    15    15    16    1
    16    16    17    2
    17    16    18    1
    18     7    19    1
    19     2    20    1
    20    20    21    2
    21    20    22    2
    22    20    23    1
    23    23    24   ar
    24    24    25   ar
    25    25    26   ar
    26    26    27    1
    27    26    28   ar
    28    28    29   ar
    29    19     3    1
    30    29    23   ar
    31    14     6   ar
    32    13     8   ar
    33     1    30    1
    34     1    31    1
    35     1    32    1
    36     3    33    1
    37     4    34    1
    38     4    35    1
    39     5    36    1
    40     5    37    1
    41     9    38    1
    42    10    39    1
    43    11    40    1
    44    12    41    1
    45    15    42    1
    46    15    43    1
    47    18    44    1
    48    19    45    1
    49    19    46    1
    50    24    47    1
    51    25    48    1
    52    28    49    1
    53    29    50    1
