@<TRIPOS>MOLECULE
*****
 49 51 0 0 0
SMALL
GASTEIGER

@<TRIPOS>ATOM
      1 C          -6.1529    2.5130    1.5670 C.3     1  UNL1        0.0004
      2 N          -5.3804    1.4104    1.1437 N.am    1  UNL1       -0.3144
      3 C          -5.4731    0.0153    1.4915 C.2     1  UNL1        0.2439
      4 O          -6.2243   -0.2955    2.3684 O.2     1  UNL1       -0.2702
      5 C          -4.5775   -0.8079    0.6567 C.ar    1  UNL1        0.0387
      6 C          -5.1402   -1.1924   -0.5886 C.ar    1  UNL1       -0.0493
      7 C          -4.2965   -1.4996   -1.5928 C.ar    1  UNL1       -0.0562
      8 C          -2.9281   -1.4341   -1.3926 C.ar    1  UNL1       -0.0265
      9 C          -2.1509   -1.5270   -2.6405 C.3     1  UNL1       -0.0377
     10 C          -2.3918   -1.1045   -0.2558 C.ar    1  UNL1        0.0533
     11 N          -0.9608   -0.8929    0.0143 N.ar    1  UNL1       -0.2801
     12 C          -0.0208   -1.7030   -0.4070 C.ar    1  UNL1        0.0276
     13 C          -0.3301   -3.0932   -0.9041 C.3     1  UNL1       -0.0237
     14 C           1.3067   -1.3255   -0.2687 C.ar    1  UNL1        0.0009
     15 C           1.5599   -0.1158    0.2989 C.ar    1  UNL1        0.1418
     16 O           2.7370    0.4629    0.4724 O.3     1  UNL1       -0.4859
     17 C           3.9230    0.7349    0.4875 C.3     1  UNL1        0.1173
     18 C           5.2819    1.0447    0.5058 C.ar    1  UNL1        0.0250
     19 C           6.1991   -0.0256    0.4109 C.ar    1  UNL1       -0.0499
     20 C           7.4885    0.1311   -0.0261 C.ar    1  UNL1       -0.0259
     21 C           7.8994    1.4382   -0.3325 C.ar    1  UNL1        0.1261
     22 F           9.2262    1.6643   -0.7383 F       1  UNL1       -0.2054
     23 C           7.1234    2.4767   -0.2288 C.ar    1  UNL1        0.0092
     24 C           5.7383    2.3351    0.1879 C.ar    1  UNL1        0.1325
     25 F           4.9092    3.3564    0.3085 F       1  UNL1       -0.2050
     26 C           0.5135    0.7702    0.7613 C.ar    1  UNL1        0.1241
     27 BR          0.9748    2.3163    1.6580 Br      1  UNL1       -0.0409
     28 C          -0.7154    0.3256    0.5970 C.ar    1  UNL1        0.2735
     29 O          -1.5869    0.9749    0.9787 O.2     1  UNL1       -0.2660
     30 C          -3.2299   -0.7696    0.8571 C.ar    1  UNL1       -0.0254
     31 H          -7.1412    2.5428    1.0118 H       1  UNL1        0.0426
     32 H          -5.6098    3.4385    1.1041 H       1  UNL1        0.0426
     33 H          -6.3336    2.6347    2.6042 H       1  UNL1        0.0426
     34 H          -4.5248    1.6252    0.4190 H       1  UNL1        0.1487
     35 H          -6.2271   -1.2457   -0.6339 H       1  UNL1        0.0625
     36 H          -4.7696   -1.8838   -2.5162 H       1  UNL1        0.0621
     37 H          -2.6765   -0.8481   -3.4137 H       1  UNL1        0.0278
     38 H          -1.2151   -0.9451   -2.4914 H       1  UNL1        0.0278
     39 H          -2.1522   -2.4642   -2.9980 H       1  UNL1        0.0278
     40 H           0.3486   -3.7076   -0.2475 H       1  UNL1        0.0292
     41 H          -0.1204   -3.1762   -1.8800 H       1  UNL1        0.0292
     42 H          -1.3749   -3.4085   -0.4908 H       1  UNL1        0.0292
     43 H           2.0869   -2.0315   -0.6408 H       1  UNL1        0.0672
     44 H           4.1118    0.1853    1.7147 H       1  UNL1        0.0749
     45 H           3.6589    1.8944    1.2753 H       1  UNL1        0.0749
     46 H           5.8045   -1.0907    0.5946 H       1  UNL1        0.0623
     47 H           8.1674   -0.6651   -0.1141 H       1  UNL1        0.0646
     48 H           7.4473    3.5115   -0.4676 H       1  UNL1        0.0675
     49 H          -2.8015   -0.5491    1.7802 H       1  UNL1        0.0646
@<TRIPOS>BOND
     1     1     2    1
     2     2     3   am
     3     3     4    2
     4     3     5    1
     5     5     6   ar
     6     6     7   ar
     7     7     8   ar
     8     8     9    1
     9     8    10   ar
    10    10    11    1
    11    11    12   ar
    12    12    13    1
    13    12    14   ar
    14    14    15   ar
    15    15    16    1
    16    16    17    1
    17    17    18    1
    18    18    19   ar
    19    19    20   ar
    20    20    21   ar
    21    21    22    1
    22    21    23   ar
    23    23    24   ar
    24    24    25    1
    25    15    26   ar
    26    26    27    1
    27    26    28   ar
    28    28    29    2
    29    10    30   ar
    30    30     5   ar
    31    28    11   ar
    32    24    18   ar
    33     1    31    1
    34     1    32    1
    35     1    33    1
    36     2    34    1
    37     6    35    1
    38     7    36    1
    39     9    37    1
    40     9    38    1
    41     9    39    1
    42    13    40    1
    43    13    41    1
    44    13    42    1
    45    14    43    1
    46    17    44    1
    47    17    45    1
    48    19    46    1
    49    20    47    1
    50    23    48    1
    51    30    49    1
