
     RDKit          3D

 49 51  0  0  0  0  0  0  0  0999 V2000
   -6.1529    2.5130    1.5670 C   0  0  0  0  0  0  0  0  0  0  0  0
   -5.3804    1.4104    1.1437 N   0  0  0  0  0  0  0  0  0  0  0  0
   -5.4731    0.0153    1.4915 C   0  0  0  0  0  0  0  0  0  0  0  0
   -6.2243   -0.2955    2.3684 O   0  0  0  0  0  0  0  0  0  0  0  0
   -4.5775   -0.8079    0.6567 C   0  0  0  0  0  0  0  0  0  0  0  0
   -5.1402   -1.1924   -0.5886 C   0  0  0  0  0  0  0  0  0  0  0  0
   -4.2965   -1.4996   -1.5928 C   0  0  0  0  0  0  0  0  0  0  0  0
   -2.9281   -1.4341   -1.3926 C   0  0  0  0  0  0  0  0  0  0  0  0
   -2.1509   -1.5270   -2.6405 C   0  0  0  0  0  0  0  0  0  0  0  0
   -2.3918   -1.1045   -0.2558 C   0  0  0  0  0  0  0  0  0  0  0  0
   -0.9608   -0.8929    0.0143 N   0  0  0  0  0  0  0  0  0  0  0  0
   -0.0208   -1.7030   -0.4070 C   0  0  0  0  0  0  0  0  0  0  0  0
   -0.3301   -3.0932   -0.9041 C   0  0  0  0  0  0  0  0  0  0  0  0
    1.3067   -1.3255   -0.2687 C   0  0  0  0  0  0  0  0  0  0  0  0
    1.5599   -0.1158    0.2989 C   0  0  0  0  0  0  0  0  0  0  0  0
    2.7370    0.4629    0.4724 O   0  0  0  0  0  0  0  0  0  0  0  0
    3.9230    0.7349    0.4875 C   0  0  0  0  0  0  0  0  0  0  0  0
    5.2819    1.0447    0.5058 C   0  0  0  0  0  0  0  0  0  0  0  0
    6.1991   -0.0256    0.4109 C   0  0  0  0  0  0  0  0  0  0  0  0
    7.4885    0.1311   -0.0261 C   0  0  0  0  0  0  0  0  0  0  0  0
    7.8994    1.4382   -0.3325 C   0  0  0  0  0  0  0  0  0  0  0  0
    9.2262    1.6643   -0.7383 F   0  0  0  0  0  0  0  0  0  0  0  0
    7.1234    2.4767   -0.2288 C   0  0  0  0  0  0  0  0  0  0  0  0
    5.7383    2.3351    0.1879 C   0  0  0  0  0  0  0  0  0  0  0  0
    4.9092    3.3564    0.3085 F   0  0  0  0  0  0  0  0  0  0  0  0
    0.5135    0.7702    0.7613 C   0  0  0  0  0  0  0  0  0  0  0  0
    0.9748    2.3163    1.6580 Br  0  0  0  0  0  0  0  0  0  0  0  0
   -0.7154    0.3256    0.5970 C   0  0  0  0  0  0  0  0  0  0  0  0
   -1.5869    0.9749    0.9787 O   0  0  0  0  0  0  0  0  0  0  0  0
   -3.2299   -0.7696    0.8571 C   0  0  0  0  0  0  0  0  0  0  0  0
   -7.1412    2.5428    1.0118 H   0  0  0  0  0  0  0  0  0  0  0  0
   -5.6098    3.4385    1.1041 H   0  0  0  0  0  0  0  0  0  0  0  0
   -6.3336    2.6347    2.6042 H   0  0  0  0  0  0  0  0  0  0  0  0
   -4.5248    1.6252    0.4190 H   0  0  0  0  0  0  0  0  0  0  0  0
   -6.2271   -1.2457   -0.6339 H   0  0  0  0  0  0  0  0  0  0  0  0
   -4.7696   -1.8838   -2.5162 H   0  0  0  0  0  0  0  0  0  0  0  0
   -2.6765   -0.8481   -3.4137 H   0  0  0  0  0  0  0  0  0  0  0  0
   -1.2151   -0.9451   -2.4914 H   0  0  0  0  0  0  0  0  0  0  0  0
   -2.1522   -2.4642   -2.9980 H   0  0  0  0  0  0  0  0  0  0  0  0
    0.3486   -3.7076   -0.2475 H   0  0  0  0  0  0  0  0  0  0  0  0
   -0.1204   -3.1762   -1.8800 H   0  0  0  0  0  0  0  0  0  0  0  0
   -1.3749   -3.4085   -0.4908 H   0  0  0  0  0  0  0  0  0  0  0  0
    2.0869   -2.0315   -0.6408 H   0  0  0  0  0  0  0  0  0  0  0  0
    4.1118    0.1853    1.7147 H   0  0  0  0  0  0  0  0  0  0  0  0
    3.6589    1.8944    1.2753 H   0  0  0  0  0  0  0  0  0  0  0  0
    5.8045   -1.0907    0.5946 H   0  0  0  0  0  0  0  0  0  0  0  0
    8.1674   -0.6651   -0.1141 H   0  0  0  0  0  0  0  0  0  0  0  0
    7.4473    3.5115   -0.4676 H   0  0  0  0  0  0  0  0  0  0  0  0
   -2.8015   -0.5491    1.7802 H   0  0  0  0  0  0  0  0  0  0  0  0
  1  2  1  0
  2  3  1  0
  3  4  2  0
  3  5  1  0
  5  6  2  0
  6  7  1  0
  7  8  2  0
  8  9  1  0
  8 10  1  0
 10 11  1  0
 11 12  1  0
 12 13  1  0
 12 14  2  0
 14 15  1  0
 15 16  1  0
 16 17  1  0
 17 18  1  0
 18 19  2  0
 19 20  1  0
 20 21  2  0
 21 22  1  0
 21 23  1  0
 23 24  2  0
 24 25  1  0
 15 26  2  0
 26 27  1  0
 26 28  1  0
 28 29  2  0
 10 30  2  0
 30  5  1  0
 28 11  1  0
 24 18  1  0
  1 31  1  0
  1 32  1  0
  1 33  1  0
  2 34  1  0
  6 35  1  0
  7 36  1  0
  9 37  1  0
  9 38  1  0
  9 39  1  0
 13 40  1  0
 13 41  1  0
 13 42  1  0
 14 43  1  0
 17 44  1  0
 17 45  1  0
 19 46  1  0
 20 47  1  0
 23 48  1  0
 30 49  1  0
M  END
$$$$
