@<TRIPOS>MOLECULE
*****
 42 44 0 0 0
SMALL
GASTEIGER

@<TRIPOS>ATOM
      1 O           0.7157    0.8454    0.8208 O.2     1  UNL1       -0.2487
      2 C           0.5498   -0.2934    0.2615 C.2     1  UNL1        0.3282
      3 O           1.7385   -0.8440   -0.2082 O.3     1  UNL1       -0.4600
      4 C           2.9875   -0.2199   -0.0836 C.3     1  UNL1        0.1054
      5 C           3.9812   -1.0525    0.6297 C.3     1  UNL1       -0.0031
      6 C           5.3464   -1.0837    0.0529 C.3     1  UNL1       -0.0008
      7 N           5.8021    0.0544   -0.6342 N.3     1  UNL1       -0.3157
      8 C           4.8102    0.9790   -1.0916 C.3     1  UNL1       -0.0008
      9 C           3.5693    0.1484   -1.4497 C.3     1  UNL1       -0.0031
     10 C          -0.7137   -0.9686    0.1128 C.3     1  UNL1        0.1246
     11 C          -1.2164   -0.9923   -1.3850 C.3     1  UNL1       -0.0220
     12 C          -2.6552   -0.6492   -1.4982 C.3     1  UNL1       -0.0282
     13 C          -3.3266    0.4033   -0.7258 C.3     1  UNL1        0.0727
     14 C          -2.1383    1.0368    0.1170 C.3     1  UNL1        0.0381
     15 N          -1.8677   -0.3450    0.6141 N.am    1  UNL1       -0.2685
     16 C          -3.0396   -0.6088    1.2950 C.2     1  UNL1        0.3306
     17 O          -3.2282   -1.1902    2.3852 O.2     1  UNL1       -0.2502
     18 N          -4.1245   -0.0430    0.4419 N.am    1  UNL1       -0.1323
     19 O          -5.4234    0.0210    0.7016 O.3     1  UNL1       -0.0962
     20 S          -5.9181    1.3956    1.4814 S.O2    1  UNL1        0.2271
     21 O          -5.1430    2.6107    1.0633 O.2     1  UNL1       -0.1164
     22 O          -7.3689    1.6238    1.1645 O.2     1  UNL1       -0.1164
     23 O          -5.7974    1.1294    3.1436 O.3     1  UNL1       -0.2297
     24 H           2.8301    0.7473    0.4386 H       1  UNL1        0.0734
     25 H           3.5584   -2.0986    0.7006 H       1  UNL1        0.0313
     26 H           4.0343   -0.7044    1.6871 H       1  UNL1        0.0313
     27 H           6.0973   -1.3520    0.8430 H       1  UNL1        0.0425
     28 H           5.3855   -1.9579   -0.6647 H       1  UNL1        0.0425
     29 H           6.5319    0.5970   -0.1200 H       1  UNL1        0.1219
     30 H           4.5629    1.7662   -0.3655 H       1  UNL1        0.0425
     31 H           5.1843    1.4624   -2.0178 H       1  UNL1        0.0425
     32 H           3.9669   -0.7469   -1.9711 H       1  UNL1        0.0313
     33 H           2.8492    0.7288   -2.0452 H       1  UNL1        0.0313
     34 H          -0.6163   -2.0175    0.4391 H       1  UNL1        0.0617
     35 H          -1.0388   -2.0030   -1.7361 H       1  UNL1        0.0289
     36 H          -0.5533   -0.2994   -1.8960 H       1  UNL1        0.0289
     37 H          -2.8217   -0.4100   -2.5911 H       1  UNL1        0.0285
     38 H          -3.2548   -1.6022   -1.3641 H       1  UNL1        0.0285
     39 H          -3.8058    1.1444   -1.3247 H       1  UNL1        0.0542
     40 H          -1.4590    1.3630   -0.6461 H       1  UNL1        0.0484
     41 H          -2.5095    1.7090    0.8565 H       1  UNL1        0.0484
     42 H          -6.4811    1.7162    3.5683 H       1  UNL1        0.2470
@<TRIPOS>BOND
     1     1     2    2
     2     2     3    1
     3     3     4    1
     4     4     5    1
     5     5     6    1
     6     6     7    1
     7     7     8    1
     8     8     9    1
     9     2    10    1
    10    10    11    1
    11    11    12    1
    12    12    13    1
    13    13    14    1
    14    14    15    1
    15    15    16   am
    16    16    17    2
    17    16    18   am
    18    18    19    1
    19    19    20    1
    20    20    21    2
    21    20    22    2
    22    20    23    1
    23     9     4    1
    24    15    10    1
    25    18    13    1
    26     4    24    1
    27     5    25    1
    28     5    26    1
    29     6    27    1
    30     6    28    1
    31     7    29    1
    32     8    30    1
    33     8    31    1
    34     9    32    1
    35     9    33    1
    36    10    34    1
    37    11    35    1
    38    11    36    1
    39    12    37    1
    40    12    38    1
    41    13    39    1
    42    14    40    1
    43    14    41    1
    44    23    42    1
