
     RDKit          3D

 42 44  0  0  0  0  0  0  0  0999 V2000
    0.7157    0.8454    0.8208 O   0  0  0  0  0  0  0  0  0  0  0  0
    0.5498   -0.2934    0.2615 C   0  0  0  0  0  0  0  0  0  0  0  0
    1.7385   -0.8440   -0.2082 O   0  0  0  0  0  0  0  0  0  0  0  0
    2.9875   -0.2199   -0.0836 C   0  0  0  0  0  0  0  0  0  0  0  0
    3.9812   -1.0525    0.6297 C   0  0  0  0  0  0  0  0  0  0  0  0
    5.3464   -1.0837    0.0529 C   0  0  0  0  0  0  0  0  0  0  0  0
    5.8021    0.0544   -0.6342 N   0  0  0  0  0  0  0  0  0  0  0  0
    4.8102    0.9790   -1.0916 C   0  0  0  0  0  0  0  0  0  0  0  0
    3.5693    0.1484   -1.4497 C   0  0  0  0  0  0  0  0  0  0  0  0
   -0.7137   -0.9686    0.1128 C   0  0  2  0  0  0  0  0  0  0  0  0
   -1.2164   -0.9923   -1.3850 C   0  0  0  0  0  0  0  0  0  0  0  0
   -2.6552   -0.6492   -1.4982 C   0  0  0  0  0  0  0  0  0  0  0  0
   -3.3266    0.4033   -0.7258 C   0  0  2  0  0  0  0  0  0  0  0  0
   -2.1383    1.0368    0.1170 C   0  0  0  0  0  0  0  0  0  0  0  0
   -1.8677   -0.3450    0.6141 N   0  0  0  0  0  0  0  0  0  0  0  0
   -3.0396   -0.6088    1.2950 C   0  0  0  0  0  0  0  0  0  0  0  0
   -3.2282   -1.1902    2.3852 O   0  0  0  0  0  0  0  0  0  0  0  0
   -4.1245   -0.0430    0.4419 N   0  0  0  0  0  0  0  0  0  0  0  0
   -5.4234    0.0210    0.7016 O   0  0  0  0  0  0  0  0  0  0  0  0
   -5.9181    1.3956    1.4814 S   0  0  0  0  0  6  0  0  0  0  0  0
   -5.1430    2.6107    1.0633 O   0  0  0  0  0  0  0  0  0  0  0  0
   -7.3689    1.6238    1.1645 O   0  0  0  0  0  0  0  0  0  0  0  0
   -5.7974    1.1294    3.1436 O   0  0  0  0  0  0  0  0  0  0  0  0
    2.8301    0.7473    0.4386 H   0  0  0  0  0  0  0  0  0  0  0  0
    3.5584   -2.0986    0.7006 H   0  0  0  0  0  0  0  0  0  0  0  0
    4.0343   -0.7044    1.6871 H   0  0  0  0  0  0  0  0  0  0  0  0
    6.0973   -1.3520    0.8430 H   0  0  0  0  0  0  0  0  0  0  0  0
    5.3855   -1.9579   -0.6647 H   0  0  0  0  0  0  0  0  0  0  0  0
    6.5319    0.5970   -0.1200 H   0  0  0  0  0  0  0  0  0  0  0  0
    4.5629    1.7662   -0.3655 H   0  0  0  0  0  0  0  0  0  0  0  0
    5.1843    1.4624   -2.0178 H   0  0  0  0  0  0  0  0  0  0  0  0
    3.9669   -0.7469   -1.9711 H   0  0  0  0  0  0  0  0  0  0  0  0
    2.8492    0.7288   -2.0452 H   0  0  0  0  0  0  0  0  0  0  0  0
   -0.6163   -2.0175    0.4391 H   0  0  0  0  0  0  0  0  0  0  0  0
   -1.0388   -2.0030   -1.7361 H   0  0  0  0  0  0  0  0  0  0  0  0
   -0.5533   -0.2994   -1.8960 H   0  0  0  0  0  0  0  0  0  0  0  0
   -2.8217   -0.4100   -2.5911 H   0  0  0  0  0  0  0  0  0  0  0  0
   -3.2548   -1.6022   -1.3641 H   0  0  0  0  0  0  0  0  0  0  0  0
   -3.8058    1.1444   -1.3247 H   0  0  0  0  0  0  0  0  0  0  0  0
   -1.4590    1.3630   -0.6461 H   0  0  0  0  0  0  0  0  0  0  0  0
   -2.5095    1.7090    0.8565 H   0  0  0  0  0  0  0  0  0  0  0  0
   -6.4811    1.7162    3.5683 H   0  0  0  0  0  0  0  0  0  0  0  0
  1  2  2  0
  2  3  1  0
  3  4  1  0
  4  5  1  0
  5  6  1  0
  6  7  1  0
  7  8  1  0
  8  9  1  0
  2 10  1  0
 10 11  1  0
 11 12  1  0
 12 13  1  0
 13 14  1  0
 14 15  1  0
 15 16  1  0
 16 17  2  0
 16 18  1  0
 18 19  1  0
 19 20  1  0
 20 21  2  0
 20 22  2  0
 20 23  1  0
  9  4  1  0
 15 10  1  0
 18 13  1  0
  4 24  1  0
  5 25  1  0
  5 26  1  0
  6 27  1  0
  6 28  1  0
  7 29  1  0
  8 30  1  0
  8 31  1  0
  9 32  1  0
  9 33  1  0
 10 34  1  1
 11 35  1  0
 11 36  1  0
 12 37  1  0
 12 38  1  0
 13 39  1  6
 14 40  1  0
 14 41  1  0
 23 42  1  0
M  END
$$$$
