
     RDKit          3D

 58 57  0  0  0  0  0  0  0  0999 V2000
   -3.4705    0.4764    0.2846 C   0  0  1  0  0  0  0  0  0  0  0  0
   -1.9351    0.2081    0.2079 C   0  0  0  0  0  0  0  0  0  0  0  0
   -1.5175   -0.4204    1.2925 O   0  0  0  0  0  0  0  0  0  0  0  0
   -0.2699   -0.6883    1.6006 C   0  0  0  0  0  0  0  0  0  0  0  0
    0.6703   -1.5040    0.7929 C   0  0  0  0  0  0  0  0  0  0  0  0
    1.0105   -0.9334   -0.5234 C   0  0  0  0  0  0  0  0  0  0  0  0
    2.0212   -1.8025   -1.2840 C   0  0  0  0  0  0  0  0  0  0  0  0
    3.3018   -1.9425   -0.5175 C   0  0  0  0  0  0  0  0  0  0  0  0
    3.9669   -0.6034   -0.2601 C   0  0  0  0  0  0  0  0  0  0  0  0
    5.2282   -0.9009    0.5108 C   0  0  0  0  0  0  0  0  0  0  0  0
    6.0215    0.3167    0.8560 C   0  0  0  0  0  0  0  0  0  0  0  0
    6.4389    1.0483   -0.4166 C   0  0  0  0  0  0  0  0  0  0  0  0
    7.2451    2.2813   -0.0021 C   0  0  0  0  0  0  0  0  0  0  0  0
   -4.1573   -0.8795    0.2255 C   0  0  0  0  0  0  0  0  0  0  0  0
   -3.7427   -1.4595   -0.9406 O   0  0  0  0  0  0  0  0  0  0  0  0
   -4.1602   -2.7324   -1.1772 C   0  0  0  0  0  0  0  0  0  0  0  0
   -5.6568   -2.8403   -1.2205 C   0  0  0  0  0  0  0  0  0  0  0  0
   -6.0192   -4.1674   -1.5080 F   0  0  0  0  0  0  0  0  0  0  0  0
   -6.2553   -2.0239   -2.1336 F   0  0  0  0  0  0  0  0  0  0  0  0
   -6.1566   -2.5963    0.0686 F   0  0  0  0  0  0  0  0  0  0  0  0
   -3.7328    1.2385    1.3617 O   0  0  0  0  0  0  0  0  0  0  0  0
   -4.3569    2.7607    1.1083 P   0  0  2  0  0  5  0  0  0  0  0  0
   -3.0685    3.8588    1.0567 O   0  0  0  0  0  0  0  0  0  0  0  0
   -5.2782    3.2241    2.2093 O   0  0  0  0  0  0  0  0  0  0  0  0
   -5.1252    2.8237   -0.4030 O   0  0  0  0  0  0  0  0  0  0  0  0
   -5.8632    3.9984   -0.4426 C   0  0  0  0  0  0  0  0  0  0  0  0
   -3.7235    1.0075   -0.6470 H   0  0  0  0  0  0  0  0  0  0  0  0
   -1.4870    1.2030    0.0290 H   0  0  0  0  0  0  0  0  0  0  0  0
   -1.8959   -0.4598   -0.7045 H   0  0  0  0  0  0  0  0  0  0  0  0
    0.2348    0.3479    1.8164 H   0  0  0  0  0  0  0  0  0  0  0  0
   -0.2494   -1.0881    2.6952 H   0  0  0  0  0  0  0  0  0  0  0  0
    0.2274   -2.5339    0.6599 H   0  0  0  0  0  0  0  0  0  0  0  0
    1.5896   -1.7201    1.4130 H   0  0  0  0  0  0  0  0  0  0  0  0
    0.1364   -0.8753   -1.1793 H   0  0  0  0  0  0  0  0  0  0  0  0
    1.4350    0.0788   -0.4402 H   0  0  0  0  0  0  0  0  0  0  0  0
    1.6142   -2.7954   -1.4813 H   0  0  0  0  0  0  0  0  0  0  0  0
    2.2291   -1.3040   -2.2521 H   0  0  0  0  0  0  0  0  0  0  0  0
    4.0232   -2.5212   -1.1411 H   0  0  0  0  0  0  0  0  0  0  0  0
    3.1998   -2.4812    0.4306 H   0  0  0  0  0  0  0  0  0  0  0  0
    4.1180   -0.0392   -1.1811 H   0  0  0  0  0  0  0  0  0  0  0  0
    3.3251    0.0348    0.3940 H   0  0  0  0  0  0  0  0  0  0  0  0
    4.9405   -1.3947    1.4559 H   0  0  0  0  0  0  0  0  0  0  0  0
    5.9004   -1.5634   -0.1047 H   0  0  0  0  0  0  0  0  0  0  0  0
    6.9767   -0.0402    1.3158 H   0  0  0  0  0  0  0  0  0  0  0  0
    5.5573    0.9906    1.5751 H   0  0  0  0  0  0  0  0  0  0  0  0
    7.0668    0.3910   -1.0464 H   0  0  0  0  0  0  0  0  0  0  0  0
    5.5541    1.3912   -0.9633 H   0  0  0  0  0  0  0  0  0  0  0  0
    6.5626    3.0938    0.2790 H   0  0  0  0  0  0  0  0  0  0  0  0
    7.8922    2.5297   -0.8808 H   0  0  0  0  0  0  0  0  0  0  0  0
    7.8671    1.9969    0.8478 H   0  0  0  0  0  0  0  0  0  0  0  0
   -5.2557   -0.6778    0.1477 H   0  0  0  0  0  0  0  0  0  0  0  0
   -3.8848   -1.5463    1.0644 H   0  0  0  0  0  0  0  0  0  0  0  0
   -3.7522   -3.1290   -2.1551 H   0  0  0  0  0  0  0  0  0  0  0  0
   -3.7391   -3.4402   -0.4090 H   0  0  0  0  0  0  0  0  0  0  0  0
   -3.3710    4.8086    1.0760 H   0  0  0  0  0  0  0  0  0  0  0  0
   -5.2431    4.8878   -0.7211 H   0  0  0  0  0  0  0  0  0  0  0  0
   -6.3177    4.1453    0.5584 H   0  0  0  0  0  0  0  0  0  0  0  0
   -6.6697    3.9627   -1.1974 H   0  0  0  0  0  0  0  0  0  0  0  0
  1  2  1  0
  2  3  1  0
  3  4  1  0
  4  5  1  0
  5  6  1  0
  6  7  1  0
  7  8  1  0
  8  9  1  0
  9 10  1  0
 10 11  1  0
 11 12  1  0
 12 13  1  0
  1 14  1  0
 14 15  1  0
 15 16  1  0
 16 17  1  0
 17 18  1  0
 17 19  1  0
 17 20  1  0
  1 21  1  0
 22 21  1  1
 22 23  1  0
 22 24  2  0
 22 25  1  0
 25 26  1  0
  1 27  1  6
  2 28  1  0
  2 29  1  0
  4 30  1  0
  4 31  1  0
  5 32  1  0
  5 33  1  0
  6 34  1  0
  6 35  1  0
  7 36  1  0
  7 37  1  0
  8 38  1  0
  8 39  1  0
  9 40  1  0
  9 41  1  0
 10 42  1  0
 10 43  1  0
 11 44  1  0
 11 45  1  0
 12 46  1  0
 12 47  1  0
 13 48  1  0
 13 49  1  0
 13 50  1  0
 14 51  1  0
 14 52  1  0
 16 53  1  0
 16 54  1  0
 23 55  1  0
 26 56  1  0
 26 57  1  0
 26 58  1  0
M  END
$$$$
