@<TRIPOS>MOLECULE
*****
 39 39 0 0 0
SMALL
GASTEIGER

@<TRIPOS>ATOM
      1 O           3.7840    1.1268    1.8004 O.2     1  UNL1       -0.2275
      2 P           4.0954    0.6629    0.4087 P.3     1  UNL1        0.4728
      3 O           5.6655    0.0095    0.3787 O.3     1  UNL1       -0.3026
      4 O           4.1799    2.0827   -0.5496 O.3     1  UNL1       -0.3026
      5 O           2.9627   -0.3216   -0.2687 O.3     1  UNL1       -0.2781
      6 C           1.7013   -0.2727    0.2101 C.3     1  UNL1        0.1266
      7 C           0.7860    0.2566   -0.8870 C.3     1  UNL1        0.1135
      8 O           1.3264    1.3229   -1.5562 O.3     1  UNL1       -0.3864
      9 C          -0.5325    0.6061   -0.2008 C.3     1  UNL1        0.1275
     10 O          -1.3442    1.3339   -1.0381 O.3     1  UNL1       -0.2781
     11 P          -1.8379    2.7974   -0.3964 P.3     1  UNL1        0.4728
     12 O          -3.0299    2.6671    0.5078 O.2     1  UNL1       -0.2275
     13 O          -0.6239    3.5966    0.4330 O.3     1  UNL1       -0.3026
     14 O          -2.3151    3.7909   -1.7004 O.3     1  UNL1       -0.3026
     15 C          -1.1457   -0.7522    0.1639 C.3     1  UNL1        0.1274
     16 O          -2.4222   -0.6292    0.6460 O.3     1  UNL1       -0.2781
     17 P          -3.5350   -1.4325   -0.3284 P.3     1  UNL1        0.4728
     18 O          -2.9089   -1.9148   -1.6154 O.2     1  UNL1       -0.2275
     19 O          -4.8196   -0.3968   -0.7397 O.3     1  UNL1       -0.3026
     20 O          -4.1829   -2.7096    0.5663 O.3     1  UNL1       -0.3026
     21 C          -0.2684   -1.4037    1.1726 C.3     1  UNL1        0.1127
     22 O          -0.7803   -2.7039    1.3941 O.3     1  UNL1       -0.3865
     23 C           1.1574   -1.5554    0.7607 C.3     1  UNL1        0.1127
     24 O           1.2609   -2.5757   -0.1542 O.3     1  UNL1       -0.3865
     25 H           5.7815   -0.6198   -0.3760 H       1  UNL1        0.2220
     26 H           5.0363    2.5443   -0.3741 H       1  UNL1        0.2220
     27 H           1.6599    0.4826    1.0375 H       1  UNL1        0.0655
     28 H           0.5692   -0.6134   -1.5572 H       1  UNL1        0.0647
     29 H           1.9222    0.9633   -2.2790 H       1  UNL1        0.2100
     30 H          -0.3388    1.1272    0.7824 H       1  UNL1        0.0656
     31 H          -1.0616    4.2257    1.0718 H       1  UNL1        0.2220
     32 H          -2.7266    3.2161   -2.3922 H       1  UNL1        0.2220
     33 H          -1.1390   -1.3592   -0.7673 H       1  UNL1        0.0656
     34 H          -5.5203   -0.9009   -1.1984 H       1  UNL1        0.2220
     35 H          -3.5692   -3.4992    0.5736 H       1  UNL1        0.2220
     36 H          -0.3799   -0.8922    2.1694 H       1  UNL1        0.0647
     37 H          -0.4939   -3.0303    2.2929 H       1  UNL1        0.2100
     38 H           1.7377   -1.7690    1.7058 H       1  UNL1        0.0647
     39 H           1.3496   -3.4606    0.3035 H       1  UNL1        0.2100
@<TRIPOS>BOND
     1     1     2    2
     2     2     3    1
     3     2     4    1
     4     2     5    1
     5     5     6    1
     6     6     7    1
     7     7     8    1
     8     7     9    1
     9     9    10    1
    10    10    11    1
    11    11    12    2
    12    11    13    1
    13    11    14    1
    14     9    15    1
    15    15    16    1
    16    16    17    1
    17    17    18    2
    18    17    19    1
    19    17    20    1
    20    15    21    1
    21    21    22    1
    22    21    23    1
    23    23    24    1
    24    23     6    1
    25     3    25    1
    26     4    26    1
    27     6    27    1
    28     7    28    1
    29     8    29    1
    30     9    30    1
    31    13    31    1
    32    14    32    1
    33    15    33    1
    34    19    34    1
    35    20    35    1
    36    21    36    1
    37    22    37    1
    38    23    38    1
    39    24    39    1
