
     RDKit          3D

 39 39  0  0  0  0  0  0  0  0999 V2000
    3.7840    1.1268    1.8004 O   0  0  0  0  0  0  0  0  0  0  0  0
    4.0954    0.6629    0.4087 P   0  0  0  0  0  5  0  0  0  0  0  0
    5.6655    0.0095    0.3787 O   0  0  0  0  0  0  0  0  0  0  0  0
    4.1799    2.0827   -0.5496 O   0  0  0  0  0  0  0  0  0  0  0  0
    2.9627   -0.3216   -0.2687 O   0  0  0  0  0  0  0  0  0  0  0  0
    1.7013   -0.2727    0.2101 C   0  0  1  0  0  0  0  0  0  0  0  0
    0.7860    0.2566   -0.8870 C   0  0  2  0  0  0  0  0  0  0  0  0
    1.3264    1.3229   -1.5562 O   0  0  0  0  0  0  0  0  0  0  0  0
   -0.5325    0.6061   -0.2008 C   0  0  1  0  0  0  0  0  0  0  0  0
   -1.3442    1.3339   -1.0381 O   0  0  0  0  0  0  0  0  0  0  0  0
   -1.8379    2.7974   -0.3964 P   0  0  0  0  0  5  0  0  0  0  0  0
   -3.0299    2.6671    0.5078 O   0  0  0  0  0  0  0  0  0  0  0  0
   -0.6239    3.5966    0.4330 O   0  0  0  0  0  0  0  0  0  0  0  0
   -2.3151    3.7909   -1.7004 O   0  0  0  0  0  0  0  0  0  0  0  0
   -1.1457   -0.7522    0.1639 C   0  0  2  0  0  0  0  0  0  0  0  0
   -2.4222   -0.6292    0.6460 O   0  0  0  0  0  0  0  0  0  0  0  0
   -3.5350   -1.4325   -0.3284 P   0  0  0  0  0  5  0  0  0  0  0  0
   -2.9089   -1.9148   -1.6154 O   0  0  0  0  0  0  0  0  0  0  0  0
   -4.8196   -0.3968   -0.7397 O   0  0  0  0  0  0  0  0  0  0  0  0
   -4.1829   -2.7096    0.5663 O   0  0  0  0  0  0  0  0  0  0  0  0
   -0.2684   -1.4037    1.1726 C   0  0  1  0  0  0  0  0  0  0  0  0
   -0.7803   -2.7039    1.3941 O   0  0  0  0  0  0  0  0  0  0  0  0
    1.1574   -1.5554    0.7607 C   0  0  1  0  0  0  0  0  0  0  0  0
    1.2609   -2.5757   -0.1542 O   0  0  0  0  0  0  0  0  0  0  0  0
    5.7815   -0.6198   -0.3760 H   0  0  0  0  0  0  0  0  0  0  0  0
    5.0363    2.5443   -0.3741 H   0  0  0  0  0  0  0  0  0  0  0  0
    1.6599    0.4826    1.0375 H   0  0  0  0  0  0  0  0  0  0  0  0
    0.5692   -0.6134   -1.5572 H   0  0  0  0  0  0  0  0  0  0  0  0
    1.9222    0.9633   -2.2790 H   0  0  0  0  0  0  0  0  0  0  0  0
   -0.3388    1.1272    0.7824 H   0  0  0  0  0  0  0  0  0  0  0  0
   -1.0616    4.2257    1.0718 H   0  0  0  0  0  0  0  0  0  0  0  0
   -2.7266    3.2161   -2.3922 H   0  0  0  0  0  0  0  0  0  0  0  0
   -1.1390   -1.3592   -0.7673 H   0  0  0  0  0  0  0  0  0  0  0  0
   -5.5203   -0.9009   -1.1984 H   0  0  0  0  0  0  0  0  0  0  0  0
   -3.5692   -3.4992    0.5736 H   0  0  0  0  0  0  0  0  0  0  0  0
   -0.3799   -0.8922    2.1694 H   0  0  0  0  0  0  0  0  0  0  0  0
   -0.4939   -3.0303    2.2929 H   0  0  0  0  0  0  0  0  0  0  0  0
    1.7377   -1.7690    1.7058 H   0  0  0  0  0  0  0  0  0  0  0  0
    1.3496   -3.4606    0.3035 H   0  0  0  0  0  0  0  0  0  0  0  0
  1  2  2  0
  2  3  1  0
  2  4  1  0
  2  5  1  0
  5  6  1  0
  6  7  1  0
  7  8  1  0
  7  9  1  0
  9 10  1  0
 10 11  1  0
 11 12  2  0
 11 13  1  0
 11 14  1  0
  9 15  1  0
 15 16  1  0
 16 17  1  0
 17 18  2  0
 17 19  1  0
 17 20  1  0
 15 21  1  0
 21 22  1  0
 21 23  1  0
 23 24  1  0
 23  6  1  0
  3 25  1  0
  4 26  1  0
  6 27  1  1
  7 28  1  6
  8 29  1  0
  9 30  1  1
 13 31  1  0
 14 32  1  0
 15 33  1  6
 19 34  1  0
 20 35  1  0
 21 36  1  1
 22 37  1  0
 23 38  1  1
 24 39  1  0
M  END
$$$$
