@<TRIPOS>MOLECULE
*****
 69 71 0 0 0
SMALL
GASTEIGER

@<TRIPOS>ATOM
      1 C           6.4451   -1.5071    1.0336 C.3     1  UNL1       -0.0130
      2 N           5.5895   -1.0997   -0.0328 N.3     1  UNL1       -0.3069
      3 C           5.5555   -2.0056   -1.1416 C.3     1  UNL1       -0.0130
      4 C           5.6157    0.2738   -0.3836 C.3     1  UNL1        0.0141
      5 C           5.0156    1.1275    0.6808 C.3     1  UNL1        0.0275
      6 N           3.6429    0.8492    0.9736 N.am    1  UNL1       -0.2987
      7 C           2.6889    1.5737    0.1582 C.3     1  UNL1        0.0305
      8 C           1.7735    0.6170   -0.5749 C.3     1  UNL1        0.0308
      9 N           1.0262   -0.2277    0.2838 N.am    1  UNL1       -0.2955
     10 C          -0.2933   -0.0830    0.6858 C.2     1  UNL1        0.2490
     11 O          -0.7201   -1.0520    1.4462 O.2     1  UNL1       -0.2699
     12 C          -1.2911    0.9553    0.4094 C.ar    1  UNL1        0.0657
     13 C          -1.0060    2.1831   -0.0588 C.ar    1  UNL1       -0.0370
     14 C          -1.9858    3.0985   -0.2511 C.ar    1  UNL1       -0.0023
     15 C          -2.0516    4.4781   -0.7270 C.3     1  UNL1       -0.0064
     16 C          -3.4574    5.0254   -0.7490 C.3     1  UNL1       -0.0556
     17 C          -1.4887    4.5869   -2.1338 C.3     1  UNL1       -0.0556
     18 C          -1.2319    5.3965    0.1456 C.3     1  UNL1       -0.0556
     19 S          -3.4533    2.2264    0.2499 S.2     1  UNL1       -0.0771
     20 C          -2.6030    0.6738    0.6829 C.ar    1  UNL1        0.0853
     21 N          -3.2748   -0.4608    1.1686 N.am    1  UNL1       -0.2629
     22 C          -3.7980   -1.4980    0.3437 C.2     1  UNL1        0.3085
     23 O          -3.6444   -1.3792   -0.8721 O.2     1  UNL1       -0.2521
     24 N          -4.4681   -2.6235    0.8840 N.am    1  UNL1       -0.2678
     25 C          -5.0098   -3.6870    0.1390 C.ar    1  UNL1        0.0546
     26 C          -4.9929   -3.8371   -1.2131 C.ar    1  UNL1       -0.0389
     27 C          -5.5661   -4.9428   -1.8394 C.ar    1  UNL1       -0.0585
     28 C          -6.1780   -5.9386   -1.1218 C.ar    1  UNL1       -0.0419
     29 C          -6.2076   -5.8069    0.2621 C.ar    1  UNL1        0.0610
     30 CL         -6.9870   -7.0737    1.1944 Cl      1  UNL1       -0.0820
     31 C          -5.6356   -4.7065    0.8640 C.ar    1  UNL1        0.0804
     32 CL         -5.7285   -4.6371    2.6194 Cl      1  UNL1       -0.0801
     33 C           1.6880   -1.4487    0.8931 C.3     1  UNL1        0.0233
     34 C           2.2214   -0.9950    2.2062 C.3     1  UNL1        0.0399
     35 C           3.3686   -0.0812    1.9944 C.2     1  UNL1        0.2171
     36 O           4.2252   -0.1967    2.9260 O.2     1  UNL1       -0.2755
     37 H           7.3357   -2.0500    0.6168 H       1  UNL1        0.0391
     38 H           5.8929   -2.2831    1.6369 H       1  UNL1        0.0391
     39 H           6.7417   -0.6443    1.6686 H       1  UNL1        0.0391
     40 H           6.3108   -2.7988   -0.9707 H       1  UNL1        0.0391
     41 H           4.5623   -2.5212   -1.1829 H       1  UNL1        0.0391
     42 H           5.7389   -1.5078   -2.1184 H       1  UNL1        0.0391
     43 H           5.1095    0.3920   -1.3664 H       1  UNL1        0.0442
     44 H           6.6801    0.5879   -0.5744 H       1  UNL1        0.0442
     45 H           5.5998    1.0908    1.6258 H       1  UNL1        0.0477
     46 H           5.1089    2.2057    0.3514 H       1  UNL1        0.0477
     47 H           3.1948    2.1953   -0.5824 H       1  UNL1        0.0480
     48 H           2.0953    2.2501    0.7991 H       1  UNL1        0.0480
     49 H           1.2164    1.1227   -1.3321 H       1  UNL1        0.0480
     50 H           2.5108   -0.0626   -1.1550 H       1  UNL1        0.0480
     51 H           0.0392    2.5435   -0.2906 H       1  UNL1        0.0634
     52 H          -3.7067    5.3995    0.2523 H       1  UNL1        0.0238
     53 H          -3.5752    5.7824   -1.5480 H       1  UNL1        0.0238
     54 H          -4.1522    4.1760   -1.0082 H       1  UNL1        0.0238
     55 H          -1.7888    5.5316   -2.6320 H       1  UNL1        0.0238
     56 H          -1.8113    3.7273   -2.7643 H       1  UNL1        0.0238
     57 H          -0.3615    4.6246   -2.0800 H       1  UNL1        0.0238
     58 H          -0.1722    5.4648   -0.1838 H       1  UNL1        0.0238
     59 H          -1.6408    6.4279    0.0514 H       1  UNL1        0.0238
     60 H          -1.2977    5.1336    1.2181 H       1  UNL1        0.0238
     61 H          -3.4030   -0.5575    2.1967 H       1  UNL1        0.1569
     62 H          -4.5459   -2.6244    1.9514 H       1  UNL1        0.1564
     63 H          -4.5406   -3.1168   -1.8594 H       1  UNL1        0.0637
     64 H          -5.5372   -5.0338   -2.9122 H       1  UNL1        0.0619
     65 H          -6.6327   -6.8089   -1.5673 H       1  UNL1        0.0633
     66 H           0.8795   -2.1978    1.0928 H       1  UNL1        0.0469
     67 H           2.4188   -1.8648    0.2070 H       1  UNL1        0.0469
     68 H           1.4305   -0.4713    2.7814 H       1  UNL1        0.0374
     69 H           2.5173   -1.8897    2.7903 H       1  UNL1        0.0374
@<TRIPOS>BOND
     1     1     2    1
     2     2     3    1
     3     2     4    1
     4     4     5    1
     5     5     6    1
     6     6     7    1
     7     7     8    1
     8     8     9    1
     9     9    10   am
    10    10    11    2
    11    10    12    1
    12    12    13   ar
    13    13    14   ar
    14    14    15    1
    15    15    16    1
    16    15    17    1
    17    15    18    1
    18    14    19   ar
    19    19    20   ar
    20    20    21    1
    21    21    22   am
    22    22    23    2
    23    22    24   am
    24    24    25    1
    25    25    26   ar
    26    26    27   ar
    27    27    28   ar
    28    28    29   ar
    29    29    30    1
    30    29    31   ar
    31    31    32    1
    32     9    33    1
    33    33    34    1
    34    34    35    1
    35    35    36    2
    36    35     6   am
    37    20    12   ar
    38    31    25   ar
    39     1    37    1
    40     1    38    1
    41     1    39    1
    42     3    40    1
    43     3    41    1
    44     3    42    1
    45     4    43    1
    46     4    44    1
    47     5    45    1
    48     5    46    1
    49     7    47    1
    50     7    48    1
    51     8    49    1
    52     8    50    1
    53    13    51    1
    54    16    52    1
    55    16    53    1
    56    16    54    1
    57    17    55    1
    58    17    56    1
    59    17    57    1
    60    18    58    1
    61    18    59    1
    62    18    60    1
    63    21    61    1
    64    24    62    1
    65    26    63    1
    66    27    64    1
    67    28    65    1
    68    33    66    1
    69    33    67    1
    70    34    68    1
    71    34    69    1
