
     RDKit          3D

 69 71  0  0  0  0  0  0  0  0999 V2000
    6.4451   -1.5071    1.0336 C   0  0  0  0  0  0  0  0  0  0  0  0
    5.5895   -1.0997   -0.0328 N   0  0  0  0  0  0  0  0  0  0  0  0
    5.5555   -2.0056   -1.1416 C   0  0  0  0  0  0  0  0  0  0  0  0
    5.6157    0.2738   -0.3836 C   0  0  0  0  0  0  0  0  0  0  0  0
    5.0156    1.1275    0.6808 C   0  0  0  0  0  0  0  0  0  0  0  0
    3.6429    0.8492    0.9736 N   0  0  0  0  0  0  0  0  0  0  0  0
    2.6889    1.5737    0.1582 C   0  0  0  0  0  0  0  0  0  0  0  0
    1.7735    0.6170   -0.5749 C   0  0  0  0  0  0  0  0  0  0  0  0
    1.0262   -0.2277    0.2838 N   0  0  0  0  0  0  0  0  0  0  0  0
   -0.2933   -0.0830    0.6858 C   0  0  0  0  0  0  0  0  0  0  0  0
   -0.7201   -1.0520    1.4462 O   0  0  0  0  0  0  0  0  0  0  0  0
   -1.2911    0.9553    0.4094 C   0  0  0  0  0  0  0  0  0  0  0  0
   -1.0060    2.1831   -0.0588 C   0  0  0  0  0  0  0  0  0  0  0  0
   -1.9858    3.0985   -0.2511 C   0  0  0  0  0  0  0  0  0  0  0  0
   -2.0516    4.4781   -0.7270 C   0  0  0  0  0  0  0  0  0  0  0  0
   -3.4574    5.0254   -0.7490 C   0  0  0  0  0  0  0  0  0  0  0  0
   -1.4887    4.5869   -2.1338 C   0  0  0  0  0  0  0  0  0  0  0  0
   -1.2319    5.3965    0.1456 C   0  0  0  0  0  0  0  0  0  0  0  0
   -3.4533    2.2264    0.2499 S   0  0  0  0  0  0  0  0  0  0  0  0
   -2.6030    0.6738    0.6829 C   0  0  0  0  0  0  0  0  0  0  0  0
   -3.2748   -0.4608    1.1686 N   0  0  0  0  0  0  0  0  0  0  0  0
   -3.7980   -1.4980    0.3437 C   0  0  0  0  0  0  0  0  0  0  0  0
   -3.6444   -1.3792   -0.8721 O   0  0  0  0  0  0  0  0  0  0  0  0
   -4.4681   -2.6235    0.8840 N   0  0  0  0  0  0  0  0  0  0  0  0
   -5.0098   -3.6870    0.1390 C   0  0  0  0  0  0  0  0  0  0  0  0
   -4.9929   -3.8371   -1.2131 C   0  0  0  0  0  0  0  0  0  0  0  0
   -5.5661   -4.9428   -1.8394 C   0  0  0  0  0  0  0  0  0  0  0  0
   -6.1780   -5.9386   -1.1218 C   0  0  0  0  0  0  0  0  0  0  0  0
   -6.2076   -5.8069    0.2621 C   0  0  0  0  0  0  0  0  0  0  0  0
   -6.9870   -7.0737    1.1944 Cl  0  0  0  0  0  0  0  0  0  0  0  0
   -5.6356   -4.7065    0.8640 C   0  0  0  0  0  0  0  0  0  0  0  0
   -5.7285   -4.6371    2.6194 Cl  0  0  0  0  0  0  0  0  0  0  0  0
    1.6880   -1.4487    0.8931 C   0  0  0  0  0  0  0  0  0  0  0  0
    2.2214   -0.9950    2.2062 C   0  0  0  0  0  0  0  0  0  0  0  0
    3.3686   -0.0812    1.9944 C   0  0  0  0  0  0  0  0  0  0  0  0
    4.2252   -0.1967    2.9260 O   0  0  0  0  0  0  0  0  0  0  0  0
    7.3357   -2.0500    0.6168 H   0  0  0  0  0  0  0  0  0  0  0  0
    5.8929   -2.2831    1.6369 H   0  0  0  0  0  0  0  0  0  0  0  0
    6.7417   -0.6443    1.6686 H   0  0  0  0  0  0  0  0  0  0  0  0
    6.3108   -2.7988   -0.9707 H   0  0  0  0  0  0  0  0  0  0  0  0
    4.5623   -2.5212   -1.1829 H   0  0  0  0  0  0  0  0  0  0  0  0
    5.7389   -1.5078   -2.1184 H   0  0  0  0  0  0  0  0  0  0  0  0
    5.1095    0.3920   -1.3664 H   0  0  0  0  0  0  0  0  0  0  0  0
    6.6801    0.5879   -0.5744 H   0  0  0  0  0  0  0  0  0  0  0  0
    5.5998    1.0908    1.6258 H   0  0  0  0  0  0  0  0  0  0  0  0
    5.1089    2.2057    0.3514 H   0  0  0  0  0  0  0  0  0  0  0  0
    3.1948    2.1953   -0.5824 H   0  0  0  0  0  0  0  0  0  0  0  0
    2.0953    2.2501    0.7991 H   0  0  0  0  0  0  0  0  0  0  0  0
    1.2164    1.1227   -1.3321 H   0  0  0  0  0  0  0  0  0  0  0  0
    2.5108   -0.0626   -1.1550 H   0  0  0  0  0  0  0  0  0  0  0  0
    0.0392    2.5435   -0.2906 H   0  0  0  0  0  0  0  0  0  0  0  0
   -3.7067    5.3995    0.2523 H   0  0  0  0  0  0  0  0  0  0  0  0
   -3.5752    5.7824   -1.5480 H   0  0  0  0  0  0  0  0  0  0  0  0
   -4.1522    4.1760   -1.0082 H   0  0  0  0  0  0  0  0  0  0  0  0
   -1.7888    5.5316   -2.6320 H   0  0  0  0  0  0  0  0  0  0  0  0
   -1.8113    3.7273   -2.7643 H   0  0  0  0  0  0  0  0  0  0  0  0
   -0.3615    4.6246   -2.0800 H   0  0  0  0  0  0  0  0  0  0  0  0
   -0.1722    5.4648   -0.1838 H   0  0  0  0  0  0  0  0  0  0  0  0
   -1.6408    6.4279    0.0514 H   0  0  0  0  0  0  0  0  0  0  0  0
   -1.2977    5.1336    1.2181 H   0  0  0  0  0  0  0  0  0  0  0  0
   -3.4030   -0.5575    2.1967 H   0  0  0  0  0  0  0  0  0  0  0  0
   -4.5459   -2.6244    1.9514 H   0  0  0  0  0  0  0  0  0  0  0  0
   -4.5406   -3.1168   -1.8594 H   0  0  0  0  0  0  0  0  0  0  0  0
   -5.5372   -5.0338   -2.9122 H   0  0  0  0  0  0  0  0  0  0  0  0
   -6.6327   -6.8089   -1.5673 H   0  0  0  0  0  0  0  0  0  0  0  0
    0.8795   -2.1978    1.0928 H   0  0  0  0  0  0  0  0  0  0  0  0
    2.4188   -1.8648    0.2070 H   0  0  0  0  0  0  0  0  0  0  0  0
    1.4305   -0.4713    2.7814 H   0  0  0  0  0  0  0  0  0  0  0  0
    2.5173   -1.8897    2.7903 H   0  0  0  0  0  0  0  0  0  0  0  0
  1  2  1  0
  2  3  1  0
  2  4  1  0
  4  5  1  0
  5  6  1  0
  6  7  1  0
  7  8  1  0
  8  9  1  0
  9 10  1  0
 10 11  2  0
 10 12  1  0
 12 13  1  0
 13 14  2  0
 14 15  1  0
 15 16  1  0
 15 17  1  0
 15 18  1  0
 14 19  1  0
 19 20  1  0
 20 21  1  0
 21 22  1  0
 22 23  2  0
 22 24  1  0
 24 25  1  0
 25 26  2  0
 26 27  1  0
 27 28  2  0
 28 29  1  0
 29 30  1  0
 29 31  2  0
 31 32  1  0
  9 33  1  0
 33 34  1  0
 34 35  1  0
 35 36  2  0
 35  6  1  0
 20 12  2  0
 31 25  1  0
  1 37  1  0
  1 38  1  0
  1 39  1  0
  3 40  1  0
  3 41  1  0
  3 42  1  0
  4 43  1  0
  4 44  1  0
  5 45  1  0
  5 46  1  0
  7 47  1  0
  7 48  1  0
  8 49  1  0
  8 50  1  0
 13 51  1  0
 16 52  1  0
 16 53  1  0
 16 54  1  0
 17 55  1  0
 17 56  1  0
 17 57  1  0
 18 58  1  0
 18 59  1  0
 18 60  1  0
 21 61  1  0
 24 62  1  0
 26 63  1  0
 27 64  1  0
 28 65  1  0
 33 66  1  0
 33 67  1  0
 34 68  1  0
 34 69  1  0
M  END
$$$$
