@<TRIPOS>MOLECULE
*****
 60 64 0 0 0
SMALL
GASTEIGER

@<TRIPOS>ATOM
      1 C          -5.1503   -3.5803    2.0945 C.3     1  UNL1       -0.0396
      2 C          -4.1234   -2.5569    1.6842 C.ar    1  UNL1       -0.0483
      3 C          -2.8221   -2.6698    2.1206 C.ar    1  UNL1       -0.0580
      4 C          -1.8917   -1.7073    1.7276 C.ar    1  UNL1       -0.0473
      5 C          -2.2572   -0.6559    0.9159 C.ar    1  UNL1        0.0640
      6 C          -1.2410    0.3546    0.4963 C.2     1  UNL1        0.2491
      7 O          -1.2289    1.3323    1.2851 O.2     1  UNL1       -0.2699
      8 N          -0.4500    0.1610   -0.6346 N.am    1  UNL1       -0.2895
      9 C          -0.7436   -1.1273   -1.3648 C.3     1  UNL1        0.0414
     10 C          -1.0134   -0.8755   -2.8093 C.3     1  UNL1        0.0717
     11 C          -2.4514   -0.4845   -3.0861 C.3     1  UNL1       -0.0372
     12 O          -0.1467    0.0005   -3.3888 O.3     1  UNL1       -0.3734
     13 C          -0.0299    1.1723   -2.6992 C.3     1  UNL1        0.0669
     14 C           0.5415    0.8926   -1.2767 C.3     1  UNL1        0.0537
     15 C           1.2525    2.0553   -0.7858 C.3     1  UNL1       -0.0068
     16 C           2.0790    1.8887    0.4270 C.ar    1  UNL1       -0.0449
     17 C           1.7523    2.2833    1.6908 C.ar    1  UNL1       -0.0585
     18 C           2.5788    2.0660    2.8000 C.ar    1  UNL1       -0.0608
     19 C           3.7838    1.4285    2.6411 C.ar    1  UNL1       -0.0510
     20 C           4.1441    1.0202    1.3885 C.ar    1  UNL1        0.0194
     21 C           5.4260    0.3410    1.1963 C.ar    1  UNL1        0.1597
     22 N           6.2416    0.1149    2.2279 N.ar    1  UNL1       -0.2357
     23 C           7.4205   -0.5000    2.0969 C.ar    1  UNL1        0.0314
     24 C           7.8276   -0.9248    0.8547 C.ar    1  UNL1       -0.0254
     25 C           6.9778   -0.6874   -0.2100 C.ar    1  UNL1        0.0314
     26 N           5.8011   -0.0657   -0.0344 N.ar    1  UNL1       -0.2357
     27 C           3.3278    1.2398    0.3250 C.ar    1  UNL1       -0.0478
     28 C          -3.5510   -0.5204    0.4670 C.ar    1  UNL1        0.0985
     29 N          -3.9414    0.5664   -0.3580 N.ar    1  UNL1       -0.1496
     30 N          -3.3833    1.7599   -0.4457 N.ar    1  UNL1       -0.1556
     31 C          -4.0460    2.5367   -1.3480 C.ar    1  UNL1        0.0697
     32 C          -5.0617    1.7438   -1.8215 C.ar    1  UNL1        0.0697
     33 N          -4.9571    0.5639   -1.1942 N.ar    1  UNL1       -0.1556
     34 C          -4.4575   -1.4949    0.8744 C.ar    1  UNL1       -0.0309
     35 H          -5.7622   -3.8871    1.2103 H       1  UNL1        0.0278
     36 H          -5.8565   -3.0493    2.7665 H       1  UNL1        0.0278
     37 H          -4.6497   -4.4298    2.5572 H       1  UNL1        0.0278
     38 H          -2.5758   -3.5053    2.7532 H       1  UNL1        0.0620
     39 H          -0.8832   -1.8341    2.0922 H       1  UNL1        0.0626
     40 H           0.2150   -1.6910   -1.2859 H       1  UNL1        0.0490
     41 H          -1.5780   -1.6540   -0.8961 H       1  UNL1        0.0490
     42 H          -0.8021   -1.8830   -3.3172 H       1  UNL1        0.0609
     43 H          -2.5425    0.5965   -2.8753 H       1  UNL1        0.0255
     44 H          -3.0780   -1.1184   -2.4224 H       1  UNL1        0.0255
     45 H          -2.7423   -0.7511   -4.1316 H       1  UNL1        0.0255
     46 H          -0.9428    1.7868   -2.6135 H       1  UNL1        0.0578
     47 H           0.7309    1.8202   -3.1842 H       1  UNL1        0.0578
     48 H           1.3624    0.0832   -1.5650 H       1  UNL1        0.0526
     49 H           2.0104    2.3837   -1.5793 H       1  UNL1        0.0332
     50 H           0.6225    2.9922   -0.7132 H       1  UNL1        0.0332
     51 H           0.8468    2.8000    1.8652 H       1  UNL1        0.0620
     52 H           2.2847    2.3933    3.7876 H       1  UNL1        0.0618
     53 H           4.4602    1.2378    3.4756 H       1  UNL1        0.0625
     54 H           8.0212   -0.6415    2.9972 H       1  UNL1        0.0831
     55 H           8.7837   -1.4235    0.7488 H       1  UNL1        0.0648
     56 H           7.2956   -1.0227   -1.2007 H       1  UNL1        0.0831
     57 H           3.6327    0.9047   -0.6742 H       1  UNL1        0.0627
     58 H          -3.8044    3.5706   -1.6239 H       1  UNL1        0.0864
     59 H          -5.7822    2.0482   -2.5551 H       1  UNL1        0.0864
     60 H          -5.4734   -1.3975    0.5271 H       1  UNL1        0.0642
@<TRIPOS>BOND
     1     1     2    1
     2     2     3   ar
     3     3     4   ar
     4     4     5   ar
     5     5     6    1
     6     6     7    2
     7     6     8   am
     8     8     9    1
     9     9    10    1
    10    10    11    1
    11    10    12    1
    12    12    13    1
    13    13    14    1
    14    14    15    1
    15    15    16    1
    16    16    17   ar
    17    17    18   ar
    18    18    19   ar
    19    19    20   ar
    20    20    21    1
    21    21    22   ar
    22    22    23   ar
    23    23    24   ar
    24    24    25   ar
    25    25    26   ar
    26    20    27   ar
    27     5    28   ar
    28    28    29    1
    29    29    30   ar
    30    30    31   ar
    31    31    32   ar
    32    32    33   ar
    33    28    34   ar
    34    34     2   ar
    35    14     8    1
    36    27    16   ar
    37    33    29   ar
    38    26    21   ar
    39     1    35    1
    40     1    36    1
    41     1    37    1
    42     3    38    1
    43     4    39    1
    44     9    40    1
    45     9    41    1
    46    10    42    1
    47    11    43    1
    48    11    44    1
    49    11    45    1
    50    13    46    1
    51    13    47    1
    52    14    48    1
    53    15    49    1
    54    15    50    1
    55    17    51    1
    56    18    52    1
    57    19    53    1
    58    23    54    1
    59    24    55    1
    60    25    56    1
    61    27    57    1
    62    31    58    1
    63    32    59    1
    64    34    60    1
