
     RDKit          3D

 60 64  0  0  0  0  0  0  0  0999 V2000
   -5.1503   -3.5803    2.0945 C   0  0  0  0  0  0  0  0  0  0  0  0
   -4.1234   -2.5569    1.6842 C   0  0  0  0  0  0  0  0  0  0  0  0
   -2.8221   -2.6698    2.1206 C   0  0  0  0  0  0  0  0  0  0  0  0
   -1.8917   -1.7073    1.7276 C   0  0  0  0  0  0  0  0  0  0  0  0
   -2.2572   -0.6559    0.9159 C   0  0  0  0  0  0  0  0  0  0  0  0
   -1.2410    0.3546    0.4963 C   0  0  0  0  0  0  0  0  0  0  0  0
   -1.2289    1.3323    1.2851 O   0  0  0  0  0  0  0  0  0  0  0  0
   -0.4500    0.1610   -0.6346 N   0  0  0  0  0  0  0  0  0  0  0  0
   -0.7436   -1.1273   -1.3648 C   0  0  0  0  0  0  0  0  0  0  0  0
   -1.0134   -0.8755   -2.8093 C   0  0  1  0  0  0  0  0  0  0  0  0
   -2.4514   -0.4845   -3.0861 C   0  0  0  0  0  0  0  0  0  0  0  0
   -0.1467    0.0005   -3.3888 O   0  0  0  0  0  0  0  0  0  0  0  0
   -0.0299    1.1723   -2.6992 C   0  0  0  0  0  0  0  0  0  0  0  0
    0.5415    0.8926   -1.2767 C   0  0  1  0  0  0  0  0  0  0  0  0
    1.2525    2.0553   -0.7858 C   0  0  0  0  0  0  0  0  0  0  0  0
    2.0790    1.8887    0.4270 C   0  0  0  0  0  0  0  0  0  0  0  0
    1.7523    2.2833    1.6908 C   0  0  0  0  0  0  0  0  0  0  0  0
    2.5788    2.0660    2.8000 C   0  0  0  0  0  0  0  0  0  0  0  0
    3.7838    1.4285    2.6411 C   0  0  0  0  0  0  0  0  0  0  0  0
    4.1441    1.0202    1.3885 C   0  0  0  0  0  0  0  0  0  0  0  0
    5.4260    0.3410    1.1963 C   0  0  0  0  0  0  0  0  0  0  0  0
    6.2416    0.1149    2.2279 N   0  0  0  0  0  0  0  0  0  0  0  0
    7.4205   -0.5000    2.0969 C   0  0  0  0  0  0  0  0  0  0  0  0
    7.8276   -0.9248    0.8547 C   0  0  0  0  0  0  0  0  0  0  0  0
    6.9778   -0.6874   -0.2100 C   0  0  0  0  0  0  0  0  0  0  0  0
    5.8011   -0.0657   -0.0344 N   0  0  0  0  0  0  0  0  0  0  0  0
    3.3278    1.2398    0.3250 C   0  0  0  0  0  0  0  0  0  0  0  0
   -3.5510   -0.5204    0.4670 C   0  0  0  0  0  0  0  0  0  0  0  0
   -3.9414    0.5664   -0.3580 N   0  0  0  0  0  0  0  0  0  0  0  0
   -3.3833    1.7599   -0.4457 N   0  0  0  0  0  0  0  0  0  0  0  0
   -4.0460    2.5367   -1.3480 C   0  0  0  0  0  0  0  0  0  0  0  0
   -5.0617    1.7438   -1.8215 C   0  0  0  0  0  0  0  0  0  0  0  0
   -4.9571    0.5639   -1.1942 N   0  0  0  0  0  0  0  0  0  0  0  0
   -4.4575   -1.4949    0.8744 C   0  0  0  0  0  0  0  0  0  0  0  0
   -5.7622   -3.8871    1.2103 H   0  0  0  0  0  0  0  0  0  0  0  0
   -5.8565   -3.0493    2.7665 H   0  0  0  0  0  0  0  0  0  0  0  0
   -4.6497   -4.4298    2.5572 H   0  0  0  0  0  0  0  0  0  0  0  0
   -2.5758   -3.5053    2.7532 H   0  0  0  0  0  0  0  0  0  0  0  0
   -0.8832   -1.8341    2.0922 H   0  0  0  0  0  0  0  0  0  0  0  0
    0.2150   -1.6910   -1.2859 H   0  0  0  0  0  0  0  0  0  0  0  0
   -1.5780   -1.6540   -0.8961 H   0  0  0  0  0  0  0  0  0  0  0  0
   -0.8021   -1.8830   -3.3172 H   0  0  0  0  0  0  0  0  0  0  0  0
   -2.5425    0.5965   -2.8753 H   0  0  0  0  0  0  0  0  0  0  0  0
   -3.0780   -1.1184   -2.4224 H   0  0  0  0  0  0  0  0  0  0  0  0
   -2.7423   -0.7511   -4.1316 H   0  0  0  0  0  0  0  0  0  0  0  0
   -0.9428    1.7868   -2.6135 H   0  0  0  0  0  0  0  0  0  0  0  0
    0.7309    1.8202   -3.1842 H   0  0  0  0  0  0  0  0  0  0  0  0
    1.3624    0.0832   -1.5650 H   0  0  0  0  0  0  0  0  0  0  0  0
    2.0104    2.3837   -1.5793 H   0  0  0  0  0  0  0  0  0  0  0  0
    0.6225    2.9922   -0.7132 H   0  0  0  0  0  0  0  0  0  0  0  0
    0.8468    2.8000    1.8652 H   0  0  0  0  0  0  0  0  0  0  0  0
    2.2847    2.3933    3.7876 H   0  0  0  0  0  0  0  0  0  0  0  0
    4.4602    1.2378    3.4756 H   0  0  0  0  0  0  0  0  0  0  0  0
    8.0212   -0.6415    2.9972 H   0  0  0  0  0  0  0  0  0  0  0  0
    8.7837   -1.4235    0.7488 H   0  0  0  0  0  0  0  0  0  0  0  0
    7.2956   -1.0227   -1.2007 H   0  0  0  0  0  0  0  0  0  0  0  0
    3.6327    0.9047   -0.6742 H   0  0  0  0  0  0  0  0  0  0  0  0
   -3.8044    3.5706   -1.6239 H   0  0  0  0  0  0  0  0  0  0  0  0
   -5.7822    2.0482   -2.5551 H   0  0  0  0  0  0  0  0  0  0  0  0
   -5.4734   -1.3975    0.5271 H   0  0  0  0  0  0  0  0  0  0  0  0
  1  2  1  0
  2  3  2  0
  3  4  1  0
  4  5  2  0
  5  6  1  0
  6  7  2  0
  6  8  1  0
  8  9  1  0
  9 10  1  0
 10 11  1  0
 10 12  1  0
 12 13  1  0
 13 14  1  0
 14 15  1  0
 15 16  1  0
 16 17  2  0
 17 18  1  0
 18 19  2  0
 19 20  1  0
 20 21  1  0
 21 22  2  0
 22 23  1  0
 23 24  2  0
 24 25  1  0
 25 26  2  0
 20 27  2  0
  5 28  1  0
 28 29  1  0
 29 30  1  0
 30 31  2  0
 31 32  1  0
 32 33  2  0
 28 34  2  0
 34  2  1  0
 14  8  1  0
 27 16  1  0
 33 29  1  0
 26 21  1  0
  1 35  1  0
  1 36  1  0
  1 37  1  0
  3 38  1  0
  4 39  1  0
  9 40  1  0
  9 41  1  0
 10 42  1  6
 11 43  1  0
 11 44  1  0
 11 45  1  0
 13 46  1  0
 13 47  1  0
 14 48  1  6
 15 49  1  0
 15 50  1  0
 17 51  1  0
 18 52  1  0
 19 53  1  0
 23 54  1  0
 24 55  1  0
 25 56  1  0
 27 57  1  0
 31 58  1  0
 32 59  1  0
 34 60  1  0
M  END
$$$$
