
     RDKit          3D

 53 57  0  0  0  0  0  0  0  0999 V2000
    2.0460   -3.5481   -2.3378 N   0  0  0  0  0  0  0  0  0  0  0  0
    1.5964   -2.4980   -1.4556 C   0  0  0  0  0  0  0  0  0  0  0  0
    1.3904   -1.2878   -1.8440 N   0  0  0  0  0  0  0  0  0  0  0  0
    0.9479   -0.4799   -0.7301 C   0  0  1  0  0  0  0  0  0  0  0  0
    1.8191    0.6941   -0.5202 C   0  0  0  0  0  0  0  0  0  0  0  0
    1.5939    1.5934    0.4901 C   0  0  0  0  0  0  0  0  0  0  0  0
    2.4220    2.6861    0.6696 C   0  0  0  0  0  0  0  0  0  0  0  0
    3.4788    2.8420   -0.1979 C   0  0  0  0  0  0  0  0  0  0  0  0
    4.3175    3.9184   -0.0431 O   0  0  0  0  0  0  0  0  0  0  0  0
    4.0733    5.1622   -0.6976 C   0  0  0  0  0  0  0  0  0  0  0  0
    5.0368    6.0821   -0.3962 F   0  0  0  0  0  0  0  0  0  0  0  0
    2.8045    5.6270   -0.4798 F   0  0  0  0  0  0  0  0  0  0  0  0
    4.2010    4.8853   -2.0647 F   0  0  0  0  0  0  0  0  0  0  0  0
    3.7416    1.9650   -1.2243 C   0  0  0  0  0  0  0  0  0  0  0  0
    2.8843    0.8877   -1.3623 C   0  0  0  0  0  0  0  0  0  0  0  0
   -0.3943    0.0435   -1.1008 C   0  0  0  0  0  0  0  0  0  0  0  0
   -0.4478    0.7383   -2.3087 C   0  0  0  0  0  0  0  0  0  0  0  0
   -1.6329    1.2701   -2.7599 C   0  0  0  0  0  0  0  0  0  0  0  0
   -2.7550    1.1015   -1.9973 C   0  0  0  0  0  0  0  0  0  0  0  0
   -2.7140    0.4189   -0.8058 C   0  0  0  0  0  0  0  0  0  0  0  0
   -3.9495    0.2668   -0.0257 C   0  0  0  0  0  0  0  0  0  0  0  0
   -4.8292    1.2984    0.1985 C   0  0  0  0  0  0  0  0  0  0  0  0
   -5.9949    1.0940    0.9523 C   0  0  0  0  0  0  0  0  0  0  0  0
   -6.2649   -0.1514    1.4749 C   0  0  0  0  0  0  0  0  0  0  0  0
   -5.3883   -1.1412    1.2404 N   0  0  0  0  0  0  0  0  0  0  0  0
   -4.2464   -0.9631    0.5085 C   0  0  0  0  0  0  0  0  0  0  0  0
   -3.3874   -1.9983    0.2976 F   0  0  0  0  0  0  0  0  0  0  0  0
   -1.5209   -0.1196   -0.3461 C   0  0  0  0  0  0  0  0  0  0  0  0
    0.9130   -1.3925    0.4130 C   0  0  0  0  0  0  0  0  0  0  0  0
    0.6136   -1.3014    1.6544 N   0  0  0  0  0  0  0  0  0  0  0  0
    0.6730   -2.4106    2.5881 C   0  0  0  0  0  0  0  0  0  0  0  0
    0.4459   -3.7432    1.9161 C   0  0  0  0  0  0  0  0  0  0  0  0
    1.4251   -3.8358    0.7664 C   0  0  0  0  0  0  0  0  0  0  0  0
    1.3277   -2.6597   -0.0732 N   0  0  0  0  0  0  0  0  0  0  0  0
    1.5102   -4.4177   -2.4701 H   0  0  0  0  0  0  0  0  0  0  0  0
    2.9340   -3.4052   -2.8431 H   0  0  0  0  0  0  0  0  0  0  0  0
    0.7520    1.4795    1.1903 H   0  0  0  0  0  0  0  0  0  0  0  0
    2.2150    3.3840    1.4845 H   0  0  0  0  0  0  0  0  0  0  0  0
    4.5850    2.1187   -1.8906 H   0  0  0  0  0  0  0  0  0  0  0  0
    3.1182    0.2103   -2.1844 H   0  0  0  0  0  0  0  0  0  0  0  0
    0.4443    0.8763   -2.9216 H   0  0  0  0  0  0  0  0  0  0  0  0
   -1.6363    1.8063   -3.7077 H   0  0  0  0  0  0  0  0  0  0  0  0
   -3.7026    1.5088   -2.3265 H   0  0  0  0  0  0  0  0  0  0  0  0
   -4.6104    2.2679   -0.2136 H   0  0  0  0  0  0  0  0  0  0  0  0
   -6.6981    1.8893    1.1401 H   0  0  0  0  0  0  0  0  0  0  0  0
   -7.1694   -0.3266    2.0646 H   0  0  0  0  0  0  0  0  0  0  0  0
   -1.4627   -0.6532    0.5745 H   0  0  0  0  0  0  0  0  0  0  0  0
    1.6989   -2.4317    3.0198 H   0  0  0  0  0  0  0  0  0  0  0  0
   -0.0281   -2.2278    3.4023 H   0  0  0  0  0  0  0  0  0  0  0  0
    0.7104   -4.5287    2.6559 H   0  0  0  0  0  0  0  0  0  0  0  0
   -0.5904   -3.9054    1.6138 H   0  0  0  0  0  0  0  0  0  0  0  0
    1.2683   -4.7485    0.1599 H   0  0  0  0  0  0  0  0  0  0  0  0
    2.4352   -3.9403    1.2268 H   0  0  0  0  0  0  0  0  0  0  0  0
  1  2  1  0
  2  3  2  0
  3  4  1  0
  4  5  1  1
  5  6  2  0
  6  7  1  0
  7  8  2  0
  8  9  1  0
  9 10  1  0
 10 11  1  0
 10 12  1  0
 10 13  1  0
  8 14  1  0
 14 15  2  0
  4 16  1  0
 16 17  2  0
 17 18  1  0
 18 19  2  0
 19 20  1  0
 20 21  1  0
 21 22  2  0
 22 23  1  0
 23 24  2  0
 24 25  1  0
 25 26  2  0
 26 27  1  0
 20 28  2  0
  4 29  1  0
 29 30  2  0
 30 31  1  0
 31 32  1  0
 32 33  1  0
 33 34  1  0
 34  2  1  0
 15  5  1  0
 28 16  1  0
 34 29  1  0
 26 21  1  0
  1 35  1  0
  1 36  1  0
  6 37  1  0
  7 38  1  0
 14 39  1  0
 15 40  1  0
 17 41  1  0
 18 42  1  0
 19 43  1  0
 22 44  1  0
 23 45  1  0
 24 46  1  0
 28 47  1  0
 31 48  1  0
 31 49  1  0
 32 50  1  0
 32 51  1  0
 33 52  1  0
 33 53  1  0
M  END
$$$$
