@<TRIPOS>MOLECULE
*****
 53 57 0 0 0
SMALL
GASTEIGER

@<TRIPOS>ATOM
      1 N           2.0460   -3.5481   -2.3378 N.pl3   1  UNL1       -0.2440
      2 C           1.5964   -2.4980   -1.4556 C.cat   1  UNL1        0.4035
      3 N           1.3904   -1.2878   -1.8440 N.2     1  UNL1       -0.0797
      4 C           0.9479   -0.4799   -0.7301 C.3     1  UNL1        0.2765
      5 C           1.8191    0.6941   -0.5202 C.ar    1  UNL1        0.0123
      6 C           1.5939    1.5934    0.4901 C.ar    1  UNL1       -0.0505
      7 C           2.4220    2.6861    0.6696 C.ar    1  UNL1       -0.0192
      8 C           3.4788    2.8420   -0.1979 C.ar    1  UNL1        0.1300
      9 O           4.3175    3.9184   -0.0431 O.3     1  UNL1       -0.4057
     10 C           4.0733    5.1622   -0.6976 C.3     1  UNL1        0.5752
     11 F           5.0368    6.0821   -0.3962 F       1  UNL1       -0.1328
     12 F           2.8045    5.6270   -0.4798 F       1  UNL1       -0.1328
     13 F           4.2010    4.8853   -2.0647 F       1  UNL1       -0.1328
     14 C           3.7416    1.9650   -1.2243 C.ar    1  UNL1       -0.0192
     15 C           2.8843    0.8877   -1.3623 C.ar    1  UNL1       -0.0505
     16 C          -0.3943    0.0435   -1.1008 C.ar    1  UNL1        0.0126
     17 C          -0.4478    0.7383   -2.3087 C.ar    1  UNL1       -0.0539
     18 C          -1.6329    1.2701   -2.7599 C.ar    1  UNL1       -0.0608
     19 C          -2.7550    1.1015   -1.9973 C.ar    1  UNL1       -0.0539
     20 C          -2.7140    0.4189   -0.8058 C.ar    1  UNL1       -0.0132
     21 C          -3.9495    0.2668   -0.0257 C.ar    1  UNL1        0.0365
     22 C          -4.8292    1.2984    0.1985 C.ar    1  UNL1       -0.0483
     23 C          -5.9949    1.0940    0.9523 C.ar    1  UNL1       -0.0428
     24 C          -6.2649   -0.1514    1.4749 C.ar    1  UNL1        0.0307
     25 N          -5.3883   -1.1412    1.2404 N.ar    1  UNL1       -0.2271
     26 C          -4.2464   -0.9631    0.5085 C.ar    1  UNL1        0.2209
     27 F          -3.3874   -1.9983    0.2976 F       1  UNL1       -0.1832
     28 C          -1.5209   -0.1196   -0.3461 C.ar    1  UNL1       -0.0461
     29 C           0.9130   -1.3925    0.4130 C.2     1  UNL1        0.3456
     30 N           0.6136   -1.3014    1.6544 N.2     1  UNL1       -0.0826
     31 C           0.6730   -2.4106    2.5881 C.3     1  UNL1        0.1354
     32 C           0.4459   -3.7432    1.9161 C.3     1  UNL1        0.0258
     33 C           1.4251   -3.8358    0.7664 C.3     1  UNL1        0.0948
     34 N           1.3277   -2.6597   -0.0732 N.pl3   1  UNL1       -0.1308
     35 H           1.5102   -4.4177   -2.4701 H       1  UNL1        0.2420
     36 H           2.9340   -3.4052   -2.8431 H       1  UNL1        0.2420
     37 H           0.7520    1.4795    1.1903 H       1  UNL1        0.0623
     38 H           2.2150    3.3840    1.4845 H       1  UNL1        0.0654
     39 H           4.5850    2.1187   -1.8906 H       1  UNL1        0.0654
     40 H           3.1182    0.2103   -2.1844 H       1  UNL1        0.0623
     41 H           0.4443    0.8763   -2.9216 H       1  UNL1        0.0622
     42 H          -1.6363    1.8063   -3.7077 H       1  UNL1        0.0618
     43 H          -3.7026    1.5088   -2.3265 H       1  UNL1        0.0624
     44 H          -4.6104    2.2679   -0.2136 H       1  UNL1        0.0625
     45 H          -6.6981    1.8893    1.1401 H       1  UNL1        0.0633
     46 H          -7.1694   -0.3266    2.0646 H       1  UNL1        0.0830
     47 H          -1.4627   -0.6532    0.5745 H       1  UNL1        0.0628
     48 H           1.6989   -2.4317    3.0198 H       1  UNL1        0.0792
     49 H          -0.0281   -2.2278    3.4023 H       1  UNL1        0.0792
     50 H           0.7104   -4.5287    2.6559 H       1  UNL1        0.0341
     51 H          -0.5904   -3.9054    1.6138 H       1  UNL1        0.0341
     52 H           1.2683   -4.7485    0.1599 H       1  UNL1        0.0733
     53 H           2.4352   -3.9403    1.2268 H       1  UNL1        0.0733
@<TRIPOS>BOND
     1     1     2    1
     2     2     3    2
     3     3     4    1
     4     4     5    1
     5     5     6   ar
     6     6     7   ar
     7     7     8   ar
     8     8     9    1
     9     9    10    1
    10    10    11    1
    11    10    12    1
    12    10    13    1
    13     8    14   ar
    14    14    15   ar
    15     4    16    1
    16    16    17   ar
    17    17    18   ar
    18    18    19   ar
    19    19    20   ar
    20    20    21    1
    21    21    22   ar
    22    22    23   ar
    23    23    24   ar
    24    24    25   ar
    25    25    26   ar
    26    26    27    1
    27    20    28   ar
    28     4    29    1
    29    29    30    2
    30    30    31    1
    31    31    32    1
    32    32    33    1
    33    33    34    1
    34    34     2    1
    35    15     5   ar
    36    28    16   ar
    37    34    29    1
    38    26    21   ar
    39     1    35    1
    40     1    36    1
    41     6    37    1
    42     7    38    1
    43    14    39    1
    44    15    40    1
    45    17    41    1
    46    18    42    1
    47    19    43    1
    48    22    44    1
    49    23    45    1
    50    24    46    1
    51    28    47    1
    52    31    48    1
    53    31    49    1
    54    32    50    1
    55    32    51    1
    56    33    52    1
    57    33    53    1
