
     RDKit          3D

 29 30  0  0  0  0  0  0  0  0999 V2000
   -6.1477   -0.4906    0.0717 O   0  0  0  0  0  0  0  0  0  0  0  0
   -4.7526   -0.4922    0.0526 C   0  0  0  0  0  0  0  0  0  0  0  0
   -4.0288    0.6638   -0.1048 C   0  0  0  0  0  0  0  0  0  0  0  0
   -2.6270    0.6501   -0.1225 C   0  0  0  0  0  0  0  0  0  0  0  0
   -1.9123   -0.5104    0.0156 C   0  0  0  0  0  0  0  0  0  0  0  0
   -0.4607   -0.6097    0.0082 C   0  0  0  0  0  0  0  0  0  0  0  0
    0.2816    0.4559   -0.1379 C   0  0  0  0  0  0  0  0  0  0  0  0
    1.7286    0.4009   -0.1509 C   0  0  0  0  0  0  0  0  0  0  0  0
    2.4537    1.5841   -0.3117 C   0  0  0  0  0  0  0  0  0  0  0  0
    3.8335    1.5885   -0.3314 C   0  0  0  0  0  0  0  0  0  0  0  0
    4.5754    2.7457   -0.4891 O   0  0  0  0  0  0  0  0  0  0  0  0
    4.5280    0.3993   -0.1894 C   0  0  0  0  0  0  0  0  0  0  0  0
    3.8307   -0.7769   -0.0298 C   0  0  0  0  0  0  0  0  0  0  0  0
    4.5019   -1.9835    0.1147 O   0  0  0  0  0  0  0  0  0  0  0  0
    2.4251   -0.7661   -0.0118 C   0  0  0  0  0  0  0  0  0  0  0  0
   -2.6726   -1.6809    0.1753 C   0  0  0  0  0  0  0  0  0  0  0  0
   -4.0491   -1.6677    0.1927 C   0  0  0  0  0  0  0  0  0  0  0  0
   -6.6869    0.0854    0.7094 H   0  0  0  0  0  0  0  0  0  0  0  0
   -4.5806    1.5867   -0.2148 H   0  0  0  0  0  0  0  0  0  0  0  0
   -2.1102    1.5918   -0.2496 H   0  0  0  0  0  0  0  0  0  0  0  0
    0.0182   -1.5798    0.1252 H   0  0  0  0  0  0  0  0  0  0  0  0
   -0.1941    1.4518   -0.2582 H   0  0  0  0  0  0  0  0  0  0  0  0
    1.9423    2.5420   -0.4267 H   0  0  0  0  0  0  0  0  0  0  0  0
    4.3981    3.5956    0.0237 H   0  0  0  0  0  0  0  0  0  0  0  0
    5.6144    0.3641   -0.1999 H   0  0  0  0  0  0  0  0  0  0  0  0
    4.8749   -2.2408    1.0205 H   0  0  0  0  0  0  0  0  0  0  0  0
    1.9425   -1.7268    0.1174 H   0  0  0  0  0  0  0  0  0  0  0  0
   -2.1042   -2.6035    0.2851 H   0  0  0  0  0  0  0  0  0  0  0  0
   -4.6219   -2.5769    0.3165 H   0  0  0  0  0  0  0  0  0  0  0  0
  1  2  1  0
  2  3  2  0
  3  4  1  0
  4  5  2  0
  5  6  1  0
  6  7  2  0
  7  8  1  0
  8  9  2  0
  9 10  1  0
 10 11  1  0
 10 12  2  0
 12 13  1  0
 13 14  1  0
 13 15  2  0
  5 16  1  0
 16 17  2  0
 17  2  1  0
 15  8  1  0
  1 18  1  0
  3 19  1  0
  4 20  1  0
  6 21  1  0
  7 22  1  0
  9 23  1  0
 11 24  1  0
 12 25  1  0
 14 26  1  0
 15 27  1  0
 16 28  1  0
 17 29  1  0
M  END
$$$$
