@<TRIPOS>MOLECULE
*****
 29 30 0 0 0
SMALL
GASTEIGER

@<TRIPOS>ATOM
      1 O          -6.1477   -0.4906    0.0717 O.3     1  UNL1       -0.5068
      2 C          -4.7526   -0.4922    0.0526 C.ar    1  UNL1        0.1169
      3 C          -4.0288    0.6638   -0.1048 C.ar    1  UNL1       -0.0196
      4 C          -2.6270    0.6501   -0.1225 C.ar    1  UNL1       -0.0511
      5 C          -1.9123   -0.5104    0.0156 C.ar    1  UNL1       -0.0248
      6 C          -0.4607   -0.6097    0.0082 C.2     1  UNL1       -0.0540
      7 C           0.2816    0.4559   -0.1379 C.2     1  UNL1       -0.0538
      8 C           1.7286    0.4009   -0.1509 C.ar    1  UNL1       -0.0181
      9 C           2.4537    1.5841   -0.3117 C.ar    1  UNL1       -0.0128
     10 C           3.8335    1.5885   -0.3314 C.ar    1  UNL1        0.1209
     11 O           4.5754    2.7457   -0.4891 O.3     1  UNL1       -0.5066
     12 C           4.5280    0.3993   -0.1894 C.ar    1  UNL1        0.0213
     13 C           3.8307   -0.7769   -0.0298 C.ar    1  UNL1        0.1209
     14 O           4.5019   -1.9835    0.1147 O.3     1  UNL1       -0.5066
     15 C           2.4251   -0.7661   -0.0118 C.ar    1  UNL1       -0.0128
     16 C          -2.6726   -1.6809    0.1753 C.ar    1  UNL1       -0.0511
     17 C          -4.0491   -1.6677    0.1927 C.ar    1  UNL1       -0.0196
     18 H          -6.6869    0.0854    0.7094 H       1  UNL1        0.2921
     19 H          -4.5806    1.5867   -0.2148 H       1  UNL1        0.0654
     20 H          -2.1102    1.5918   -0.2496 H       1  UNL1        0.0625
     21 H           0.0182   -1.5798    0.1252 H       1  UNL1        0.0624
     22 H          -0.1941    1.4518   -0.2582 H       1  UNL1        0.0624
     23 H           1.9423    2.5420   -0.4267 H       1  UNL1        0.0660
     24 H           4.3981    3.5956    0.0237 H       1  UNL1        0.2921
     25 H           5.6144    0.3641   -0.1999 H       1  UNL1        0.0691
     26 H           4.8749   -2.2408    1.0205 H       1  UNL1        0.2921
     27 H           1.9425   -1.7268    0.1174 H       1  UNL1        0.0660
     28 H          -2.1042   -2.6035    0.2851 H       1  UNL1        0.0625
     29 H          -4.6219   -2.5769    0.3165 H       1  UNL1        0.0654
@<TRIPOS>BOND
     1     1     2    1
     2     2     3   ar
     3     3     4   ar
     4     4     5   ar
     5     5     6    1
     6     6     7    2
     7     7     8    1
     8     8     9   ar
     9     9    10   ar
    10    10    11    1
    11    10    12   ar
    12    12    13   ar
    13    13    14    1
    14    13    15   ar
    15     5    16   ar
    16    16    17   ar
    17    17     2   ar
    18    15     8   ar
    19     1    18    1
    20     3    19    1
    21     4    20    1
    22     6    21    1
    23     7    22    1
    24     9    23    1
    25    11    24    1
    26    12    25    1
    27    14    26    1
    28    15    27    1
    29    16    28    1
    30    17    29    1
