@<TRIPOS>MOLECULE
*****
 52 57 0 0 0
SMALL
GASTEIGER

@<TRIPOS>ATOM
      1 C           0.0763   -1.1133    3.2742 C.ar    1  UNL1        0.0465
      2 C           1.4327   -1.3286    3.2996 C.ar    1  UNL1        0.0294
      3 N           1.9968   -0.9468    2.1454 N.ar    1  UNL1       -0.3018
      4 C           3.2768   -0.9424    1.6769 C.ar    1  UNL1        0.0373
      5 C           3.5930   -0.4775    0.4284 C.ar    1  UNL1        0.0897
      6 C           4.9734   -0.4587   -0.0801 C.ar    1  UNL1        0.0039
      7 C           6.0543   -0.9102    0.6362 C.ar    1  UNL1       -0.0518
      8 C           7.3415   -0.8514    0.0851 C.ar    1  UNL1       -0.0505
      9 C           7.5755   -0.3492   -1.1730 C.ar    1  UNL1        0.0195
     10 C           8.7203   -0.1842   -1.9322 C.ar    1  UNL1        0.0569
     11 N           8.3006    0.3660   -3.0959 N.ar    1  UNL1       -0.1812
     12 N           6.9958    0.5353   -3.0739 N.ar    1  UNL1       -0.2769
     13 C           6.4852    0.1128   -1.9119 C.ar    1  UNL1        0.0663
     14 C           5.2261    0.0456   -1.3496 C.ar    1  UNL1       -0.0271
     15 N           2.5906   -0.0185   -0.3344 N.ar    1  UNL1       -0.2267
     16 C           1.3017   -0.0120    0.1116 C.ar    1  UNL1        0.1669
     17 N           0.3206    0.5121   -0.7485 N.pl3   1  UNL1       -0.2965
     18 C          -1.0698    0.5206   -0.5282 C.ar    1  UNL1        0.0326
     19 C          -1.7603    1.7395   -0.6017 C.ar    1  UNL1       -0.0388
     20 C          -3.1046    1.7425   -0.4135 C.ar    1  UNL1       -0.0389
     21 C          -3.8645    0.5983   -0.1474 C.ar    1  UNL1        0.0299
     22 N          -5.2674    0.6649    0.0248 N.pl3   1  UNL1       -0.3255
     23 C          -6.0294   -0.3301    0.7282 C.3     1  UNL1        0.0357
     24 C          -7.3610   -0.6028    0.0675 C.3     1  UNL1        0.0634
     25 O          -7.9751    0.5203   -0.4494 O.3     1  UNL1       -0.3767
     26 C          -7.1233    1.1468   -1.3793 C.3     1  UNL1        0.0634
     27 C          -6.0145    1.7612   -0.5218 C.3     1  UNL1        0.0357
     28 C          -3.1721   -0.6024   -0.0770 C.ar    1  UNL1       -0.0389
     29 C          -1.7923   -0.6231   -0.2678 C.ar    1  UNL1       -0.0388
     30 C           1.0009   -0.4835    1.3719 C.ar    1  UNL1        0.1784
     31 N          -0.1500   -0.5802    2.0410 N.ar    1  UNL1       -0.2330
     32 H          -0.6816   -1.3107    4.0473 H       1  UNL1        0.0845
     33 H           1.9732   -1.7454    4.1300 H       1  UNL1        0.0829
     34 H           4.0419   -1.3268    2.3409 H       1  UNL1        0.0835
     35 H           5.9169   -1.3117    1.6236 H       1  UNL1        0.0624
     36 H           8.1823   -1.2017    0.6419 H       1  UNL1        0.0625
     37 H           9.7477   -0.4393   -1.6581 H       1  UNL1        0.0854
     38 H           6.4432    0.9398   -3.8500 H       1  UNL1        0.1889
     39 H           4.3804    0.3975   -1.9070 H       1  UNL1        0.0645
     40 H           0.6343    0.9507   -1.6629 H       1  UNL1        0.1537
     41 H          -1.2232    2.6521   -0.8047 H       1  UNL1        0.0637
     42 H          -3.6157    2.6971   -0.4652 H       1  UNL1        0.0637
     43 H          -6.2286    0.0612    1.7603 H       1  UNL1        0.0486
     44 H          -5.5173   -1.2959    0.8804 H       1  UNL1        0.0486
     45 H          -8.0419   -0.9690    0.8935 H       1  UNL1        0.0575
     46 H          -7.3223   -1.4492   -0.6483 H       1  UNL1        0.0575
     47 H          -6.6291    0.3447   -1.9798 H       1  UNL1        0.0575
     48 H          -7.6568    1.8766   -1.9852 H       1  UNL1        0.0575
     49 H          -6.5533    2.2908    0.3190 H       1  UNL1        0.0486
     50 H          -5.4417    2.5019   -1.0973 H       1  UNL1        0.0486
     51 H          -3.6979   -1.5224    0.1224 H       1  UNL1        0.0637
     52 H          -1.2882   -1.5913   -0.2197 H       1  UNL1        0.0637
@<TRIPOS>BOND
     1     1     2   ar
     2     2     3   ar
     3     3     4   ar
     4     4     5   ar
     5     5     6    1
     6     6     7   ar
     7     7     8   ar
     8     8     9   ar
     9     9    10   ar
    10    10    11   ar
    11    11    12   ar
    12    12    13   ar
    13    13    14   ar
    14     5    15   ar
    15    15    16   ar
    16    16    17    1
    17    17    18    1
    18    18    19   ar
    19    19    20   ar
    20    20    21   ar
    21    21    22    1
    22    22    23    1
    23    23    24    1
    24    24    25    1
    25    25    26    1
    26    26    27    1
    27    21    28   ar
    28    28    29   ar
    29    16    30   ar
    30    30    31   ar
    31    31     1   ar
    32    30     3   ar
    33    14     6   ar
    34    29    18   ar
    35    13     9   ar
    36    27    22    1
    37     1    32    1
    38     2    33    1
    39     4    34    1
    40     7    35    1
    41     8    36    1
    42    10    37    1
    43    12    38    1
    44    14    39    1
    45    17    40    1
    46    19    41    1
    47    20    42    1
    48    23    43    1
    49    23    44    1
    50    24    45    1
    51    24    46    1
    52    26    47    1
    53    26    48    1
    54    27    49    1
    55    27    50    1
    56    28    51    1
    57    29    52    1
