
     RDKit          3D

 52 57  0  0  0  0  0  0  0  0999 V2000
    0.0763   -1.1133    3.2742 C   0  0  0  0  0  0  0  0  0  0  0  0
    1.4327   -1.3286    3.2996 C   0  0  0  0  0  0  0  0  0  0  0  0
    1.9968   -0.9468    2.1454 N   0  0  0  0  0  0  0  0  0  0  0  0
    3.2768   -0.9424    1.6769 C   0  0  0  0  0  0  0  0  0  0  0  0
    3.5930   -0.4775    0.4284 C   0  0  0  0  0  0  0  0  0  0  0  0
    4.9734   -0.4587   -0.0801 C   0  0  0  0  0  0  0  0  0  0  0  0
    6.0543   -0.9102    0.6362 C   0  0  0  0  0  0  0  0  0  0  0  0
    7.3415   -0.8514    0.0851 C   0  0  0  0  0  0  0  0  0  0  0  0
    7.5755   -0.3492   -1.1730 C   0  0  0  0  0  0  0  0  0  0  0  0
    8.7203   -0.1842   -1.9322 C   0  0  0  0  0  0  0  0  0  0  0  0
    8.3006    0.3660   -3.0959 N   0  0  0  0  0  0  0  0  0  0  0  0
    6.9958    0.5353   -3.0739 N   0  0  0  0  0  0  0  0  0  0  0  0
    6.4852    0.1128   -1.9119 C   0  0  0  0  0  0  0  0  0  0  0  0
    5.2261    0.0456   -1.3496 C   0  0  0  0  0  0  0  0  0  0  0  0
    2.5906   -0.0185   -0.3344 N   0  0  0  0  0  0  0  0  0  0  0  0
    1.3017   -0.0120    0.1116 C   0  0  0  0  0  0  0  0  0  0  0  0
    0.3206    0.5121   -0.7485 N   0  0  0  0  0  0  0  0  0  0  0  0
   -1.0698    0.5206   -0.5282 C   0  0  0  0  0  0  0  0  0  0  0  0
   -1.7603    1.7395   -0.6017 C   0  0  0  0  0  0  0  0  0  0  0  0
   -3.1046    1.7425   -0.4135 C   0  0  0  0  0  0  0  0  0  0  0  0
   -3.8645    0.5983   -0.1474 C   0  0  0  0  0  0  0  0  0  0  0  0
   -5.2674    0.6649    0.0248 N   0  0  0  0  0  0  0  0  0  0  0  0
   -6.0294   -0.3301    0.7282 C   0  0  0  0  0  0  0  0  0  0  0  0
   -7.3610   -0.6028    0.0675 C   0  0  0  0  0  0  0  0  0  0  0  0
   -7.9751    0.5203   -0.4494 O   0  0  0  0  0  0  0  0  0  0  0  0
   -7.1233    1.1468   -1.3793 C   0  0  0  0  0  0  0  0  0  0  0  0
   -6.0145    1.7612   -0.5218 C   0  0  0  0  0  0  0  0  0  0  0  0
   -3.1721   -0.6024   -0.0770 C   0  0  0  0  0  0  0  0  0  0  0  0
   -1.7923   -0.6231   -0.2678 C   0  0  0  0  0  0  0  0  0  0  0  0
    1.0009   -0.4835    1.3719 C   0  0  0  0  0  0  0  0  0  0  0  0
   -0.1500   -0.5802    2.0410 N   0  0  0  0  0  0  0  0  0  0  0  0
   -0.6816   -1.3107    4.0473 H   0  0  0  0  0  0  0  0  0  0  0  0
    1.9732   -1.7454    4.1300 H   0  0  0  0  0  0  0  0  0  0  0  0
    4.0419   -1.3268    2.3409 H   0  0  0  0  0  0  0  0  0  0  0  0
    5.9169   -1.3117    1.6236 H   0  0  0  0  0  0  0  0  0  0  0  0
    8.1823   -1.2017    0.6419 H   0  0  0  0  0  0  0  0  0  0  0  0
    9.7477   -0.4393   -1.6581 H   0  0  0  0  0  0  0  0  0  0  0  0
    6.4432    0.9398   -3.8500 H   0  0  0  0  0  0  0  0  0  0  0  0
    4.3804    0.3975   -1.9070 H   0  0  0  0  0  0  0  0  0  0  0  0
    0.6343    0.9507   -1.6629 H   0  0  0  0  0  0  0  0  0  0  0  0
   -1.2232    2.6521   -0.8047 H   0  0  0  0  0  0  0  0  0  0  0  0
   -3.6157    2.6971   -0.4652 H   0  0  0  0  0  0  0  0  0  0  0  0
   -6.2286    0.0612    1.7603 H   0  0  0  0  0  0  0  0  0  0  0  0
   -5.5173   -1.2959    0.8804 H   0  0  0  0  0  0  0  0  0  0  0  0
   -8.0419   -0.9690    0.8935 H   0  0  0  0  0  0  0  0  0  0  0  0
   -7.3223   -1.4492   -0.6483 H   0  0  0  0  0  0  0  0  0  0  0  0
   -6.6291    0.3447   -1.9798 H   0  0  0  0  0  0  0  0  0  0  0  0
   -7.6568    1.8766   -1.9852 H   0  0  0  0  0  0  0  0  0  0  0  0
   -6.5533    2.2908    0.3190 H   0  0  0  0  0  0  0  0  0  0  0  0
   -5.4417    2.5019   -1.0973 H   0  0  0  0  0  0  0  0  0  0  0  0
   -3.6979   -1.5224    0.1224 H   0  0  0  0  0  0  0  0  0  0  0  0
   -1.2882   -1.5913   -0.2197 H   0  0  0  0  0  0  0  0  0  0  0  0
  1  2  2  0
  2  3  1  0
  3  4  1  0
  4  5  2  0
  5  6  1  0
  6  7  2  0
  7  8  1  0
  8  9  2  0
  9 10  1  0
 10 11  2  0
 11 12  1  0
 12 13  1  0
 13 14  2  0
  5 15  1  0
 15 16  2  0
 16 17  1  0
 17 18  1  0
 18 19  2  0
 19 20  1  0
 20 21  2  0
 21 22  1  0
 22 23  1  0
 23 24  1  0
 24 25  1  0
 25 26  1  0
 26 27  1  0
 21 28  1  0
 28 29  2  0
 16 30  1  0
 30 31  2  0
 31  1  1  0
 30  3  1  0
 14  6  1  0
 29 18  1  0
 13  9  1  0
 27 22  1  0
  1 32  1  0
  2 33  1  0
  4 34  1  0
  7 35  1  0
  8 36  1  0
 10 37  1  0
 12 38  1  0
 14 39  1  0
 17 40  1  0
 19 41  1  0
 20 42  1  0
 23 43  1  0
 23 44  1  0
 24 45  1  0
 24 46  1  0
 26 47  1  0
 26 48  1  0
 27 49  1  0
 27 50  1  0
 28 51  1  0
 29 52  1  0
M  END
$$$$
