
     RDKit          3D

 54 57  0  0  0  0  0  0  0  0999 V2000
   -0.7537    2.5810   -2.4258 C   0  0  0  0  0  0  0  0  0  0  0  0
   -1.2172    1.6962   -1.4331 O   0  0  0  0  0  0  0  0  0  0  0  0
   -1.2890    0.3262   -1.6010 C   0  0  0  0  0  0  0  0  0  0  0  0
   -0.9007   -0.1009   -2.7312 O   0  0  0  0  0  0  0  0  0  0  0  0
   -1.7785   -0.6116   -0.5613 C   0  0  2  0  0  0  0  0  0  0  0  0
   -3.1929   -0.3766   -0.1360 C   0  0  0  0  0  0  0  0  0  0  0  0
   -3.4898    0.9276    0.5031 C   0  0  0  0  0  0  0  0  0  0  0  0
   -3.4646    0.7100    2.0161 C   0  0  0  0  0  0  0  0  0  0  0  0
   -2.8666   -0.6911    2.0532 C   0  0  0  0  0  0  0  0  0  0  0  0
   -1.3843   -0.5507    1.9376 C   0  0  0  0  0  0  0  0  0  0  0  0
   -0.8031   -0.7277    0.5771 C   0  0  2  0  0  0  0  0  0  0  0  0
    0.3162    0.0789    0.3267 O   0  0  0  0  0  0  0  0  0  0  0  0
    1.4808   -0.6220    0.1247 C   0  0  0  0  0  0  0  0  0  0  0  0
    2.5163   -0.2287    1.0753 C   0  0  0  0  0  0  0  0  0  0  0  0
    3.8043   -0.0048    0.6194 C   0  0  0  0  0  0  0  0  0  0  0  0
    4.8298    0.3657    1.4458 C   0  0  0  0  0  0  0  0  0  0  0  0
    4.5816    0.5248    2.7855 C   0  0  0  0  0  0  0  0  0  0  0  0
    5.5761    0.8945    3.6518 F   0  0  0  0  0  0  0  0  0  0  0  0
    3.3106    0.3072    3.2564 C   0  0  0  0  0  0  0  0  0  0  0  0
    2.2829   -0.0690    2.3976 C   0  0  0  0  0  0  0  0  0  0  0  0
    2.0023   -0.4159   -1.2784 C   0  0  0  0  0  0  0  0  0  0  0  0
    2.0871    0.8235   -1.8645 C   0  0  0  0  0  0  0  0  0  0  0  0
    2.5684    0.9906   -3.1541 C   0  0  0  0  0  0  0  0  0  0  0  0
    2.9639   -0.1182   -3.8440 C   0  0  0  0  0  0  0  0  0  0  0  0
    3.4459   -0.0248   -5.1134 F   0  0  0  0  0  0  0  0  0  0  0  0
    2.8881   -1.3586   -3.2807 C   0  0  0  0  0  0  0  0  0  0  0  0
    2.4071   -1.5104   -1.9965 C   0  0  0  0  0  0  0  0  0  0  0  0
   -3.4376   -1.3773    0.9155 N   0  0  0  0  0  0  0  0  0  0  0  0
   -4.8198   -1.6820    1.0727 C   0  0  0  0  0  0  0  0  0  0  0  0
    0.0042    3.2367   -1.9915 H   0  0  0  0  0  0  0  0  0  0  0  0
   -1.6212    3.1267   -2.8698 H   0  0  0  0  0  0  0  0  0  0  0  0
   -0.2964    1.9931   -3.2481 H   0  0  0  0  0  0  0  0  0  0  0  0
   -1.8086   -1.6400   -1.0607 H   0  0  0  0  0  0  0  0  0  0  0  0
   -3.8372   -0.5751   -1.0191 H   0  0  0  0  0  0  0  0  0  0  0  0
   -2.8076    1.7144    0.2035 H   0  0  0  0  0  0  0  0  0  0  0  0
   -4.5268    1.2149    0.2220 H   0  0  0  0  0  0  0  0  0  0  0  0
   -4.4487    0.7729    2.4725 H   0  0  0  0  0  0  0  0  0  0  0  0
   -2.7887    1.4635    2.4702 H   0  0  0  0  0  0  0  0  0  0  0  0
   -3.0886   -1.2019    3.0082 H   0  0  0  0  0  0  0  0  0  0  0  0
   -1.1175    0.4946    2.2626 H   0  0  0  0  0  0  0  0  0  0  0  0
   -0.8503   -1.1849    2.7031 H   0  0  0  0  0  0  0  0  0  0  0  0
   -0.3813   -1.7816    0.5378 H   0  0  0  0  0  0  0  0  0  0  0  0
    1.2583   -1.7174    0.2502 H   0  0  0  0  0  0  0  0  0  0  0  0
    4.0373   -0.1228   -0.4441 H   0  0  0  0  0  0  0  0  0  0  0  0
    5.8250    0.5388    1.0942 H   0  0  0  0  0  0  0  0  0  0  0  0
    3.1048    0.4292    4.3049 H   0  0  0  0  0  0  0  0  0  0  0  0
    1.3228   -0.2236    2.8152 H   0  0  0  0  0  0  0  0  0  0  0  0
    1.7776    1.7059   -1.3265 H   0  0  0  0  0  0  0  0  0  0  0  0
    2.6401    1.9537   -3.6244 H   0  0  0  0  0  0  0  0  0  0  0  0
    3.1964   -2.2388   -3.8137 H   0  0  0  0  0  0  0  0  0  0  0  0
    2.3475   -2.4952   -1.5508 H   0  0  0  0  0  0  0  0  0  0  0  0
   -5.4271   -0.7630    0.8226 H   0  0  0  0  0  0  0  0  0  0  0  0
   -5.0960   -2.4731    0.3442 H   0  0  0  0  0  0  0  0  0  0  0  0
   -5.0814   -1.9829    2.0991 H   0  0  0  0  0  0  0  0  0  0  0  0
  1  2  1  0
  2  3  1  0
  3  4  2  0
  3  5  1  0
  5  6  1  0
  6  7  1  0
  7  8  1  0
  8  9  1  0
  9 10  1  0
 10 11  1  0
 11 12  1  0
 12 13  1  0
 13 14  1  0
 14 15  2  0
 15 16  1  0
 16 17  2  0
 17 18  1  0
 17 19  1  0
 19 20  2  0
 13 21  1  0
 21 22  2  0
 22 23  1  0
 23 24  2  0
 24 25  1  0
 24 26  1  0
 26 27  2  0
  9 28  1  0
 28 29  1  0
 11  5  1  0
 20 14  1  0
 27 21  1  0
 28  6  1  0
  1 30  1  0
  1 31  1  0
  1 32  1  0
  5 33  1  6
  6 34  1  0
  7 35  1  0
  7 36  1  0
  8 37  1  0
  8 38  1  0
  9 39  1  0
 10 40  1  0
 10 41  1  0
 11 42  1  1
 13 43  1  0
 15 44  1  0
 16 45  1  0
 19 46  1  0
 20 47  1  0
 22 48  1  0
 23 49  1  0
 26 50  1  0
 27 51  1  0
 29 52  1  0
 29 53  1  0
 29 54  1  0
M  END
$$$$
