@<TRIPOS>MOLECULE
*****
 54 57 0 0 0
SMALL
GASTEIGER

@<TRIPOS>ATOM
      1 C          -0.7537    2.5810   -2.4258 C.3     1  UNL1        0.0817
      2 O          -1.2172    1.6962   -1.4331 O.3     1  UNL1       -0.4676
      3 C          -1.2890    0.3262   -1.6010 C.2     1  UNL1        0.3140
      4 O          -0.9007   -0.1009   -2.7312 O.2     1  UNL1       -0.2504
      5 C          -1.7785   -0.6116   -0.5613 C.3     1  UNL1        0.0980
      6 C          -3.1929   -0.3766   -0.1360 C.3     1  UNL1        0.0258
      7 C          -3.4898    0.9276    0.5031 C.3     1  UNL1       -0.0351
      8 C          -3.4646    0.7100    2.0161 C.3     1  UNL1       -0.0358
      9 C          -2.8666   -0.6911    2.0532 C.3     1  UNL1        0.0128
     10 C          -1.3843   -0.5507    1.9376 C.3     1  UNL1       -0.0100
     11 C          -0.8031   -0.7277    0.5771 C.3     1  UNL1        0.0757
     12 O           0.3162    0.0789    0.3267 O.3     1  UNL1       -0.3632
     13 C           1.4808   -0.6220    0.1247 C.3     1  UNL1        0.1090
     14 C           2.5163   -0.2287    1.0753 C.ar    1  UNL1       -0.0143
     15 C           3.8043   -0.0048    0.6194 C.ar    1  UNL1       -0.0531
     16 C           4.8298    0.3657    1.4458 C.ar    1  UNL1       -0.0261
     17 C           4.5816    0.5248    2.7855 C.ar    1  UNL1        0.1234
     18 F           5.5761    0.8945    3.6518 F       1  UNL1       -0.2055
     19 C           3.3106    0.3072    3.2564 C.ar    1  UNL1       -0.0261
     20 C           2.2829   -0.0690    2.3976 C.ar    1  UNL1       -0.0531
     21 C           2.0023   -0.4159   -1.2784 C.ar    1  UNL1       -0.0143
     22 C           2.0871    0.8235   -1.8645 C.ar    1  UNL1       -0.0531
     23 C           2.5684    0.9906   -3.1541 C.ar    1  UNL1       -0.0261
     24 C           2.9639   -0.1182   -3.8440 C.ar    1  UNL1        0.1234
     25 F           3.4459   -0.0248   -5.1134 F       1  UNL1       -0.2055
     26 C           2.8881   -1.3586   -3.2807 C.ar    1  UNL1       -0.0261
     27 C           2.4071   -1.5104   -1.9965 C.ar    1  UNL1       -0.0531
     28 N          -3.4376   -1.3773    0.9155 N.3     1  UNL1       -0.2985
     29 C          -4.8198   -1.6820    1.0727 C.3     1  UNL1       -0.0122
     30 H           0.0042    3.2367   -1.9915 H       1  UNL1        0.0661
     31 H          -1.6212    3.1267   -2.8698 H       1  UNL1        0.0661
     32 H          -0.2964    1.9931   -3.2481 H       1  UNL1        0.0661
     33 H          -1.8086   -1.6400   -1.0607 H       1  UNL1        0.0455
     34 H          -3.8372   -0.5751   -1.0191 H       1  UNL1        0.0471
     35 H          -2.8076    1.7144    0.2035 H       1  UNL1        0.0281
     36 H          -4.5268    1.2149    0.2220 H       1  UNL1        0.0281
     37 H          -4.4487    0.7729    2.4725 H       1  UNL1        0.0281
     38 H          -2.7887    1.4635    2.4702 H       1  UNL1        0.0281
     39 H          -3.0886   -1.2019    3.0082 H       1  UNL1        0.0463
     40 H          -1.1175    0.4946    2.2626 H       1  UNL1        0.0305
     41 H          -0.8503   -1.1849    2.7031 H       1  UNL1        0.0305
     42 H          -0.3813   -1.7816    0.5378 H       1  UNL1        0.0605
     43 H           1.2583   -1.7174    0.2502 H       1  UNL1        0.0697
     44 H           4.0373   -0.1228   -0.4441 H       1  UNL1        0.0622
     45 H           5.8250    0.5388    1.0942 H       1  UNL1        0.0646
     46 H           3.1048    0.4292    4.3049 H       1  UNL1        0.0646
     47 H           1.3228   -0.2236    2.8152 H       1  UNL1        0.0622
     48 H           1.7776    1.7059   -1.3265 H       1  UNL1        0.0622
     49 H           2.6401    1.9537   -3.6244 H       1  UNL1        0.0646
     50 H           3.1964   -2.2388   -3.8137 H       1  UNL1        0.0646
     51 H           2.3475   -2.4952   -1.5508 H       1  UNL1        0.0622
     52 H          -5.4271   -0.7630    0.8226 H       1  UNL1        0.0391
     53 H          -5.0960   -2.4731    0.3442 H       1  UNL1        0.0391
     54 H          -5.0814   -1.9829    2.0991 H       1  UNL1        0.0391
@<TRIPOS>BOND
     1     1     2    1
     2     2     3    1
     3     3     4    2
     4     3     5    1
     5     5     6    1
     6     6     7    1
     7     7     8    1
     8     8     9    1
     9     9    10    1
    10    10    11    1
    11    11    12    1
    12    12    13    1
    13    13    14    1
    14    14    15   ar
    15    15    16   ar
    16    16    17   ar
    17    17    18    1
    18    17    19   ar
    19    19    20   ar
    20    13    21    1
    21    21    22   ar
    22    22    23   ar
    23    23    24   ar
    24    24    25    1
    25    24    26   ar
    26    26    27   ar
    27     9    28    1
    28    28    29    1
    29    11     5    1
    30    20    14   ar
    31    27    21   ar
    32    28     6    1
    33     1    30    1
    34     1    31    1
    35     1    32    1
    36     5    33    1
    37     6    34    1
    38     7    35    1
    39     7    36    1
    40     8    37    1
    41     8    38    1
    42     9    39    1
    43    10    40    1
    44    10    41    1
    45    11    42    1
    46    13    43    1
    47    15    44    1
    48    16    45    1
    49    19    46    1
    50    20    47    1
    51    22    48    1
    52    23    49    1
    53    26    50    1
    54    27    51    1
    55    29    52    1
    56    29    53    1
    57    29    54    1
