@<TRIPOS>MOLECULE
*****
 37 40 0 0 0
SMALL
GASTEIGER

@<TRIPOS>ATOM
      1 O          -5.6678    2.5517    0.0903 O.2     1  UNL1       -0.2490
      2 C          -4.7092    1.8037    0.4341 C.2     1  UNL1        0.3247
      3 O          -4.8255    1.0163    1.5853 O.3     1  UNL1       -0.4794
      4 C          -3.4979    1.8053   -0.4188 C.3     1  UNL1        0.1202
      5 N          -2.4816    0.9097    0.0891 N.ar    1  UNL1       -0.3348
      6 C          -1.4511    1.2521    0.9213 C.ar    1  UNL1        0.0099
      7 C          -0.6722    0.1427    1.1681 C.ar    1  UNL1       -0.0158
      8 C           0.5430    0.0582    1.9731 C.3     1  UNL1        0.0233
      9 C           1.7663    0.1447    1.1060 C.ar    1  UNL1        0.0841
     10 N           2.4956    0.8971    0.5885 N.ar    1  UNL1       -0.2406
     11 C           3.5626    0.6909   -0.1504 C.ar    1  UNL1        0.1192
     12 C           4.4259    1.6267   -0.7636 C.ar    1  UNL1        0.1849
     13 F           4.2359    2.9634   -0.6502 F       1  UNL1       -0.2002
     14 C           5.4907    1.1735   -1.4983 C.ar    1  UNL1        0.1633
     15 F           6.3118    2.1076   -2.0820 F       1  UNL1       -0.2023
     16 C           5.8090   -0.1495   -1.7014 C.ar    1  UNL1        0.0129
     17 C           4.9530   -1.0798   -1.0929 C.ar    1  UNL1        0.1420
     18 F           5.1714   -2.3928   -1.2272 F       1  UNL1       -0.2042
     19 C           3.8811   -0.6411   -0.3535 C.ar    1  UNL1        0.0773
     20 S           2.5793   -1.4759    0.5637 S.2     1  UNL1       -0.0688
     21 C          -1.2591   -0.8825    0.4644 C.ar    1  UNL1        0.0045
     22 C          -0.9653   -2.2330    0.3159 C.ar    1  UNL1       -0.0522
     23 C          -1.7515   -3.0528   -0.4585 C.ar    1  UNL1       -0.0600
     24 C          -2.8556   -2.5653   -1.1120 C.ar    1  UNL1       -0.0457
     25 C          -3.1772   -1.2300   -0.9860 C.ar    1  UNL1        0.0419
     26 BR         -4.7315   -0.6103   -1.8980 Br      1  UNL1       -0.0481
     27 C          -2.3885   -0.3972   -0.2071 C.ar    1  UNL1        0.0640
     28 H          -5.4066    1.3677    2.3350 H       1  UNL1        0.2951
     29 H          -3.7203    1.6654   -1.4876 H       1  UNL1        0.0607
     30 H          -3.0739    2.8605   -0.3028 H       1  UNL1        0.0607
     31 H          -1.2986    2.2452    1.3072 H       1  UNL1        0.0812
     32 H           0.5219   -0.9253    2.5166 H       1  UNL1        0.0383
     33 H           0.6054    0.8172    2.7797 H       1  UNL1        0.0383
     34 H           6.6371   -0.5018   -2.2728 H       1  UNL1        0.0676
     35 H          -0.0875   -2.6248    0.8495 H       1  UNL1        0.0624
     36 H          -1.4970   -4.1018   -0.5556 H       1  UNL1        0.0618
     37 H          -3.4721   -3.2358   -1.7269 H       1  UNL1        0.0629
@<TRIPOS>BOND
     1     1     2    2
     2     2     3    1
     3     2     4    1
     4     4     5    1
     5     5     6   ar
     6     6     7   ar
     7     7     8    1
     8     8     9    1
     9     9    10   ar
    10    10    11   ar
    11    11    12   ar
    12    12    13    1
    13    12    14   ar
    14    14    15    1
    15    14    16   ar
    16    16    17   ar
    17    17    18    1
    18    17    19   ar
    19    19    20   ar
    20     7    21   ar
    21    21    22   ar
    22    22    23   ar
    23    23    24   ar
    24    24    25   ar
    25    25    26    1
    26    25    27   ar
    27    27     5   ar
    28    20     9   ar
    29    27    21   ar
    30    19    11   ar
    31     3    28    1
    32     4    29    1
    33     4    30    1
    34     6    31    1
    35     8    32    1
    36     8    33    1
    37    16    34    1
    38    22    35    1
    39    23    36    1
    40    24    37    1
