
     RDKit          3D

 37 40  0  0  0  0  0  0  0  0999 V2000
   -5.6678    2.5517    0.0903 O   0  0  0  0  0  0  0  0  0  0  0  0
   -4.7092    1.8037    0.4341 C   0  0  0  0  0  0  0  0  0  0  0  0
   -4.8255    1.0163    1.5853 O   0  0  0  0  0  0  0  0  0  0  0  0
   -3.4979    1.8053   -0.4188 C   0  0  0  0  0  0  0  0  0  0  0  0
   -2.4816    0.9097    0.0891 N   0  0  0  0  0  0  0  0  0  0  0  0
   -1.4511    1.2521    0.9213 C   0  0  0  0  0  0  0  0  0  0  0  0
   -0.6722    0.1427    1.1681 C   0  0  0  0  0  0  0  0  0  0  0  0
    0.5430    0.0582    1.9731 C   0  0  0  0  0  0  0  0  0  0  0  0
    1.7663    0.1447    1.1060 C   0  0  0  0  0  0  0  0  0  0  0  0
    2.4956    0.8971    0.5885 N   0  0  0  0  0  0  0  0  0  0  0  0
    3.5626    0.6909   -0.1504 C   0  0  0  0  0  0  0  0  0  0  0  0
    4.4259    1.6267   -0.7636 C   0  0  0  0  0  0  0  0  0  0  0  0
    4.2359    2.9634   -0.6502 F   0  0  0  0  0  0  0  0  0  0  0  0
    5.4907    1.1735   -1.4983 C   0  0  0  0  0  0  0  0  0  0  0  0
    6.3118    2.1076   -2.0820 F   0  0  0  0  0  0  0  0  0  0  0  0
    5.8090   -0.1495   -1.7014 C   0  0  0  0  0  0  0  0  0  0  0  0
    4.9530   -1.0798   -1.0929 C   0  0  0  0  0  0  0  0  0  0  0  0
    5.1714   -2.3928   -1.2272 F   0  0  0  0  0  0  0  0  0  0  0  0
    3.8811   -0.6411   -0.3535 C   0  0  0  0  0  0  0  0  0  0  0  0
    2.5793   -1.4759    0.5637 S   0  0  0  0  0  0  0  0  0  0  0  0
   -1.2591   -0.8825    0.4644 C   0  0  0  0  0  0  0  0  0  0  0  0
   -0.9653   -2.2330    0.3159 C   0  0  0  0  0  0  0  0  0  0  0  0
   -1.7515   -3.0528   -0.4585 C   0  0  0  0  0  0  0  0  0  0  0  0
   -2.8556   -2.5653   -1.1120 C   0  0  0  0  0  0  0  0  0  0  0  0
   -3.1772   -1.2300   -0.9860 C   0  0  0  0  0  0  0  0  0  0  0  0
   -4.7315   -0.6103   -1.8980 Br  0  0  0  0  0  0  0  0  0  0  0  0
   -2.3885   -0.3972   -0.2071 C   0  0  0  0  0  0  0  0  0  0  0  0
   -5.4066    1.3677    2.3350 H   0  0  0  0  0  0  0  0  0  0  0  0
   -3.7203    1.6654   -1.4876 H   0  0  0  0  0  0  0  0  0  0  0  0
   -3.0739    2.8605   -0.3028 H   0  0  0  0  0  0  0  0  0  0  0  0
   -1.2986    2.2452    1.3072 H   0  0  0  0  0  0  0  0  0  0  0  0
    0.5219   -0.9253    2.5166 H   0  0  0  0  0  0  0  0  0  0  0  0
    0.6054    0.8172    2.7797 H   0  0  0  0  0  0  0  0  0  0  0  0
    6.6371   -0.5018   -2.2728 H   0  0  0  0  0  0  0  0  0  0  0  0
   -0.0875   -2.6248    0.8495 H   0  0  0  0  0  0  0  0  0  0  0  0
   -1.4970   -4.1018   -0.5556 H   0  0  0  0  0  0  0  0  0  0  0  0
   -3.4721   -3.2358   -1.7269 H   0  0  0  0  0  0  0  0  0  0  0  0
  1  2  2  0
  2  3  1  0
  2  4  1  0
  4  5  1  0
  5  6  1  0
  6  7  2  0
  7  8  1  0
  8  9  1  0
  9 10  2  0
 10 11  1  0
 11 12  2  0
 12 13  1  0
 12 14  1  0
 14 15  1  0
 14 16  2  0
 16 17  1  0
 17 18  1  0
 17 19  2  0
 19 20  1  0
  7 21  1  0
 21 22  2  0
 22 23  1  0
 23 24  2  0
 24 25  1  0
 25 26  1  0
 25 27  2  0
 27  5  1  0
 20  9  1  0
 27 21  1  0
 19 11  1  0
  3 28  1  0
  4 29  1  0
  4 30  1  0
  6 31  1  0
  8 32  1  0
  8 33  1  0
 16 34  1  0
 22 35  1  0
 23 36  1  0
 24 37  1  0
M  END
$$$$
