
     RDKit          3D

 72 77  0  0  0  0  0  0  0  0999 V2000
    0.6944   -1.2299    2.0660 C   0  0  0  0  0  0  0  0  0  0  0  0
    1.3951   -0.5419    0.9508 C   0  0  0  0  0  0  0  0  0  0  0  0
    0.9426   -0.9492   -0.3156 C   0  0  0  0  0  0  0  0  0  0  0  0
   -0.0149   -1.8726   -0.5062 N   0  0  0  0  0  0  0  0  0  0  0  0
   -0.3909   -2.2148   -1.7649 C   0  0  0  0  0  0  0  0  0  0  0  0
   -1.4084   -3.2107   -1.5098 N   0  0  0  0  0  0  0  0  0  0  0  0
   -2.7097   -2.6991   -1.3607 C   0  0  0  0  0  0  0  0  0  0  0  0
   -3.6385   -3.5261   -0.7252 C   0  0  0  0  0  0  0  0  0  0  0  0
   -4.9387   -3.0399   -0.5637 C   0  0  0  0  0  0  0  0  0  0  0  0
   -5.2705   -1.7914   -1.0222 C   0  0  0  0  0  0  0  0  0  0  0  0
   -6.5870   -1.3744   -0.8180 O   0  0  0  0  0  0  0  0  0  0  0  0
   -7.4635   -2.2589   -0.1426 C   0  0  0  0  0  0  0  0  0  0  0  0
   -8.8347   -1.6345   -0.0047 C   0  0  0  0  0  0  0  0  0  0  0  0
   -8.7673   -0.3835    0.7219 N   0  0  0  0  0  0  0  0  0  0  0  0
   -8.3945   -0.5521    2.1217 C   0  0  0  0  0  0  0  0  0  0  0  0
   -8.6143    0.8793    2.6538 C   0  0  0  0  0  0  0  0  0  0  0  0
   -9.7212    1.4236    1.7675 C   0  0  0  0  0  0  0  0  0  0  0  0
  -10.0406    0.3172    0.7710 C   0  0  0  0  0  0  0  0  0  0  0  0
   -4.3773   -0.9381   -1.6612 C   0  0  0  0  0  0  0  0  0  0  0  0
   -3.1097   -1.4572   -1.7969 C   0  0  0  0  0  0  0  0  0  0  0  0
    0.1975   -1.6268   -2.8150 N   0  0  0  0  0  0  0  0  0  0  0  0
    1.1559   -0.7022   -2.6423 N   0  0  0  0  0  0  0  0  0  0  0  0
    1.5352   -0.3575   -1.4122 C   0  0  0  0  0  0  0  0  0  0  0  0
    2.5262    0.5889   -1.3146 C   0  0  0  0  0  0  0  0  0  0  0  0
    2.9756    0.9933   -0.0833 C   0  0  0  0  0  0  0  0  0  0  0  0
    2.4068    0.4259    1.0562 C   0  0  0  0  0  0  0  0  0  0  0  0
    3.9941    1.9166    0.3888 C   0  0  0  0  0  0  0  0  0  0  0  0
    5.2444    1.6977   -0.1972 C   0  0  0  0  0  0  0  0  0  0  0  0
    6.2734    2.5168    0.2542 C   0  0  0  0  0  0  0  0  0  0  0  0
    7.6217    2.5169   -0.1567 O   0  0  0  0  0  0  0  0  0  0  0  0
    8.3931    1.3952   -0.2027 C   0  0  0  0  0  0  0  0  0  0  0  0
    7.7963    0.3317    0.1673 O   0  0  0  0  0  0  0  0  0  0  0  0
    9.7834    1.3992   -0.6376 C   0  0  0  0  0  0  0  0  0  0  0  0
   10.4167    2.5596   -1.0282 C   0  0  0  0  0  0  0  0  0  0  0  0
   11.7298    2.5867   -1.4562 C   0  0  0  0  0  0  0  0  0  0  0  0
   12.4690    1.4007   -1.5041 C   0  0  0  0  0  0  0  0  0  0  0  0
   11.8619    0.1936   -1.1139 C   0  0  0  0  0  0  0  0  0  0  0  0
   10.5485    0.2620   -0.7006 C   0  0  0  0  0  0  0  0  0  0  0  0
    6.1051    3.4887    1.2127 C   0  0  0  0  0  0  0  0  0  0  0  0
    4.8357    3.6788    1.7737 C   0  0  0  0  0  0  0  0  0  0  0  0
    3.7957    2.8808    1.3462 C   0  0  0  0  0  0  0  0  0  0  0  0
    2.1869    3.0740    2.0143 Cl  0  0  0  0  0  0  0  0  0  0  0  0
   -0.3931   -1.3006    1.8646 H   0  0  0  0  0  0  0  0  0  0  0  0
    1.0882   -2.2471    2.2345 H   0  0  0  0  0  0  0  0  0  0  0  0
    0.7953   -0.6766    3.0386 H   0  0  0  0  0  0  0  0  0  0  0  0
   -1.2028   -4.2261   -1.4405 H   0  0  0  0  0  0  0  0  0  0  0  0
   -3.3285   -4.4988   -0.3872 H   0  0  0  0  0  0  0  0  0  0  0  0
   -5.6100   -3.7199   -0.0616 H   0  0  0  0  0  0  0  0  0  0  0  0
   -7.0545   -2.5877    0.8471 H   0  0  0  0  0  0  0  0  0  0  0  0
   -7.5813   -3.1770   -0.7520 H   0  0  0  0  0  0  0  0  0  0  0  0
   -9.4698   -2.3538    0.5720 H   0  0  0  0  0  0  0  0  0  0  0  0
   -9.2609   -1.5290   -1.0080 H   0  0  0  0  0  0  0  0  0  0  0  0
   -9.1126   -1.1935    2.6471 H   0  0  0  0  0  0  0  0  0  0  0  0
   -7.3354   -0.7824    2.2685 H   0  0  0  0  0  0  0  0  0  0  0  0
   -7.6881    1.4778    2.5466 H   0  0  0  0  0  0  0  0  0  0  0  0
   -8.8812    0.8702    3.7345 H   0  0  0  0  0  0  0  0  0  0  0  0
   -9.4438    2.3738    1.2916 H   0  0  0  0  0  0  0  0  0  0  0  0
  -10.5891    1.5843    2.4549 H   0  0  0  0  0  0  0  0  0  0  0  0
  -10.7849   -0.3528    1.2806 H   0  0  0  0  0  0  0  0  0  0  0  0
  -10.4237    0.6674   -0.1744 H   0  0  0  0  0  0  0  0  0  0  0  0
   -4.6876    0.0337   -2.0080 H   0  0  0  0  0  0  0  0  0  0  0  0
   -2.3705   -0.8391   -2.2834 H   0  0  0  0  0  0  0  0  0  0  0  0
    3.0511    1.1094   -2.0950 H   0  0  0  0  0  0  0  0  0  0  0  0
    2.5821    0.5726    2.1206 H   0  0  0  0  0  0  0  0  0  0  0  0
    5.5446    0.9974   -0.9416 H   0  0  0  0  0  0  0  0  0  0  0  0
    9.9249    3.5113   -1.0227 H   0  0  0  0  0  0  0  0  0  0  0  0
   12.1994    3.5215   -1.7545 H   0  0  0  0  0  0  0  0  0  0  0  0
   13.5011    1.4004   -1.8385 H   0  0  0  0  0  0  0  0  0  0  0  0
   12.4391   -0.7235   -1.1482 H   0  0  0  0  0  0  0  0  0  0  0  0
   10.0713   -0.6588   -0.3947 H   0  0  0  0  0  0  0  0  0  0  0  0
    6.8297    4.1678    1.6291 H   0  0  0  0  0  0  0  0  0  0  0  0
    4.5876    4.4126    2.5283 H   0  0  0  0  0  0  0  0  0  0  0  0
  1  2  1  0
  2  3  2  0
  3  4  1  0
  4  5  2  0
  5  6  1  0
  6  7  1  0
  7  8  2  0
  8  9  1  0
  9 10  2  0
 10 11  1  0
 11 12  1  0
 12 13  1  0
 13 14  1  0
 14 15  1  0
 15 16  1  0
 16 17  1  0
 17 18  1  0
 10 19  1  0
 19 20  2  0
  5 21  1  0
 21 22  2  0
 22 23  1  0
 23 24  2  0
 24 25  1  0
 25 26  2  0
 25 27  1  0
 27 28  2  0
 28 29  1  0
 29 30  1  0
 30 31  1  0
 31 32  2  0
 31 33  1  0
 33 34  2  0
 34 35  1  0
 35 36  2  0
 36 37  1  0
 37 38  2  0
 29 39  2  0
 39 40  1  0
 40 41  2  0
 41 42  1  0
 26  2  1  0
 41 27  1  0
 23  3  1  0
 38 33  1  0
 20  7  1  0
 18 14  1  0
  1 43  1  0
  1 44  1  0
  1 45  1  0
  6 46  1  0
  8 47  1  0
  9 48  1  0
 12 49  1  0
 12 50  1  0
 13 51  1  0
 13 52  1  0
 15 53  1  0
 15 54  1  0
 16 55  1  0
 16 56  1  0
 17 57  1  0
 17 58  1  0
 18 59  1  0
 18 60  1  0
 19 61  1  0
 20 62  1  0
 24 63  1  0
 26 64  1  0
 28 65  1  0
 34 66  1  0
 35 67  1  0
 36 68  1  0
 37 69  1  0
 38 70  1  0
 39 71  1  0
 40 72  1  0
M  END
$$$$
