
     RDKit          3D

 57 57  0  0  0  0  0  0  0  0999 V2000
   -3.6633    0.3921    1.1083 C   0  0  1  0  0  0  0  0  0  0  0  0
   -2.9165    0.1694    2.3908 C   0  0  0  0  0  0  0  0  0  0  0  0
   -5.0230    0.9772    1.3815 C   0  0  0  0  0  0  0  0  0  0  0  0
   -5.8203    1.2244    0.1408 C   0  0  0  0  0  0  0  0  0  0  0  0
   -2.8860    1.1551    0.0862 C   0  0  2  0  0  0  0  0  0  0  0  0
   -1.6625    0.4629   -0.2709 N   0  0  0  0  0  0  0  0  0  0  0  0
   -1.2975    0.0067   -1.5864 C   0  0  0  0  0  0  0  0  0  0  0  0
   -2.2200    0.3048   -2.4008 O   0  0  0  0  0  0  0  0  0  0  0  0
   -0.0340   -0.6819   -1.8288 C   0  0  1  0  0  0  0  0  0  0  0  0
    0.7961   -0.8583   -0.6509 N   0  0  0  0  0  0  0  0  0  0  0  0
    2.0729   -0.2276   -0.5333 C   0  0  0  0  0  0  0  0  0  0  0  0
    2.4848    0.5075   -1.4939 O   0  0  0  0  0  0  0  0  0  0  0  0
    2.9377   -0.3953    0.6638 C   0  0  1  0  0  0  0  0  0  0  0  0
    4.2468   -0.8130    0.2842 O   0  0  0  0  0  0  0  0  0  0  0  0
    4.1040    0.4871    0.7803 C   0  0  2  0  0  0  0  0  0  0  0  0
    4.8101    0.6615    2.0730 C   0  0  0  0  0  0  0  0  0  0  0  0
    4.9861   -0.0502    3.0740 O   0  0  0  0  0  0  0  0  0  0  0  0
    5.4722    1.8481    2.3659 O   0  0  0  0  0  0  0  0  0  0  0  0
    6.1295    1.9607    3.6137 C   0  0  0  0  0  0  0  0  0  0  0  0
    7.1989    0.9059    3.7665 C   0  0  0  0  0  0  0  0  0  0  0  0
   -0.1241   -1.9444   -2.6333 C   0  0  1  0  0  0  0  0  0  0  0  0
   -0.9650   -3.0313   -2.0749 C   0  0  0  0  0  0  0  0  0  0  0  0
   -0.5583   -1.6804   -4.0596 C   0  0  0  0  0  0  0  0  0  0  0  0
   -0.6439   -2.9642   -4.8565 C   0  0  0  0  0  0  0  0  0  0  0  0
   -2.5861    2.5496    0.5395 C   0  0  0  0  0  0  0  0  0  0  0  0
   -1.6242    3.4955    0.7739 O   0  0  0  0  0  0  0  0  0  0  0  0
   -3.4123    3.4429    0.9281 O   0  0  0  0  0  0  0  0  0  0  0  0
   -3.8548   -0.6195    0.6844 H   0  0  0  0  0  0  0  0  0  0  0  0
   -2.1980    0.9792    2.6454 H   0  0  0  0  0  0  0  0  0  0  0  0
   -2.2765   -0.7542    2.3020 H   0  0  0  0  0  0  0  0  0  0  0  0
   -3.6116   -0.0311    3.2300 H   0  0  0  0  0  0  0  0  0  0  0  0
   -5.6207    0.3422    2.0653 H   0  0  0  0  0  0  0  0  0  0  0  0
   -4.9253    1.9537    1.9065 H   0  0  0  0  0  0  0  0  0  0  0  0
   -5.6723    2.2717   -0.2262 H   0  0  0  0  0  0  0  0  0  0  0  0
   -6.8961    1.1744    0.4078 H   0  0  0  0  0  0  0  0  0  0  0  0
   -5.6598    0.4780   -0.6663 H   0  0  0  0  0  0  0  0  0  0  0  0
   -3.4629    1.2571   -0.8331 H   0  0  0  0  0  0  0  0  0  0  0  0
   -1.0237    0.3123    0.5632 H   0  0  0  0  0  0  0  0  0  0  0  0
    0.5778    0.0036   -2.4910 H   0  0  0  0  0  0  0  0  0  0  0  0
    0.4406   -1.4700    0.1353 H   0  0  0  0  0  0  0  0  0  0  0  0
    2.5666   -1.0394    1.4961 H   0  0  0  0  0  0  0  0  0  0  0  0
    4.1472    1.3475    0.0958 H   0  0  0  0  0  0  0  0  0  0  0  0
    6.6195    2.9532    3.7103 H   0  0  0  0  0  0  0  0  0  0  0  0
    5.4171    1.8777    4.4646 H   0  0  0  0  0  0  0  0  0  0  0  0
    7.2806    0.3191    2.8258 H   0  0  0  0  0  0  0  0  0  0  0  0
    7.0386    0.2596    4.6537 H   0  0  0  0  0  0  0  0  0  0  0  0
    8.2117    1.3704    3.9409 H   0  0  0  0  0  0  0  0  0  0  0  0
    0.9220   -2.3415   -2.6977 H   0  0  0  0  0  0  0  0  0  0  0  0
   -0.8689   -3.1345   -0.9638 H   0  0  0  0  0  0  0  0  0  0  0  0
   -0.5886   -4.0004   -2.4770 H   0  0  0  0  0  0  0  0  0  0  0  0
   -2.0288   -2.9993   -2.3915 H   0  0  0  0  0  0  0  0  0  0  0  0
   -1.5219   -1.1424   -4.1146 H   0  0  0  0  0  0  0  0  0  0  0  0
    0.2270   -1.0499   -4.5305 H   0  0  0  0  0  0  0  0  0  0  0  0
   -1.3675   -3.6521   -4.3364 H   0  0  0  0  0  0  0  0  0  0  0  0
   -1.0224   -2.7209   -5.8598 H   0  0  0  0  0  0  0  0  0  0  0  0
    0.3758   -3.4050   -4.8698 H   0  0  0  0  0  0  0  0  0  0  0  0
   -1.0269    3.5557    1.5781 H   0  0  0  0  0  0  0  0  0  0  0  0
  1  2  1  0
  1  3  1  0
  3  4  1  0
  1  5  1  0
  5  6  1  0
  6  7  1  0
  7  8  2  0
  7  9  1  0
  9 10  1  0
 10 11  1  0
 11 12  2  0
 11 13  1  0
 13 14  1  0
 14 15  1  0
 15 16  1  0
 16 17  2  0
 16 18  1  0
 18 19  1  0
 19 20  1  0
  9 21  1  0
 21 22  1  0
 21 23  1  0
 23 24  1  0
  5 25  1  0
 25 26  1  0
 25 27  2  0
 15 13  1  0
  1 28  1  6
  2 29  1  0
  2 30  1  0
  2 31  1  0
  3 32  1  0
  3 33  1  0
  4 34  1  0
  4 35  1  0
  4 36  1  0
  5 37  1  6
  6 38  1  0
  9 39  1  6
 10 40  1  0
 13 41  1  1
 15 42  1  6
 19 43  1  0
 19 44  1  0
 20 45  1  0
 20 46  1  0
 20 47  1  0
 21 48  1  6
 22 49  1  0
 22 50  1  0
 22 51  1  0
 23 52  1  0
 23 53  1  0
 24 54  1  0
 24 55  1  0
 24 56  1  0
 26 57  1  0
M  END
$$$$
