@<TRIPOS>MOLECULE
*****
 52 55 0 0 0
SMALL
GASTEIGER

@<TRIPOS>ATOM
      1 N          -2.8548    1.3438   -0.0509 N.3     1  UNL1       -0.3265
      2 C          -2.7778   -0.0402    0.3084 C.3     1  UNL1        0.0172
      3 C          -1.8345   -0.2192    1.4777 C.3     1  UNL1        0.0396
      4 C          -0.4635    0.2539    1.1461 C.2     1  UNL1        0.2177
      5 O          -0.2865    0.7169   -0.0001 O.2     1  UNL1       -0.2755
      6 N           0.5963    0.1862    2.0807 N.am    1  UNL1       -0.2897
      7 C           0.4996   -0.3539    3.4618 C.3     1  UNL1        0.0155
      8 C           1.7588   -1.2101    3.5377 C.3     1  UNL1       -0.0350
      9 C           2.6343   -0.7827    2.3580 C.3     1  UNL1       -0.0241
     10 C           1.9804    0.5700    2.0252 C.3     1  UNL1        0.1048
     11 C           2.4606    1.0917    0.7460 C.ar    1  UNL1        0.2479
     12 N           3.5933    0.7000    0.1029 N.ar    1  UNL1       -0.1945
     13 C           3.6931    1.4083   -1.0367 C.ar    1  UNL1        0.1721
     14 C           4.7966    1.2990   -2.0548 C.3     1  UNL1        0.0135
     15 C           5.7775    0.2586   -1.5786 C.3     1  UNL1       -0.0340
     16 C           6.9824   -0.0897   -2.3536 C.3     1  UNL1       -0.0496
     17 C           5.8279   -0.9966   -2.4132 C.3     1  UNL1       -0.0496
     18 N           2.6219    2.2237   -1.0775 N.ar    1  UNL1       -0.0612
     19 O           1.9339    1.9915   -0.0014 O.2     1  UNL1       -0.3361
     20 C          -4.1507   -0.5922    0.6506 C.3     1  UNL1       -0.0092
     21 C          -5.0717   -0.4747   -0.4981 C.ar    1  UNL1       -0.0078
     22 C          -5.3827   -1.5743   -1.2786 C.ar    1  UNL1       -0.0176
     23 C          -6.2350   -1.4874   -2.3563 C.ar    1  UNL1        0.1588
     24 F          -6.5092   -2.5924   -3.0909 F       1  UNL1       -0.2025
     25 C          -6.8050   -0.2674   -2.6793 C.ar    1  UNL1        0.1611
     26 F          -7.6461   -0.1223   -3.7226 F       1  UNL1       -0.2024
     27 C          -6.5108    0.8466   -1.9155 C.ar    1  UNL1        0.0119
     28 C          -5.6533    0.7264   -0.8423 C.ar    1  UNL1        0.1295
     29 F          -5.4168    1.8627   -0.1379 F       1  UNL1       -0.2051
     30 H          -2.2460    1.9057    0.5838 H       1  UNL1        0.1185
     31 H          -2.5103    1.4794   -1.0263 H       1  UNL1        0.1185
     32 H          -2.4381   -0.6310   -0.5747 H       1  UNL1        0.0466
     33 H          -2.2710    0.3009    2.3300 H       1  UNL1        0.0374
     34 H          -1.7931   -1.3022    1.7161 H       1  UNL1        0.0374
     35 H           0.6502    0.4980    4.1439 H       1  UNL1        0.0465
     36 H          -0.4169   -0.9195    3.6001 H       1  UNL1        0.0465
     37 H           2.3563   -0.9428    4.4577 H       1  UNL1        0.0281
     38 H           1.5251   -2.2947    3.5016 H       1  UNL1        0.0281
     39 H           3.6891   -0.6646    2.6442 H       1  UNL1        0.0288
     40 H           2.4953   -1.4461    1.4879 H       1  UNL1        0.0288
     41 H           2.2048    1.2663    2.8747 H       1  UNL1        0.0599
     42 H           4.3670    1.0552   -3.0467 H       1  UNL1        0.0348
     43 H           5.2711    2.3158   -2.0837 H       1  UNL1        0.0348
     44 H           5.8529    0.1312   -0.4581 H       1  UNL1        0.0305
     45 H           7.8725   -0.4692   -1.7764 H       1  UNL1        0.0268
     46 H           7.2962    0.4926   -3.2394 H       1  UNL1        0.0268
     47 H           5.2828   -1.0566   -3.3644 H       1  UNL1        0.0268
     48 H           5.7981   -1.9374   -1.8326 H       1  UNL1        0.0268
     49 H          -4.0760   -1.6788    0.9056 H       1  UNL1        0.0329
     50 H          -4.5884   -0.0606    1.5226 H       1  UNL1        0.0329
     51 H          -4.9221   -2.5370   -1.0095 H       1  UNL1        0.0651
     52 H          -6.9577    1.8194   -2.1633 H       1  UNL1        0.0676
@<TRIPOS>BOND
     1     1     2    1
     2     2     3    1
     3     3     4    1
     4     4     5    2
     5     4     6   am
     6     6     7    1
     7     7     8    1
     8     8     9    1
     9     9    10    1
    10    10    11    1
    11    11    12   ar
    12    12    13   ar
    13    13    14    1
    14    14    15    1
    15    15    16    1
    16    16    17    1
    17    13    18   ar
    18    18    19   ar
    19     2    20    1
    20    20    21    1
    21    21    22   ar
    22    22    23   ar
    23    23    24    1
    24    23    25   ar
    25    25    26    1
    26    25    27   ar
    27    27    28   ar
    28    28    29    1
    29    10     6    1
    30    19    11   ar
    31    28    21   ar
    32    17    15    1
    33     1    30    1
    34     1    31    1
    35     2    32    1
    36     3    33    1
    37     3    34    1
    38     7    35    1
    39     7    36    1
    40     8    37    1
    41     8    38    1
    42     9    39    1
    43     9    40    1
    44    10    41    1
    45    14    42    1
    46    14    43    1
    47    15    44    1
    48    16    45    1
    49    16    46    1
    50    17    47    1
    51    17    48    1
    52    20    49    1
    53    20    50    1
    54    22    51    1
    55    27    52    1
