
     RDKit          3D

 52 55  0  0  0  0  0  0  0  0999 V2000
   -2.8548    1.3438   -0.0509 N   0  0  0  0  0  0  0  0  0  0  0  0
   -2.7778   -0.0402    0.3084 C   0  0  1  0  0  0  0  0  0  0  0  0
   -1.8345   -0.2192    1.4777 C   0  0  0  0  0  0  0  0  0  0  0  0
   -0.4635    0.2539    1.1461 C   0  0  0  0  0  0  0  0  0  0  0  0
   -0.2865    0.7169   -0.0001 O   0  0  0  0  0  0  0  0  0  0  0  0
    0.5963    0.1862    2.0807 N   0  0  0  0  0  0  0  0  0  0  0  0
    0.4996   -0.3539    3.4618 C   0  0  0  0  0  0  0  0  0  0  0  0
    1.7588   -1.2101    3.5377 C   0  0  0  0  0  0  0  0  0  0  0  0
    2.6343   -0.7827    2.3580 C   0  0  0  0  0  0  0  0  0  0  0  0
    1.9804    0.5700    2.0252 C   0  0  1  0  0  0  0  0  0  0  0  0
    2.4606    1.0917    0.7460 C   0  0  0  0  0  0  0  0  0  0  0  0
    3.5933    0.7000    0.1029 N   0  0  0  0  0  0  0  0  0  0  0  0
    3.6931    1.4083   -1.0367 C   0  0  0  0  0  0  0  0  0  0  0  0
    4.7966    1.2990   -2.0548 C   0  0  0  0  0  0  0  0  0  0  0  0
    5.7775    0.2586   -1.5786 C   0  0  0  0  0  0  0  0  0  0  0  0
    6.9824   -0.0897   -2.3536 C   0  0  0  0  0  0  0  0  0  0  0  0
    5.8279   -0.9966   -2.4132 C   0  0  0  0  0  0  0  0  0  0  0  0
    2.6219    2.2237   -1.0775 N   0  0  0  0  0  0  0  0  0  0  0  0
    1.9339    1.9915   -0.0014 O   0  0  0  0  0  0  0  0  0  0  0  0
   -4.1507   -0.5922    0.6506 C   0  0  0  0  0  0  0  0  0  0  0  0
   -5.0717   -0.4747   -0.4981 C   0  0  0  0  0  0  0  0  0  0  0  0
   -5.3827   -1.5743   -1.2786 C   0  0  0  0  0  0  0  0  0  0  0  0
   -6.2350   -1.4874   -2.3563 C   0  0  0  0  0  0  0  0  0  0  0  0
   -6.5092   -2.5924   -3.0909 F   0  0  0  0  0  0  0  0  0  0  0  0
   -6.8050   -0.2674   -2.6793 C   0  0  0  0  0  0  0  0  0  0  0  0
   -7.6461   -0.1223   -3.7226 F   0  0  0  0  0  0  0  0  0  0  0  0
   -6.5108    0.8466   -1.9155 C   0  0  0  0  0  0  0  0  0  0  0  0
   -5.6533    0.7264   -0.8423 C   0  0  0  0  0  0  0  0  0  0  0  0
   -5.4168    1.8627   -0.1379 F   0  0  0  0  0  0  0  0  0  0  0  0
   -2.2460    1.9057    0.5838 H   0  0  0  0  0  0  0  0  0  0  0  0
   -2.5103    1.4794   -1.0263 H   0  0  0  0  0  0  0  0  0  0  0  0
   -2.4381   -0.6310   -0.5747 H   0  0  0  0  0  0  0  0  0  0  0  0
   -2.2710    0.3009    2.3300 H   0  0  0  0  0  0  0  0  0  0  0  0
   -1.7931   -1.3022    1.7161 H   0  0  0  0  0  0  0  0  0  0  0  0
    0.6502    0.4980    4.1439 H   0  0  0  0  0  0  0  0  0  0  0  0
   -0.4169   -0.9195    3.6001 H   0  0  0  0  0  0  0  0  0  0  0  0
    2.3563   -0.9428    4.4577 H   0  0  0  0  0  0  0  0  0  0  0  0
    1.5251   -2.2947    3.5016 H   0  0  0  0  0  0  0  0  0  0  0  0
    3.6891   -0.6646    2.6442 H   0  0  0  0  0  0  0  0  0  0  0  0
    2.4953   -1.4461    1.4879 H   0  0  0  0  0  0  0  0  0  0  0  0
    2.2048    1.2663    2.8747 H   0  0  0  0  0  0  0  0  0  0  0  0
    4.3670    1.0552   -3.0467 H   0  0  0  0  0  0  0  0  0  0  0  0
    5.2711    2.3158   -2.0837 H   0  0  0  0  0  0  0  0  0  0  0  0
    5.8529    0.1312   -0.4581 H   0  0  0  0  0  0  0  0  0  0  0  0
    7.8725   -0.4692   -1.7764 H   0  0  0  0  0  0  0  0  0  0  0  0
    7.2962    0.4926   -3.2394 H   0  0  0  0  0  0  0  0  0  0  0  0
    5.2828   -1.0566   -3.3644 H   0  0  0  0  0  0  0  0  0  0  0  0
    5.7981   -1.9374   -1.8326 H   0  0  0  0  0  0  0  0  0  0  0  0
   -4.0760   -1.6788    0.9056 H   0  0  0  0  0  0  0  0  0  0  0  0
   -4.5884   -0.0606    1.5226 H   0  0  0  0  0  0  0  0  0  0  0  0
   -4.9221   -2.5370   -1.0095 H   0  0  0  0  0  0  0  0  0  0  0  0
   -6.9577    1.8194   -2.1633 H   0  0  0  0  0  0  0  0  0  0  0  0
  1  2  1  0
  2  3  1  0
  3  4  1  0
  4  5  2  0
  4  6  1  0
  6  7  1  0
  7  8  1  0
  8  9  1  0
  9 10  1  0
 10 11  1  0
 11 12  2  0
 12 13  1  0
 13 14  1  0
 14 15  1  0
 15 16  1  0
 16 17  1  0
 13 18  2  0
 18 19  1  0
  2 20  1  0
 20 21  1  0
 21 22  2  0
 22 23  1  0
 23 24  1  0
 23 25  2  0
 25 26  1  0
 25 27  1  0
 27 28  2  0
 28 29  1  0
 10  6  1  0
 19 11  1  0
 28 21  1  0
 17 15  1  0
  1 30  1  0
  1 31  1  0
  2 32  1  6
  3 33  1  0
  3 34  1  0
  7 35  1  0
  7 36  1  0
  8 37  1  0
  8 38  1  0
  9 39  1  0
  9 40  1  0
 10 41  1  1
 14 42  1  0
 14 43  1  0
 15 44  1  0
 16 45  1  0
 16 46  1  0
 17 47  1  0
 17 48  1  0
 20 49  1  0
 20 50  1  0
 22 51  1  0
 27 52  1  0
M  END
$$$$
