@<TRIPOS>MOLECULE
*****
 62 64 0 0 0
SMALL
GASTEIGER

@<TRIPOS>ATOM
      1 C          -3.7706    1.1518    2.7431 C.3     1  UNL1        0.0788
      2 O          -3.1788    0.9645    1.4699 O.3     1  UNL1       -0.4944
      3 C          -3.9006    0.4466    0.4114 C.ar    1  UNL1        0.1303
      4 C          -3.8997   -0.9224    0.2412 C.ar    1  UNL1        0.0404
      5 C          -3.1824   -1.8835    1.1082 C.3     1  UNL1       -0.0023
      6 C          -1.7374   -1.8767    0.8204 C.2     1  UNL1       -0.0805
      7 C          -0.7236   -1.5940    1.6267 C.2     1  UNL1       -0.0757
      8 C          -0.9031   -1.2191    3.0259 C.3     1  UNL1       -0.0438
      9 C           0.6888   -1.6277    1.1995 C.3     1  UNL1       -0.0219
     10 C           1.3857   -0.2988    1.3465 C.3     1  UNL1        0.0486
     11 C           2.8090   -0.4341    0.8882 C.2     1  UNL1        0.3074
     12 O           3.4403    0.6330    0.9894 O.2     1  UNL1       -0.2508
     13 O           3.3016   -1.6022    0.4266 O.3     1  UNL1       -0.4633
     14 C           4.5708   -1.9042   -0.0329 C.3     1  UNL1        0.1051
     15 C           5.0777   -1.1701   -1.2169 C.3     1  UNL1        0.0334
     16 N           5.1972    0.2585   -0.9780 N.3     1  UNL1       -0.2948
     17 C           5.5989    0.9088   -2.2562 C.3     1  UNL1        0.0225
     18 C           5.7126    2.3896   -1.9804 C.3     1  UNL1        0.0604
     19 O           6.7593    2.5979   -1.0794 O.3     1  UNL1       -0.3772
     20 C           6.4847    1.9512    0.1300 C.3     1  UNL1        0.0604
     21 C           6.3996    0.4802   -0.1326 C.3     1  UNL1        0.0225
     22 C          -4.6528   -1.3629   -0.8509 C.ar    1  UNL1        0.1381
     23 O          -4.6704   -2.7491   -1.0493 O.3     1  UNL1       -0.5055
     24 C          -5.3454   -0.5660   -1.7045 C.ar    1  UNL1        0.1074
     25 C          -6.1679   -0.8467   -2.8719 C.2     1  UNL1        0.3435
     26 O          -6.4114   -2.0038   -3.3521 O.2     1  UNL1       -0.2448
     27 O          -6.6310    0.3560   -3.3586 O.3     1  UNL1       -0.4563
     28 C          -6.1600    1.4171   -2.5769 C.3     1  UNL1        0.1191
     29 C          -5.3328    0.7816   -1.5183 C.ar    1  UNL1        0.0136
     30 C          -4.6095    1.2754   -0.4606 C.ar    1  UNL1       -0.0011
     31 C          -4.5836    2.7628   -0.2383 C.3     1  UNL1       -0.0358
     32 H          -4.3383    2.1189    2.7870 H       1  UNL1        0.0660
     33 H          -4.4771    0.3191    3.0028 H       1  UNL1        0.0660
     34 H          -2.9636    1.1250    3.5085 H       1  UNL1        0.0660
     35 H          -3.4258   -1.7572    2.1783 H       1  UNL1        0.0358
     36 H          -3.5511   -2.9005    0.8563 H       1  UNL1        0.0358
     37 H          -1.5364   -2.1507   -0.2182 H       1  UNL1        0.0575
     38 H          -0.5350   -0.1560    3.1171 H       1  UNL1        0.0274
     39 H          -1.9080   -1.2273    3.4304 H       1  UNL1        0.0274
     40 H          -0.2353   -1.8580    3.6743 H       1  UNL1        0.0274
     41 H           0.7063   -1.9746    0.1632 H       1  UNL1        0.0315
     42 H           1.2406   -2.3933    1.7998 H       1  UNL1        0.0315
     43 H           1.4427    0.0522    2.3754 H       1  UNL1        0.0381
     44 H           0.9061    0.4157    0.6454 H       1  UNL1        0.0381
     45 H           4.5925   -3.0087   -0.2760 H       1  UNL1        0.0710
     46 H           5.2565   -1.8147    0.8535 H       1  UNL1        0.0710
     47 H           4.2890   -1.2538   -2.0224 H       1  UNL1        0.0460
     48 H           5.9783   -1.6038   -1.6494 H       1  UNL1        0.0460
     49 H           6.5938    0.5320   -2.5490 H       1  UNL1        0.0449
     50 H           4.8556    0.7116   -3.0499 H       1  UNL1        0.0449
     51 H           5.9854    2.9055   -2.9283 H       1  UNL1        0.0572
     52 H           4.7266    2.7239   -1.5715 H       1  UNL1        0.0572
     53 H           5.5198    2.3235    0.4828 H       1  UNL1        0.0572
     54 H           7.3217    2.2133    0.8120 H       1  UNL1        0.0572
     55 H           7.2638    0.1996   -0.7857 H       1  UNL1        0.0449
     56 H           6.3711   -0.1085    0.7852 H       1  UNL1        0.0449
     57 H          -5.3128   -3.2454   -0.4390 H       1  UNL1        0.2922
     58 H          -7.0244    1.8700   -2.0438 H       1  UNL1        0.0749
     59 H          -5.6155    2.2045   -3.1393 H       1  UNL1        0.0749
     60 H          -3.8579    3.0334    0.5437 H       1  UNL1        0.0279
     61 H          -5.5739    3.1003    0.0685 H       1  UNL1        0.0279
     62 H          -4.2596    3.2901   -1.1809 H       1  UNL1        0.0279
@<TRIPOS>BOND
     1     1     2    1
     2     2     3    1
     3     3     4   ar
     4     4     5    1
     5     5     6    1
     6     6     7    2
     7     7     8    1
     8     7     9    1
     9     9    10    1
    10    10    11    1
    11    11    12    2
    12    11    13    1
    13    13    14    1
    14    14    15    1
    15    15    16    1
    16    16    17    1
    17    17    18    1
    18    18    19    1
    19    19    20    1
    20    20    21    1
    21     4    22   ar
    22    22    23    1
    23    22    24   ar
    24    24    25    1
    25    25    26    2
    26    25    27    1
    27    27    28    1
    28    28    29    1
    29    29    30   ar
    30    30    31    1
    31    30     3   ar
    32    21    16    1
    33    29    24   ar
    34     1    32    1
    35     1    33    1
    36     1    34    1
    37     5    35    1
    38     5    36    1
    39     6    37    1
    40     8    38    1
    41     8    39    1
    42     8    40    1
    43     9    41    1
    44     9    42    1
    45    10    43    1
    46    10    44    1
    47    14    45    1
    48    14    46    1
    49    15    47    1
    50    15    48    1
    51    17    49    1
    52    17    50    1
    53    18    51    1
    54    18    52    1
    55    20    53    1
    56    20    54    1
    57    21    55    1
    58    21    56    1
    59    23    57    1
    60    28    58    1
    61    28    59    1
    62    31    60    1
    63    31    61    1
    64    31    62    1
