@<TRIPOS>MOLECULE
*****
 56 60 0 0 0
SMALL
GASTEIGER

@<TRIPOS>ATOM
      1 C          -0.5783    3.2915    0.5785 C.3     1  UNL1       -0.0351
      2 C          -0.7158    1.7903    0.1946 C.3     1  UNL1        0.0935
      3 C           0.4277    1.1623    0.9348 C.ar    1  UNL1        0.0158
      4 C           1.4952    0.7117    0.1989 C.ar    1  UNL1       -0.0463
      5 C           2.6036    0.1241    0.8077 C.ar    1  UNL1       -0.0217
      6 C           3.7500   -0.3750    0.0526 C.2     1  UNL1       -0.0171
      7 C           4.9845   -0.1714    0.4636 C.2     1  UNL1        0.1506
      8 F           5.1089    0.5324    1.6319 F       1  UNL1       -0.2032
      9 C           6.1645   -0.6418   -0.2423 C.ar    1  UNL1        0.1170
     10 C           6.1036   -1.3371   -1.3969 C.ar    1  UNL1        0.0572
     11 N           7.2049   -1.7742   -2.0579 N.ar    1  UNL1       -0.2409
     12 C           8.4036   -1.5020   -1.5388 C.ar    1  UNL1        0.1581
     13 C           9.5541   -1.9646   -2.2557 C.1     1  UNL1        0.1206
     14 N          10.4813   -2.3527   -2.8423 N.1     1  UNL1       -0.1892
     15 C           8.4812   -0.7918   -0.3574 C.ar    1  UNL1        0.0642
     16 N           7.3793   -0.3704    0.2775 N.ar    1  UNL1       -0.2483
     17 C           2.5653    0.0233    2.1732 C.ar    1  UNL1       -0.0518
     18 C           1.4774    0.4826    2.9274 C.ar    1  UNL1       -0.0255
     19 C           0.3927    1.0595    2.3048 C.ar    1  UNL1        0.1289
     20 F          -0.6838    1.5137    3.0310 F       1  UNL1       -0.2051
     21 N          -0.4325    1.7719   -1.2119 N.2     1  UNL1       -0.2521
     22 C          -0.7537    0.8574   -2.0348 C.2     1  UNL1        0.1485
     23 N          -0.4589    0.8679   -3.4125 N.pl3   1  UNL1       -0.3380
     24 S          -1.6635   -0.5361   -1.3662 S.3     1  UNL1       -0.0746
     25 C          -2.6826    0.1924   -0.0357 C.3     1  UNL1        0.1054
     26 C          -4.1074    0.3453   -0.4165 C.2     1  UNL1        0.2325
     27 O          -4.3889    1.4395   -1.0059 O.2     1  UNL1       -0.2741
     28 N          -5.1139   -0.5973   -0.1775 N.am    1  UNL1       -0.2975
     29 C          -6.5115   -0.4581   -0.5402 C.3     1  UNL1        0.0175
     30 C          -7.2238   -0.9349    0.7144 C.3     1  UNL1       -0.0044
     31 C          -6.2708   -1.9493    1.2923 C.3     1  UNL1        0.1180
     32 F          -6.8359   -3.2119    1.2849 F       1  UNL1       -0.2438
     33 C          -5.0075   -1.8906    0.4646 C.3     1  UNL1        0.0459
     34 C          -2.2258    0.0144    1.3376 C.3     1  UNL1       -0.0220
     35 C          -2.0311    1.3069    0.6428 C.3     1  UNL1        0.0134
     36 H          -1.4166    3.7993    0.0466 H       1  UNL1        0.0256
     37 H          -0.6327    3.4035    1.6661 H       1  UNL1        0.0256
     38 H           0.3724    3.6948    0.1871 H       1  UNL1        0.0256
     39 H           1.5345    0.7854   -0.8831 H       1  UNL1        0.0628
     40 H           3.5849   -0.9363   -0.8870 H       1  UNL1        0.0653
     41 H           5.1565   -1.5972   -1.8762 H       1  UNL1        0.0852
     42 H           9.4928   -0.5993    0.0226 H       1  UNL1        0.0859
     43 H           3.3998   -0.4347    2.7112 H       1  UNL1        0.0624
     44 H           1.4915    0.3812    4.0092 H       1  UNL1        0.0646
     45 H           0.5526    0.7077   -3.6849 H       1  UNL1        0.1442
     46 H          -1.1239    1.0157   -4.1901 H       1  UNL1        0.1442
     47 H          -6.7571    0.5857   -0.7988 H       1  UNL1        0.0465
     48 H          -6.7951   -1.0996   -1.4064 H       1  UNL1        0.0465
     49 H          -8.2002   -1.3465    0.4259 H       1  UNL1        0.0309
     50 H          -7.3121   -0.0304    1.3837 H       1  UNL1        0.0309
     51 H          -5.9904   -1.6684    2.3429 H       1  UNL1        0.0667
     52 H          -5.0247   -2.7224   -0.2880 H       1  UNL1        0.0493
     53 H          -4.0953   -1.9227    1.0943 H       1  UNL1        0.0493
     54 H          -1.3949   -0.7019    1.4989 H       1  UNL1        0.0287
     55 H          -2.9969   -0.0595    2.1310 H       1  UNL1        0.0287
     56 H          -2.7371    2.1180    0.9989 H       1  UNL1        0.0346
@<TRIPOS>BOND
     1     2     1    1
     2     2     3    1
     3     3     4   ar
     4     4     5   ar
     5     5     6    1
     6     6     7    2
     7     7     8    1
     8     7     9    1
     9     9    10   ar
    10    10    11   ar
    11    11    12   ar
    12    12    13    1
    13    13    14    3
    14    12    15   ar
    15    15    16   ar
    16     5    17   ar
    17    17    18   ar
    18    18    19   ar
    19    19    20    1
    20     2    21    1
    21    21    22    2
    22    22    23    1
    23    22    24    1
    24    24    25    1
    25    25    26    1
    26    26    27    2
    27    26    28   am
    28    28    29    1
    29    29    30    1
    30    30    31    1
    31    31    32    1
    32    31    33    1
    33    25    34    1
    34    34    35    1
    35    35     2    1
    36    19     3   ar
    37    35    25    1
    38    16     9   ar
    39    33    28    1
    40     1    36    1
    41     1    37    1
    42     1    38    1
    43     4    39    1
    44     6    40    1
    45    10    41    1
    46    15    42    1
    47    17    43    1
    48    18    44    1
    49    23    45    1
    50    23    46    1
    51    29    47    1
    52    29    48    1
    53    30    49    1
    54    30    50    1
    55    31    51    1
    56    33    52    1
    57    33    53    1
    58    34    54    1
    59    34    55    1
    60    35    56    1
