
     RDKit          3D

 45 48  0  0  0  0  0  0  0  0999 V2000
   -1.3116    1.3397    0.7361 O   0  0  0  0  0  0  0  0  0  0  0  0
   -2.5657    1.2645    0.6775 C   0  0  0  0  0  0  0  0  0  0  0  0
   -3.3962    2.3815    0.9902 N   0  0  0  0  0  0  0  0  0  0  0  0
   -4.8044    2.2494    0.9100 C   0  0  0  0  0  0  0  0  0  0  0  0
   -5.5249    3.2728    1.1977 O   0  0  0  0  0  0  0  0  0  0  0  0
   -5.3952    0.9966    0.5157 C   0  0  0  0  0  0  0  0  0  0  0  0
   -6.7616    0.8679    0.4378 C   0  0  0  0  0  0  0  0  0  0  0  0
   -7.3835   -0.2987    0.0684 C   0  0  0  0  0  0  0  0  0  0  0  0
   -6.6085   -1.3864   -0.2370 C   0  0  0  0  0  0  0  0  0  0  0  0
   -7.5087   -3.2099   -0.8122 I   0  0  0  0  0  0  0  0  0  0  0  0
   -5.2356   -1.2983   -0.1711 C   0  0  0  0  0  0  0  0  0  0  0  0
   -4.6152   -0.0982    0.2082 C   0  0  0  0  0  0  0  0  0  0  0  0
   -3.1707    0.0005    0.2793 C   0  0  0  0  0  0  0  0  0  0  0  0
   -2.4071   -1.0244   -0.0076 C   0  0  0  0  0  0  0  0  0  0  0  0
   -0.9940   -0.8484    0.0860 N   0  0  0  0  0  0  0  0  0  0  0  0
   -0.2398   -0.6382   -1.1095 C   0  0  0  0  0  0  0  0  0  0  0  0
    1.1906   -0.4856   -0.7407 C   0  0  0  0  0  0  0  0  0  0  0  0
    1.9805   -1.6260   -0.6905 C   0  0  0  0  0  0  0  0  0  0  0  0
    3.3192   -1.5614   -0.3551 C   0  0  0  0  0  0  0  0  0  0  0  0
    3.9018   -0.3330   -0.0587 C   0  0  0  0  0  0  0  0  0  0  0  0
    5.2959   -0.2146    0.2971 C   0  0  0  0  0  0  0  0  0  0  0  0
    6.0763    0.7687   -0.2538 C   0  0  0  0  0  0  0  0  0  0  0  0
    7.4297    0.8821    0.0929 C   0  0  0  0  0  0  0  0  0  0  0  0
    7.9815    0.0302    0.9689 N   0  0  0  0  0  0  0  0  0  0  0  0
    7.2248   -0.9284    1.5072 C   0  0  0  0  0  0  0  0  0  0  0  0
    5.8696   -1.0809    1.1920 C   0  0  0  0  0  0  0  0  0  0  0  0
    3.1202    0.8020   -0.1075 C   0  0  0  0  0  0  0  0  0  0  0  0
    3.6978    2.0151    0.1858 O   0  0  0  0  0  0  0  0  0  0  0  0
    1.7712    0.7295   -0.4464 C   0  0  0  0  0  0  0  0  0  0  0  0
   -2.9278    3.2763    1.2732 H   0  0  0  0  0  0  0  0  0  0  0  0
   -7.3537    1.7423    0.6842 H   0  0  0  0  0  0  0  0  0  0  0  0
   -8.4753   -0.3796    0.0128 H   0  0  0  0  0  0  0  0  0  0  0  0
   -4.6586   -2.1680   -0.4166 H   0  0  0  0  0  0  0  0  0  0  0  0
   -2.7729   -1.9995   -0.3118 H   0  0  0  0  0  0  0  0  0  0  0  0
   -0.5457   -0.8755    1.0040 H   0  0  0  0  0  0  0  0  0  0  0  0
   -0.3747   -1.5241   -1.7767 H   0  0  0  0  0  0  0  0  0  0  0  0
   -0.5603    0.2611   -1.6794 H   0  0  0  0  0  0  0  0  0  0  0  0
    1.5284   -2.5849   -0.9212 H   0  0  0  0  0  0  0  0  0  0  0  0
    3.9419   -2.4523   -0.3145 H   0  0  0  0  0  0  0  0  0  0  0  0
    5.7050    1.4962   -0.9694 H   0  0  0  0  0  0  0  0  0  0  0  0
    8.0431    1.6589   -0.3434 H   0  0  0  0  0  0  0  0  0  0  0  0
    7.6077   -1.6516    2.2231 H   0  0  0  0  0  0  0  0  0  0  0  0
    5.2512   -1.8513    1.6213 H   0  0  0  0  0  0  0  0  0  0  0  0
    3.5149    2.8866   -0.2526 H   0  0  0  0  0  0  0  0  0  0  0  0
    1.1406    1.5974   -0.4918 H   0  0  0  0  0  0  0  0  0  0  0  0
  1  2  2  0
  2  3  1  0
  3  4  1  0
  4  5  2  0
  4  6  1  0
  6  7  2  0
  7  8  1  0
  8  9  2  0
  9 10  1  0
  9 11  1  0
 11 12  2  0
 12 13  1  0
 13 14  2  3
 14 15  1  0
 15 16  1  0
 16 17  1  0
 17 18  2  0
 18 19  1  0
 19 20  2  0
 20 21  1  0
 21 22  2  0
 22 23  1  0
 23 24  2  0
 24 25  1  0
 25 26  2  0
 20 27  1  0
 27 28  1  0
 27 29  2  0
 13  2  1  0
 29 17  1  0
 12  6  1  0
 26 21  1  0
  3 30  1  0
  7 31  1  0
  8 32  1  0
 11 33  1  0
 14 34  1  0
 15 35  1  0
 16 36  1  0
 16 37  1  0
 18 38  1  0
 19 39  1  0
 22 40  1  0
 23 41  1  0
 25 42  1  0
 26 43  1  0
 28 44  1  0
 29 45  1  0
M  END
$$$$
