@<TRIPOS>MOLECULE
*****
 45 48 0 0 0
SMALL
GASTEIGER

@<TRIPOS>ATOM
      1 O          -1.3116    1.3397    0.7361 O.2     1  UNL1       -0.2697
      2 C          -2.5657    1.2645    0.6775 C.2     1  UNL1        0.2523
      3 N          -3.3962    2.3815    0.9902 N.am    1  UNL1       -0.2483
      4 C          -4.8044    2.2494    0.9100 C.2     1  UNL1        0.2511
      5 O          -5.5249    3.2728    1.1977 O.2     1  UNL1       -0.2698
      6 C          -5.3952    0.9966    0.5157 C.ar    1  UNL1        0.0451
      7 C          -6.7616    0.8679    0.4378 C.ar    1  UNL1       -0.0481
      8 C          -7.3835   -0.2987    0.0684 C.ar    1  UNL1       -0.0479
      9 C          -6.6085   -1.3864   -0.2370 C.ar    1  UNL1        0.0140
     10 I          -7.5087   -3.2099   -0.8122 I       1  UNL1       -0.0438
     11 C          -5.2356   -1.2983   -0.1711 C.ar    1  UNL1       -0.0400
     12 C          -4.6152   -0.0982    0.2082 C.ar    1  UNL1        0.0014
     13 C          -3.1707    0.0005    0.2793 C.2     1  UNL1        0.0584
     14 C          -2.4071   -1.0244   -0.0076 C.2     1  UNL1        0.0025
     15 N          -0.9940   -0.8484    0.0860 N.pl3   1  UNL1       -0.3449
     16 C          -0.2398   -0.6382   -1.1095 C.3     1  UNL1        0.0340
     17 C           1.1906   -0.4856   -0.7407 C.ar    1  UNL1       -0.0269
     18 C           1.9805   -1.6260   -0.6905 C.ar    1  UNL1       -0.0563
     19 C           3.3192   -1.5614   -0.3551 C.ar    1  UNL1       -0.0502
     20 C           3.9018   -0.3330   -0.0587 C.ar    1  UNL1        0.0237
     21 C           5.2959   -0.2146    0.2971 C.ar    1  UNL1       -0.0115
     22 C           6.0763    0.7687   -0.2538 C.ar    1  UNL1       -0.0358
     23 C           7.4297    0.8821    0.0929 C.ar    1  UNL1        0.0281
     24 N           7.9815    0.0302    0.9689 N.ar    1  UNL1       -0.2632
     25 C           7.2248   -0.9284    1.5072 C.ar    1  UNL1        0.0281
     26 C           5.8696   -1.0809    1.1920 C.ar    1  UNL1       -0.0358
     27 C           3.1202    0.8020   -0.1075 C.ar    1  UNL1        0.1248
     28 O           3.6978    2.0151    0.1858 O.3     1  UNL1       -0.5061
     29 C           1.7712    0.7295   -0.4464 C.ar    1  UNL1       -0.0149
     30 H          -2.9278    3.2763    1.2732 H       1  UNL1        0.1581
     31 H          -7.3537    1.7423    0.6842 H       1  UNL1        0.0626
     32 H          -8.4753   -0.3796    0.0128 H       1  UNL1        0.0628
     33 H          -4.6586   -2.1680   -0.4166 H       1  UNL1        0.0634
     34 H          -2.7729   -1.9995   -0.3118 H       1  UNL1        0.0786
     35 H          -0.5457   -0.8755    1.0040 H       1  UNL1        0.1459
     36 H          -0.3747   -1.5241   -1.7767 H       1  UNL1        0.0511
     37 H          -0.5603    0.2611   -1.6794 H       1  UNL1        0.0511
     38 H           1.5284   -2.5849   -0.9212 H       1  UNL1        0.0621
     39 H           3.9419   -2.4523   -0.3145 H       1  UNL1        0.0625
     40 H           5.7050    1.4962   -0.9694 H       1  UNL1        0.0639
     41 H           8.0431    1.6589   -0.3434 H       1  UNL1        0.0830
     42 H           7.6077   -1.6516    2.2231 H       1  UNL1        0.0830
     43 H           5.2512   -1.8513    1.6213 H       1  UNL1        0.0639
     44 H           3.5149    2.8866   -0.2526 H       1  UNL1        0.2922
     45 H           1.1406    1.5974   -0.4918 H       1  UNL1        0.0657
@<TRIPOS>BOND
     1     1     2    2
     2     2     3   am
     3     3     4   am
     4     4     5    2
     5     4     6    1
     6     6     7   ar
     7     7     8   ar
     8     8     9   ar
     9     9    10    1
    10     9    11   ar
    11    11    12   ar
    12    12    13    1
    13    13    14    2
    14    14    15    1
    15    15    16    1
    16    16    17    1
    17    17    18   ar
    18    18    19   ar
    19    19    20   ar
    20    20    21    1
    21    21    22   ar
    22    22    23   ar
    23    23    24   ar
    24    24    25   ar
    25    25    26   ar
    26    20    27   ar
    27    27    28    1
    28    27    29   ar
    29    13     2    1
    30    29    17   ar
    31    12     6   ar
    32    26    21   ar
    33     3    30    1
    34     7    31    1
    35     8    32    1
    36    11    33    1
    37    14    34    1
    38    15    35    1
    39    16    36    1
    40    16    37    1
    41    18    38    1
    42    19    39    1
    43    22    40    1
    44    23    41    1
    45    25    42    1
    46    26    43    1
    47    28    44    1
    48    29    45    1
