@<TRIPOS>MOLECULE
*****
 28 27 0 0 0
SMALL
GASTEIGER

@<TRIPOS>ATOM
      1 N           4.7611   -0.4988    0.6272 N.pl3   1  UNL1       -0.2893
      2 C           3.8210    0.5332    0.9444 C.cat   1  UNL1        0.3763
      3 N           3.7957    1.5762    1.6934 N.pl3   1  UNL1       -0.1298
      4 N           2.5842    0.3065    0.2295 N.pl3   1  UNL1       -0.2753
      5 C           1.6035    1.3026   -0.1433 C.3     1  UNL1        0.0736
      6 C           0.3909    0.6859   -0.8617 C.3     1  UNL1        0.0251
      7 S          -0.2861   -0.5243    0.2920 S.3     1  UNL1       -0.1425
      8 C          -1.7517   -1.3835   -0.2969 C.3     1  UNL1        0.1121
      9 C          -2.6756   -1.4529    0.9093 C.3     1  UNL1        0.0668
     10 C          -2.9608   -0.0691    1.3365 C.2     1  UNL1        0.3063
     11 O          -2.7312    0.6235    2.5417 O.3     1  UNL1       -0.4806
     12 O          -3.5152    0.4492    0.3041 O.2     1  UNL1       -0.2510
     13 C          -2.4680   -0.6587   -1.3738 C.2     1  UNL1        0.3183
     14 O          -3.6341   -1.2230   -1.8279 O.3     1  UNL1       -0.4798
     15 O          -2.1412    0.4294   -1.9395 O.2     1  UNL1       -0.2498
     16 H           4.5549   -1.4990    0.7959 H       1  UNL1        0.2546
     17 H           5.6893   -0.3409    0.2216 H       1  UNL1        0.2546
     18 H           3.0035    2.2182    1.7951 H       1  UNL1        0.3062
     19 H           2.3110   -0.6639   -0.0825 H       1  UNL1        0.2579
     20 H           2.1093    1.9898   -0.8765 H       1  UNL1        0.0663
     21 H           1.3442    1.9208    0.7071 H       1  UNL1        0.0663
     22 H           0.7649    0.2690   -1.7905 H       1  UNL1        0.0407
     23 H          -0.3312    1.5026   -1.0297 H       1  UNL1        0.0407
     24 H          -1.5503   -2.4046   -0.6483 H       1  UNL1        0.0532
     25 H          -3.5844   -2.0364    0.6962 H       1  UNL1        0.0394
     26 H          -2.0485   -1.9186    1.7133 H       1  UNL1        0.0394
     27 H          -2.8803    1.6077    2.5659 H       1  UNL1        0.2951
     28 H          -4.1751   -0.7407   -2.5251 H       1  UNL1        0.2951
@<TRIPOS>BOND
     1     1     2    1
     2     2     3    2
     3     2     4    1
     4     4     5    1
     5     5     6    1
     6     6     7    1
     7     7     8    1
     8     8     9    1
     9     9    10    1
    10    10    11    1
    11    10    12    2
    12     8    13    1
    13    13    14    1
    14    13    15    2
    15     1    16    1
    16     1    17    1
    17     3    18    1
    18     4    19    1
    19     5    20    1
    20     5    21    1
    21     6    22    1
    22     6    23    1
    23     8    24    1
    24     9    25    1
    25     9    26    1
    26    11    27    1
    27    14    28    1
