@<TRIPOS>MOLECULE
*****
 46 47 0 0 0
SMALL
GASTEIGER

@<TRIPOS>ATOM
      1 C          -5.8968    0.8953   -0.1617 C.3     1  UNL1       -0.0523
      2 C          -4.5925    0.5127    0.4704 C.3     1  UNL1       -0.0036
      3 N          -3.8122   -0.3648   -0.3690 N.3     1  UNL1       -0.2982
      4 C          -4.3535   -1.6502   -0.5368 C.3     1  UNL1       -0.0007
      5 C          -3.3911   -2.6344    0.0150 C.3     1  UNL1       -0.0387
      6 C          -2.0565   -1.8715   -0.2309 C.3     1  UNL1       -0.0347
      7 C          -2.4275   -0.4515    0.1486 C.3     1  UNL1        0.0260
      8 C          -1.6747    0.6089   -0.5443 C.3     1  UNL1        0.0275
      9 N          -0.3131    0.8636   -0.2544 N.am    1  UNL1       -0.3098
     10 C           0.8054    0.0302   -0.4039 C.2     1  UNL1        0.2477
     11 O           0.5200   -1.1382   -0.8855 O.2     1  UNL1       -0.2701
     12 C           2.1944    0.3157   -0.0963 C.ar    1  UNL1        0.0801
     13 C           3.1074   -0.7257   -0.3103 C.ar    1  UNL1       -0.0197
     14 C           4.4456   -0.5636   -0.0400 C.ar    1  UNL1        0.1060
     15 S           5.5984   -1.8670   -0.2805 S.O2    1  UNL1        0.0560
     16 N           6.0875   -1.8864   -1.9281 N.3     1  UNL1       -0.2035
     17 O           5.0350   -3.1765    0.1278 O.2     1  UNL1       -0.1533
     18 O           6.8353   -1.6314    0.5644 O.2     1  UNL1       -0.1533
     19 C           4.8913    0.6488    0.4502 C.ar    1  UNL1       -0.0319
     20 C           4.0070    1.6694    0.6620 C.ar    1  UNL1       -0.0173
     21 C           2.6381    1.4931    0.3823 C.ar    1  UNL1        0.1323
     22 O           1.8099    2.5538    0.6169 O.3     1  UNL1       -0.4944
     23 C           2.3250    3.7611    1.1168 C.3     1  UNL1        0.0788
     24 H          -6.2391    1.8348    0.3624 H       1  UNL1        0.0242
     25 H          -6.6953    0.1612   -0.0653 H       1  UNL1        0.0242
     26 H          -5.7567    1.2310   -1.2312 H       1  UNL1        0.0242
     27 H          -4.0213    1.4416    0.6679 H       1  UNL1        0.0424
     28 H          -4.8456   -0.0257    1.4129 H       1  UNL1        0.0424
     29 H          -4.5587   -1.8223   -1.6287 H       1  UNL1        0.0427
     30 H          -5.3590   -1.6940   -0.0344 H       1  UNL1        0.0427
     31 H          -3.5425   -2.8417    1.0665 H       1  UNL1        0.0278
     32 H          -3.3419   -3.5776   -0.5731 H       1  UNL1        0.0278
     33 H          -1.8848   -2.0224   -1.2946 H       1  UNL1        0.0281
     34 H          -1.3637   -2.3473    0.4755 H       1  UNL1        0.0281
     35 H          -2.4273   -0.3144    1.2400 H       1  UNL1        0.0478
     36 H          -1.8278    0.4103   -1.6661 H       1  UNL1        0.0477
     37 H          -2.2496    1.5909   -0.4412 H       1  UNL1        0.0477
     38 H          -0.0760    1.8475    0.1484 H       1  UNL1        0.1491
     39 H           2.7868   -1.6956   -0.6957 H       1  UNL1        0.0646
     40 H           6.6597   -1.0845   -2.2027 H       1  UNL1        0.1442
     41 H           5.2588   -2.0945   -2.5115 H       1  UNL1        0.1442
     42 H           5.9344    0.7999    0.6680 H       1  UNL1        0.0638
     43 H           4.3885    2.6044    1.0456 H       1  UNL1        0.0655
     44 H           3.1383    4.0860    0.4216 H       1  UNL1        0.0660
     45 H           1.5435    4.5520    1.0917 H       1  UNL1        0.0660
     46 H           2.6970    3.5688    2.1419 H       1  UNL1        0.0660
@<TRIPOS>BOND
     1     1     2    1
     2     2     3    1
     3     3     4    1
     4     4     5    1
     5     5     6    1
     6     6     7    1
     7     7     8    1
     8     8     9    1
     9     9    10   am
    10    10    11    2
    11    10    12    1
    12    12    13   ar
    13    13    14   ar
    14    14    15    1
    15    15    16    1
    16    15    17    2
    17    15    18    2
    18    14    19   ar
    19    19    20   ar
    20    20    21   ar
    21    21    22    1
    22    22    23    1
    23     7     3    1
    24    21    12   ar
    25     1    24    1
    26     1    25    1
    27     1    26    1
    28     2    27    1
    29     2    28    1
    30     4    29    1
    31     4    30    1
    32     5    31    1
    33     5    32    1
    34     6    33    1
    35     6    34    1
    36     7    35    1
    37     8    36    1
    38     8    37    1
    39     9    38    1
    40    13    39    1
    41    16    40    1
    42    16    41    1
    43    19    42    1
    44    20    43    1
    45    23    44    1
    46    23    45    1
    47    23    46    1
