
     RDKit          3D

 46 47  0  0  0  0  0  0  0  0999 V2000
   -5.8968    0.8953   -0.1617 C   0  0  0  0  0  0  0  0  0  0  0  0
   -4.5925    0.5127    0.4704 C   0  0  0  0  0  0  0  0  0  0  0  0
   -3.8122   -0.3648   -0.3690 N   0  0  0  0  0  0  0  0  0  0  0  0
   -4.3535   -1.6502   -0.5368 C   0  0  0  0  0  0  0  0  0  0  0  0
   -3.3911   -2.6344    0.0150 C   0  0  0  0  0  0  0  0  0  0  0  0
   -2.0565   -1.8715   -0.2309 C   0  0  0  0  0  0  0  0  0  0  0  0
   -2.4275   -0.4515    0.1486 C   0  0  0  0  0  0  0  0  0  0  0  0
   -1.6747    0.6089   -0.5443 C   0  0  0  0  0  0  0  0  0  0  0  0
   -0.3131    0.8636   -0.2544 N   0  0  0  0  0  0  0  0  0  0  0  0
    0.8054    0.0302   -0.4039 C   0  0  0  0  0  0  0  0  0  0  0  0
    0.5200   -1.1382   -0.8855 O   0  0  0  0  0  0  0  0  0  0  0  0
    2.1944    0.3157   -0.0963 C   0  0  0  0  0  0  0  0  0  0  0  0
    3.1074   -0.7257   -0.3103 C   0  0  0  0  0  0  0  0  0  0  0  0
    4.4456   -0.5636   -0.0400 C   0  0  0  0  0  0  0  0  0  0  0  0
    5.5984   -1.8670   -0.2805 S   0  0  0  0  0  6  0  0  0  0  0  0
    6.0875   -1.8864   -1.9281 N   0  0  0  0  0  0  0  0  0  0  0  0
    5.0350   -3.1765    0.1278 O   0  0  0  0  0  0  0  0  0  0  0  0
    6.8353   -1.6314    0.5644 O   0  0  0  0  0  0  0  0  0  0  0  0
    4.8913    0.6488    0.4502 C   0  0  0  0  0  0  0  0  0  0  0  0
    4.0070    1.6694    0.6620 C   0  0  0  0  0  0  0  0  0  0  0  0
    2.6381    1.4931    0.3823 C   0  0  0  0  0  0  0  0  0  0  0  0
    1.8099    2.5538    0.6169 O   0  0  0  0  0  0  0  0  0  0  0  0
    2.3250    3.7611    1.1168 C   0  0  0  0  0  0  0  0  0  0  0  0
   -6.2391    1.8348    0.3624 H   0  0  0  0  0  0  0  0  0  0  0  0
   -6.6953    0.1612   -0.0653 H   0  0  0  0  0  0  0  0  0  0  0  0
   -5.7567    1.2310   -1.2312 H   0  0  0  0  0  0  0  0  0  0  0  0
   -4.0213    1.4416    0.6679 H   0  0  0  0  0  0  0  0  0  0  0  0
   -4.8456   -0.0257    1.4129 H   0  0  0  0  0  0  0  0  0  0  0  0
   -4.5587   -1.8223   -1.6287 H   0  0  0  0  0  0  0  0  0  0  0  0
   -5.3590   -1.6940   -0.0344 H   0  0  0  0  0  0  0  0  0  0  0  0
   -3.5425   -2.8417    1.0665 H   0  0  0  0  0  0  0  0  0  0  0  0
   -3.3419   -3.5776   -0.5731 H   0  0  0  0  0  0  0  0  0  0  0  0
   -1.8848   -2.0224   -1.2946 H   0  0  0  0  0  0  0  0  0  0  0  0
   -1.3637   -2.3473    0.4755 H   0  0  0  0  0  0  0  0  0  0  0  0
   -2.4273   -0.3144    1.2400 H   0  0  0  0  0  0  0  0  0  0  0  0
   -1.8278    0.4103   -1.6661 H   0  0  0  0  0  0  0  0  0  0  0  0
   -2.2496    1.5909   -0.4412 H   0  0  0  0  0  0  0  0  0  0  0  0
   -0.0760    1.8475    0.1484 H   0  0  0  0  0  0  0  0  0  0  0  0
    2.7868   -1.6956   -0.6957 H   0  0  0  0  0  0  0  0  0  0  0  0
    6.6597   -1.0845   -2.2027 H   0  0  0  0  0  0  0  0  0  0  0  0
    5.2588   -2.0945   -2.5115 H   0  0  0  0  0  0  0  0  0  0  0  0
    5.9344    0.7999    0.6680 H   0  0  0  0  0  0  0  0  0  0  0  0
    4.3885    2.6044    1.0456 H   0  0  0  0  0  0  0  0  0  0  0  0
    3.1383    4.0860    0.4216 H   0  0  0  0  0  0  0  0  0  0  0  0
    1.5435    4.5520    1.0917 H   0  0  0  0  0  0  0  0  0  0  0  0
    2.6970    3.5688    2.1419 H   0  0  0  0  0  0  0  0  0  0  0  0
  1  2  1  0
  2  3  1  0
  3  4  1  0
  4  5  1  0
  5  6  1  0
  6  7  1  0
  7  8  1  0
  8  9  1  0
  9 10  1  0
 10 11  2  0
 10 12  1  0
 12 13  2  0
 13 14  1  0
 14 15  1  0
 15 16  1  0
 15 17  2  0
 15 18  2  0
 14 19  2  0
 19 20  1  0
 20 21  2  0
 21 22  1  0
 22 23  1  0
  7  3  1  0
 21 12  1  0
  1 24  1  0
  1 25  1  0
  1 26  1  0
  2 27  1  0
  2 28  1  0
  4 29  1  0
  4 30  1  0
  5 31  1  0
  5 32  1  0
  6 33  1  0
  6 34  1  0
  7 35  1  0
  8 36  1  0
  8 37  1  0
  9 38  1  0
 13 39  1  0
 16 40  1  0
 16 41  1  0
 19 42  1  0
 20 43  1  0
 23 44  1  0
 23 45  1  0
 23 46  1  0
M  END
$$$$
