@<TRIPOS>MOLECULE
*****
 18 18 0 0 0
SMALL
GASTEIGER

@<TRIPOS>ATOM
      1 N          -0.7863    1.8362   -0.6471 N.pl3   1  UNL1       -0.3577
      2 C           0.1366    0.8235   -0.2634 C.ar    1  UNL1        0.0300
      3 C           1.4493    1.2049   -0.0616 C.ar    1  UNL1       -0.0407
      4 C           2.3871    0.2522    0.3088 C.ar    1  UNL1       -0.0600
      5 C           1.9076   -1.0318    0.4482 C.ar    1  UNL1       -0.0613
      6 C           0.6012   -1.4334    0.2512 C.ar    1  UNL1       -0.0546
      7 C          -0.3115   -0.4632   -0.1169 C.ar    1  UNL1       -0.0016
      8 C          -1.7476   -0.7679   -0.3568 C.3     1  UNL1        0.0709
      9 O          -2.5646   -0.3715    0.6968 O.3     1  UNL1       -0.3904
     10 H          -1.1128    2.5322   -1.3567 H       1  UNL1        0.1423
     11 H          -1.4913    1.9753    0.1357 H       1  UNL1        0.1423
     12 H           1.7843    2.2297   -0.1903 H       1  UNL1        0.0636
     13 H           3.4248    0.5106    0.4755 H       1  UNL1        0.0618
     14 H           2.6596   -1.7644    0.7416 H       1  UNL1        0.0618
     15 H           0.2963   -2.4652    0.3768 H       1  UNL1        0.0622
     16 H          -2.0592   -0.2072   -1.2723 H       1  UNL1        0.0608
     17 H          -1.9118   -1.8317   -0.5854 H       1  UNL1        0.0608
     18 H          -2.6617   -1.0284    1.4159 H       1  UNL1        0.2098
@<TRIPOS>BOND
     1     1     2    1
     2     2     3   ar
     3     3     4   ar
     4     4     5   ar
     5     5     6   ar
     6     6     7   ar
     7     7     8    1
     8     8     9    1
     9     7     2   ar
    10     1    10    1
    11     1    11    1
    12     3    12    1
    13     4    13    1
    14     5    14    1
    15     6    15    1
    16     8    16    1
    17     8    17    1
    18     9    18    1
