
     RDKit          3D

 48 50  0  0  0  0  0  0  0  0999 V2000
    0.2298    0.2475   -1.5528 O   0  0  0  0  0  0  0  0  0  0  0  0
    0.6984   -0.3028   -0.5759 C   0  0  0  0  0  0  0  0  0  0  0  0
    1.9776    0.1611    0.0104 C   0  0  0  0  0  0  0  0  0  0  0  0
    2.4131   -0.5603    1.2361 C   0  0  0  0  0  0  0  0  0  0  0  0
    3.4777    0.2135    1.9531 C   0  0  0  0  0  0  0  0  0  0  0  0
    4.6443    0.3647    1.0344 C   0  0  0  0  0  0  0  0  0  0  0  0
    4.8243    1.4525    0.2135 C   0  0  0  0  0  0  0  0  0  0  0  0
    5.9070    1.5574   -0.6300 C   0  0  0  0  0  0  0  0  0  0  0  0
    6.8500    0.5631   -0.6739 C   0  0  0  0  0  0  0  0  0  0  0  0
    6.6834   -0.5334    0.1435 C   0  0  0  0  0  0  0  0  0  0  0  0
    5.6103   -0.6484    0.9863 C   0  0  0  0  0  0  0  0  0  0  0  0
    1.2907   -0.9364    2.0797 N   0  0  0  0  0  0  0  0  0  0  0  0
    0.0350   -1.2734    1.5121 C   0  0  0  0  0  0  0  0  0  0  0  0
   -1.0005   -1.4257    2.1788 O   0  0  0  0  0  0  0  0  0  0  0  0
    0.0014   -1.4433    0.0441 C   0  0  0  0  0  0  0  0  0  0  0  0
   -1.3560   -1.6563   -0.4835 C   0  0  0  0  0  0  0  0  0  0  0  0
   -1.6185   -2.7561   -1.0308 O   0  0  0  0  0  0  0  0  0  0  0  0
   -2.3929   -0.7052   -0.4180 N   0  0  0  0  0  0  0  0  0  0  0  0
   -3.7308   -0.9288   -0.9437 C   0  0  0  0  0  0  0  0  0  0  0  0
   -4.6805   -0.9223    0.2258 C   0  0  0  0  0  0  0  0  0  0  0  0
   -5.9560   -0.1641   -0.0977 C   0  0  0  0  0  0  0  0  0  0  0  0
   -5.5586    1.2536   -0.3655 C   0  0  0  0  0  0  0  0  0  0  0  0
   -4.6789    1.3215   -1.5604 C   0  0  0  0  0  0  0  0  0  0  0  0
   -4.1025    0.0443   -2.0184 C   0  0  0  0  0  0  0  0  0  0  0  0
    1.9816    1.2723    0.1418 H   0  0  0  0  0  0  0  0  0  0  0  0
    2.7644   -0.0232   -0.7791 H   0  0  0  0  0  0  0  0  0  0  0  0
    2.8941   -1.5498    0.9646 H   0  0  0  0  0  0  0  0  0  0  0  0
    3.7913   -0.2773    2.8958 H   0  0  0  0  0  0  0  0  0  0  0  0
    3.1014    1.2485    2.1891 H   0  0  0  0  0  0  0  0  0  0  0  0
    4.0986    2.2795    0.2192 H   0  0  0  0  0  0  0  0  0  0  0  0
    6.0052    2.4519   -1.2697 H   0  0  0  0  0  0  0  0  0  0  0  0
    7.6827    0.6850   -1.3488 H   0  0  0  0  0  0  0  0  0  0  0  0
    7.4550   -1.3060    0.0818 H   0  0  0  0  0  0  0  0  0  0  0  0
    5.5088   -1.5258    1.6175 H   0  0  0  0  0  0  0  0  0  0  0  0
    1.4323   -0.9508    3.0917 H   0  0  0  0  0  0  0  0  0  0  0  0
    0.6347   -2.3494   -0.1655 H   0  0  0  0  0  0  0  0  0  0  0  0
   -2.1848    0.2086    0.0335 H   0  0  0  0  0  0  0  0  0  0  0  0
   -3.7926   -1.9516   -1.3936 H   0  0  0  0  0  0  0  0  0  0  0  0
   -4.2512   -0.4505    1.1339 H   0  0  0  0  0  0  0  0  0  0  0  0
   -5.0007   -1.9446    0.5298 H   0  0  0  0  0  0  0  0  0  0  0  0
   -6.5626   -0.1767    0.8410 H   0  0  0  0  0  0  0  0  0  0  0  0
   -6.4844   -0.6089   -0.9524 H   0  0  0  0  0  0  0  0  0  0  0  0
   -6.4969    1.8430   -0.4994 H   0  0  0  0  0  0  0  0  0  0  0  0
   -5.0252    1.6431    0.5422 H   0  0  0  0  0  0  0  0  0  0  0  0
   -5.2951    1.7480   -2.4061 H   0  0  0  0  0  0  0  0  0  0  0  0
   -3.9007    2.1144   -1.3692 H   0  0  0  0  0  0  0  0  0  0  0  0
   -4.7659   -0.4606   -2.7765 H   0  0  0  0  0  0  0  0  0  0  0  0
   -3.1580    0.2706   -2.5888 H   0  0  0  0  0  0  0  0  0  0  0  0
  1  2  2  0
  2  3  1  0
  3  4  1  0
  4  5  1  0
  5  6  1  0
  6  7  2  0
  7  8  1  0
  8  9  2  0
  9 10  1  0
 10 11  2  0
  4 12  1  0
 12 13  1  0
 13 14  2  0
 13 15  1  0
 15 16  1  0
 16 17  2  0
 16 18  1  0
 18 19  1  0
 19 20  1  0
 20 21  1  0
 21 22  1  0
 22 23  1  0
 23 24  1  0
 15  2  1  0
 24 19  1  0
 11  6  1  0
  3 25  1  0
  3 26  1  0
  4 27  1  0
  5 28  1  0
  5 29  1  0
  7 30  1  0
  8 31  1  0
  9 32  1  0
 10 33  1  0
 11 34  1  0
 12 35  1  0
 15 36  1  0
 18 37  1  0
 19 38  1  0
 20 39  1  0
 20 40  1  0
 21 41  1  0
 21 42  1  0
 22 43  1  0
 22 44  1  0
 23 45  1  0
 23 46  1  0
 24 47  1  0
 24 48  1  0
M  END
$$$$
