@<TRIPOS>MOLECULE
*****
 48 50 0 0 0
SMALL
GASTEIGER

@<TRIPOS>ATOM
      1 O           0.2298    0.2475   -1.5528 O.2     1  UNL1       -0.2960
      2 C           0.6984   -0.3028   -0.5759 C.2     1  UNL1        0.1558
      3 C           1.9776    0.1611    0.0104 C.3     1  UNL1        0.0258
      4 C           2.4131   -0.5603    1.2361 C.3     1  UNL1        0.0338
      5 C           3.4777    0.2135    1.9531 C.3     1  UNL1       -0.0088
      6 C           4.6443    0.3647    1.0344 C.ar    1  UNL1       -0.0456
      7 C           4.8243    1.4525    0.2135 C.ar    1  UNL1       -0.0585
      8 C           5.9070    1.5574   -0.6300 C.ar    1  UNL1       -0.0615
      9 C           6.8500    0.5631   -0.6739 C.ar    1  UNL1       -0.0617
     10 C           6.6834   -0.5334    0.1435 C.ar    1  UNL1       -0.0615
     11 C           5.6103   -0.6484    0.9863 C.ar    1  UNL1       -0.0585
     12 N           1.2907   -0.9364    2.0797 N.am    1  UNL1       -0.3108
     13 C           0.0350   -1.2734    1.5121 C.2     1  UNL1        0.2325
     14 O          -1.0005   -1.4257    2.1788 O.2     1  UNL1       -0.2745
     15 C           0.0014   -1.4433    0.0441 C.3     1  UNL1        0.1692
     16 C          -1.3560   -1.6563   -0.4835 C.2     1  UNL1        0.2325
     17 O          -1.6185   -2.7561   -1.0308 O.2     1  UNL1       -0.2745
     18 N          -2.3929   -0.7052   -0.4180 N.am    1  UNL1       -0.3115
     19 C          -3.7308   -0.9288   -0.9437 C.3     1  UNL1        0.0231
     20 C          -4.6805   -0.9223    0.2258 C.3     1  UNL1       -0.0345
     21 C          -5.9560   -0.1641   -0.0977 C.3     1  UNL1       -0.0514
     22 C          -5.5586    1.2536   -0.3655 C.3     1  UNL1       -0.0529
     23 C          -4.6789    1.3215   -1.5604 C.3     1  UNL1       -0.0514
     24 C          -4.1025    0.0443   -2.0184 C.3     1  UNL1       -0.0345
     25 H           1.9816    1.2723    0.1418 H       1  UNL1        0.0360
     26 H           2.7644   -0.0232   -0.7791 H       1  UNL1        0.0360
     27 H           2.8941   -1.5498    0.9646 H       1  UNL1        0.0505
     28 H           3.7913   -0.2773    2.8958 H       1  UNL1        0.0331
     29 H           3.1014    1.2485    2.1891 H       1  UNL1        0.0331
     30 H           4.0986    2.2795    0.2192 H       1  UNL1        0.0620
     31 H           6.0052    2.4519   -1.2697 H       1  UNL1        0.0618
     32 H           7.6827    0.6850   -1.3488 H       1  UNL1        0.0618
     33 H           7.4550   -1.3060    0.0818 H       1  UNL1        0.0618
     34 H           5.5088   -1.5258    1.6175 H       1  UNL1        0.0620
     35 H           1.4323   -0.9508    3.0917 H       1  UNL1        0.1490
     36 H           0.6347   -2.3494   -0.1655 H       1  UNL1        0.0569
     37 H          -2.1848    0.2086    0.0335 H       1  UNL1        0.1490
     38 H          -3.7926   -1.9516   -1.3936 H       1  UNL1        0.0498
     39 H          -4.2512   -0.4505    1.1339 H       1  UNL1        0.0283
     40 H          -5.0007   -1.9446    0.5298 H       1  UNL1        0.0283
     41 H          -6.5626   -0.1767    0.8410 H       1  UNL1        0.0266
     42 H          -6.4844   -0.6089   -0.9524 H       1  UNL1        0.0266
     43 H          -6.4969    1.8430   -0.4994 H       1  UNL1        0.0265
     44 H          -5.0252    1.6431    0.5422 H       1  UNL1        0.0265
     45 H          -5.2951    1.7480   -2.4061 H       1  UNL1        0.0266
     46 H          -3.9007    2.1144   -1.3692 H       1  UNL1        0.0266
     47 H          -4.7659   -0.4606   -2.7765 H       1  UNL1        0.0283
     48 H          -3.1580    0.2706   -2.5888 H       1  UNL1        0.0283
@<TRIPOS>BOND
     1     1     2    2
     2     2     3    1
     3     3     4    1
     4     4     5    1
     5     5     6    1
     6     6     7   ar
     7     7     8   ar
     8     8     9   ar
     9     9    10   ar
    10    10    11   ar
    11     4    12    1
    12    12    13   am
    13    13    14    2
    14    13    15    1
    15    15    16    1
    16    16    17    2
    17    16    18   am
    18    18    19    1
    19    19    20    1
    20    20    21    1
    21    21    22    1
    22    22    23    1
    23    23    24    1
    24    15     2    1
    25    24    19    1
    26    11     6   ar
    27     3    25    1
    28     3    26    1
    29     4    27    1
    30     5    28    1
    31     5    29    1
    32     7    30    1
    33     8    31    1
    34     9    32    1
    35    10    33    1
    36    11    34    1
    37    12    35    1
    38    15    36    1
    39    18    37    1
    40    19    38    1
    41    20    39    1
    42    20    40    1
    43    21    41    1
    44    21    42    1
    45    22    43    1
    46    22    44    1
    47    23    45    1
    48    23    46    1
    49    24    47    1
    50    24    48    1
