
     RDKit          3D

 72 73  0  0  0  0  0  0  0  0999 V2000
   -7.5212   -2.8249    1.9042 C   0  0  0  0  0  0  0  0  0  0  0  0
   -6.6852   -2.6152    0.6588 C   0  0  0  0  0  0  0  0  0  0  0  0
   -6.2389   -3.9391    0.1372 C   0  0  0  0  0  0  0  0  0  0  0  0
   -7.6069   -1.9866   -0.3927 C   0  0  0  0  0  0  0  0  0  0  0  0
   -5.6458   -1.6958    0.8806 O   0  0  0  0  0  0  0  0  0  0  0  0
   -4.7428   -1.3283   -0.0829 C   0  0  0  0  0  0  0  0  0  0  0  0
   -4.8615   -1.8513   -1.2261 O   0  0  0  0  0  0  0  0  0  0  0  0
   -3.6878   -0.4033    0.1164 N   0  0  0  0  0  0  0  0  0  0  0  0
   -2.7351   -0.0290   -0.9352 C   0  0  1  0  0  0  0  0  0  0  0  0
   -2.8970    1.4424   -1.2643 C   0  0  0  0  0  0  0  0  0  0  0  0
   -2.6631    2.3155   -0.0874 C   0  0  0  0  0  0  0  0  0  0  0  0
   -3.7082    2.6560    0.7506 C   0  0  0  0  0  0  0  0  0  0  0  0
   -3.5298    3.4670    1.8523 C   0  0  0  0  0  0  0  0  0  0  0  0
   -2.2869    3.9755    2.1642 C   0  0  0  0  0  0  0  0  0  0  0  0
   -1.2340    3.6466    1.3403 C   0  0  0  0  0  0  0  0  0  0  0  0
   -1.4256    2.8238    0.2259 C   0  0  0  0  0  0  0  0  0  0  0  0
   -1.3582   -0.4037   -0.5576 C   0  0  0  0  0  0  0  0  0  0  0  0
   -1.1680   -0.8369    0.6438 O   0  0  0  0  0  0  0  0  0  0  0  0
   -0.2260   -0.3272   -1.4161 N   0  0  0  0  0  0  0  0  0  0  0  0
   -0.2702    0.1081   -2.7788 C   0  0  0  0  0  0  0  0  0  0  0  0
    1.0179   -0.9714   -3.5330 S   0  0  0  0  0  0  0  0  0  0  0  0
    1.5711   -1.7859   -2.0004 C   0  0  0  0  0  0  0  0  0  0  0  0
    1.1065   -0.6839   -1.0278 C   0  0  0  0  0  0  0  0  0  0  0  0
    2.0241    0.4662   -1.1904 C   0  0  0  0  0  0  0  0  0  0  0  0
    1.6752    1.6056   -1.5724 O   0  0  0  0  0  0  0  0  0  0  0  0
    3.4228    0.3134   -0.9019 N   0  0  0  0  0  0  0  0  0  0  0  0
    4.3358    1.4235   -1.0538 C   0  0  2  0  0  0  0  0  0  0  0  0
    5.3400    1.2023   -2.1006 C   0  0  0  0  0  0  0  0  0  0  0  0
    6.2040    2.0133   -2.3819 O   0  0  0  0  0  0  0  0  0  0  0  0
    4.9014    1.7796    0.2813 C   0  0  0  0  0  0  0  0  0  0  0  0
    5.6468    0.7317    1.0082 C   0  0  0  0  0  0  0  0  0  0  0  0
    6.8437    0.2427    0.2461 C   0  0  0  0  0  0  0  0  0  0  0  0
    7.4929   -0.7632    1.1043 N   0  0  0  0  0  0  0  0  0  0  0  0
    8.1316   -0.4280    2.3223 C   0  0  0  0  0  0  0  0  0  0  0  0
    8.5335    0.7852    2.4945 N   0  0  0  0  0  0  0  0  0  0  0  0
    8.3296   -1.4181    3.3473 N   0  0  0  0  0  0  0  0  0  0  0  0
   -7.1089   -3.6063    2.5548 H   0  0  0  0  0  0  0  0  0  0  0  0
   -8.5245   -3.1508    1.5616 H   0  0  0  0  0  0  0  0  0  0  0  0
   -7.6480   -1.8466    2.4039 H   0  0  0  0  0  0  0  0  0  0  0  0
   -5.4192   -4.3945    0.7134 H   0  0  0  0  0  0  0  0  0  0  0  0
   -7.1145   -4.6386    0.2271 H   0  0  0  0  0  0  0  0  0  0  0  0
   -6.0273   -3.9127   -0.9679 H   0  0  0  0  0  0  0  0  0  0  0  0
   -7.3577   -2.4113   -1.3673 H   0  0  0  0  0  0  0  0  0  0  0  0
   -7.4366   -0.8897   -0.4511 H   0  0  0  0  0  0  0  0  0  0  0  0
   -8.6704   -2.1105   -0.1028 H   0  0  0  0  0  0  0  0  0  0  0  0
   -3.6119    0.0179    1.0783 H   0  0  0  0  0  0  0  0  0  0  0  0
   -3.0142   -0.6020   -1.8332 H   0  0  0  0  0  0  0  0  0  0  0  0
   -2.2078    1.6789   -2.0921 H   0  0  0  0  0  0  0  0  0  0  0  0
   -3.9205    1.6408   -1.6800 H   0  0  0  0  0  0  0  0  0  0  0  0
   -4.6863    2.2556    0.5047 H   0  0  0  0  0  0  0  0  0  0  0  0
   -4.3499    3.7313    2.5057 H   0  0  0  0  0  0  0  0  0  0  0  0
   -2.1289    4.6178    3.0312 H   0  0  0  0  0  0  0  0  0  0  0  0
   -0.2608    4.0520    1.5949 H   0  0  0  0  0  0  0  0  0  0  0  0
   -0.5733    2.5929   -0.3923 H   0  0  0  0  0  0  0  0  0  0  0  0
   -1.2566   -0.1250   -3.2623 H   0  0  0  0  0  0  0  0  0  0  0  0
   -0.0608    1.1566   -2.9689 H   0  0  0  0  0  0  0  0  0  0  0  0
    1.0536   -2.7279   -1.8133 H   0  0  0  0  0  0  0  0  0  0  0  0
    2.6699   -1.8353   -1.9411 H   0  0  0  0  0  0  0  0  0  0  0  0
    1.1417   -1.0843    0.0185 H   0  0  0  0  0  0  0  0  0  0  0  0
    3.8044   -0.6053   -0.5762 H   0  0  0  0  0  0  0  0  0  0  0  0
    3.7300    2.3236   -1.3935 H   0  0  0  0  0  0  0  0  0  0  0  0
    5.3615    0.2785   -2.6917 H   0  0  0  0  0  0  0  0  0  0  0  0
    5.6052    2.6637    0.1697 H   0  0  0  0  0  0  0  0  0  0  0  0
    4.0734    2.1423    0.9659 H   0  0  0  0  0  0  0  0  0  0  0  0
    4.9977   -0.1110    1.3495 H   0  0  0  0  0  0  0  0  0  0  0  0
    6.0363    1.1707    1.9591 H   0  0  0  0  0  0  0  0  0  0  0  0
    7.5421    1.0526    0.0227 H   0  0  0  0  0  0  0  0  0  0  0  0
    6.5868   -0.2677   -0.7097 H   0  0  0  0  0  0  0  0  0  0  0  0
    7.4953   -1.7632    0.8274 H   0  0  0  0  0  0  0  0  0  0  0  0
    8.4041    1.5017    1.7822 H   0  0  0  0  0  0  0  0  0  0  0  0
    8.6586   -2.3470    3.0714 H   0  0  0  0  0  0  0  0  0  0  0  0
    8.1327   -1.1540    4.3199 H   0  0  0  0  0  0  0  0  0  0  0  0
  1  2  1  0
  2  3  1  0
  2  4  1  0
  2  5  1  0
  5  6  1  0
  6  7  2  0
  6  8  1  0
  8  9  1  0
  9 10  1  0
 10 11  1  0
 11 12  2  0
 12 13  1  0
 13 14  2  0
 14 15  1  0
 15 16  2  0
  9 17  1  0
 17 18  2  0
 17 19  1  0
 19 20  1  0
 20 21  1  0
 21 22  1  0
 22 23  1  0
 23 24  1  0
 24 25  2  0
 24 26  1  0
 26 27  1  0
 27 28  1  0
 28 29  2  0
 27 30  1  0
 30 31  1  0
 31 32  1  0
 32 33  1  0
 33 34  1  0
 34 35  2  3
 34 36  1  0
 16 11  1  0
 23 19  1  0
  1 37  1  0
  1 38  1  0
  1 39  1  0
  3 40  1  0
  3 41  1  0
  3 42  1  0
  4 43  1  0
  4 44  1  0
  4 45  1  0
  8 46  1  0
  9 47  1  6
 10 48  1  0
 10 49  1  0
 12 50  1  0
 13 51  1  0
 14 52  1  0
 15 53  1  0
 16 54  1  0
 20 55  1  0
 20 56  1  0
 22 57  1  0
 22 58  1  0
 23 59  1  0
 26 60  1  0
 27 61  1  6
 28 62  1  0
 30 63  1  0
 30 64  1  0
 31 65  1  0
 31 66  1  0
 32 67  1  0
 32 68  1  0
 33 69  1  0
 35 70  1  0
 36 71  1  0
 36 72  1  0
M  END
$$$$
