@<TRIPOS>MOLECULE
*****
 72 73 0 0 0
SMALL
GASTEIGER

@<TRIPOS>ATOM
      1 C          -7.5212   -2.8249    1.9042 C.3     0  UNK0       -0.0253
      2 C          -6.6852   -2.6152    0.6588 C.3     0  UNK0        0.1068
      3 C          -6.2389   -3.9391    0.1372 C.3     0  UNK0       -0.0253
      4 C          -7.6069   -1.9866   -0.3927 C.3     0  UNK0       -0.0253
      5 O          -5.6458   -1.6958    0.8806 O.3     0  UNK0       -0.4447
      6 C          -4.7428   -1.3283   -0.0829 C.2     0  UNK0        0.4014
      7 O          -4.8615   -1.8513   -1.2261 O.2     0  UNK0       -0.2264
      8 N          -3.6878   -0.4033    0.1164 N.am    1  PHE1       -0.2695
      9 CA         -2.7351   -0.0290   -0.9352 C.3     1  PHE1        0.1066
     10 CB         -2.8970    1.4424   -1.2643 C.3     1  PHE1       -0.0005
     11 CG         -2.6631    2.3155   -0.0874 C.ar    1  PHE1       -0.0451
     12 CD1        -3.7082    2.6560    0.7506 C.ar    1  PHE1       -0.0585
     13 CE1        -3.5298    3.4670    1.8523 C.ar    1  PHE1       -0.0615
     14 CZ         -2.2869    3.9755    2.1642 C.ar    1  PHE1       -0.0617
     15 CE2        -1.2340    3.6466    1.3403 C.ar    1  PHE1       -0.0615
     16 CD2        -1.4256    2.8238    0.2259 C.ar    1  PHE1       -0.0585
     17 C          -1.3582   -0.4037   -0.5576 C.2     1  PHE1        0.2376
     18 O          -1.1680   -0.8369    0.6438 O.2     1  PHE1       -0.2735
     19 N          -0.2260   -0.3272   -1.4161 N.am    2  UNK2       -0.2783
     20 C          -0.2702    0.1081   -2.7788 C.3     2  UNK2        0.0619
     21 S           1.0179   -0.9714   -3.5330 S.3     2  UNK2       -0.1393
     22 C           1.5711   -1.7859   -2.0004 C.3     2  UNK2        0.0224
     23 C           1.1065   -0.6839   -1.0278 C.3     2  UNK2        0.1120
     24 C           2.0241    0.4662   -1.1904 C.2     2  UNK2        0.2349
     25 O           1.6752    1.6056   -1.5724 O.2     2  UNK2       -0.2737
     26 N           3.4228    0.3134   -0.9019 N.am    3  ARG3       -0.3044
     27 CA          4.3358    1.4235   -1.0538 C.3     3  ARG3        0.0786
     28 C           5.3400    1.2023   -2.1006 C.2     3  ARG3        0.1404
     29 O           6.2040    2.0133   -2.3819 O.2     3  ARG3       -0.2991
     30 CB          4.9014    1.7796    0.2813 C.3     3  ARG3       -0.0250
     31 CG          5.6468    0.7317    1.0082 C.3     3  ARG3       -0.0202
     32 CD          6.8437    0.2427    0.2461 C.3     3  ARG3        0.0647
     33 NE          7.4929   -0.7632    1.1043 N.pl3   3  ARG3       -0.2761
     34 CZ          8.1316   -0.4280    2.3223 C.cat   3  ARG3        0.3762
     35 NH1         8.5335    0.7852    2.4945 N.pl3   3  ARG3       -0.1298
     36 NH2         8.3296   -1.4181    3.3473 N.pl3   3  ARG3       -0.2893
     37 H          -7.1089   -3.6063    2.5548 H       0  UNK0        0.0268
     38 H          -8.5245   -3.1508    1.5616 H       0  UNK0        0.0268
     39 H          -7.6480   -1.8466    2.4039 H       0  UNK0        0.0268
     40 H          -5.4192   -4.3945    0.7134 H       0  UNK0        0.0268
     41 H          -7.1145   -4.6386    0.2271 H       0  UNK0        0.0268
     42 H          -6.0273   -3.9127   -0.9679 H       0  UNK0        0.0268
     43 H          -7.3577   -2.4113   -1.3673 H       0  UNK0        0.0268
     44 H          -7.4366   -0.8897   -0.4511 H       0  UNK0        0.0268
     45 H          -8.6704   -2.1105   -0.1028 H       0  UNK0        0.0268
     46 H          -3.6119    0.0179    1.0783 H       1  PHE1        0.1528
     47 HA         -3.0142   -0.6020   -1.8332 H       1  PHE1        0.0599
     48 HB1        -2.2078    1.6789   -2.0921 H       1  PHE1        0.0336
     49 HB2        -3.9205    1.6408   -1.6800 H       1  PHE1        0.0336
     50 HD1        -4.6863    2.2556    0.5047 H       1  PHE1        0.0620
     51 HE1        -4.3499    3.7313    2.5057 H       1  PHE1        0.0618
     52 HZ         -2.1289    4.6178    3.0312 H       1  PHE1        0.0618
     53 HE2        -0.2608    4.0520    1.5949 H       1  PHE1        0.0618
     54 HD2        -0.5733    2.5929   -0.3923 H       1  PHE1        0.0620
     55 H          -1.2566   -0.1250   -3.2623 H       2  UNK2        0.0580
     56 H          -0.0608    1.1566   -2.9689 H       2  UNK2        0.0580
     57 H           1.0536   -2.7279   -1.8133 H       2  UNK2        0.0400
     58 H           2.6699   -1.8353   -1.9411 H       2  UNK2        0.0400
     59 H           1.1417   -1.0843    0.0185 H       2  UNK2        0.0605
     60 H           3.8044   -0.6053   -0.5762 H       3  ARG3        0.1494
     61 HA          3.7300    2.3236   -1.3935 H       3  ARG3        0.0574
     62 H           5.3615    0.2785   -2.6917 H       3  ARG3        0.1046
     63 HB1         5.6052    2.6637    0.1697 H       3  ARG3        0.0288
     64 HB2         4.0734    2.1423    0.9659 H       3  ARG3        0.0288
     65 HG1         4.9977   -0.1110    1.3495 H       3  ARG3        0.0296
     66 HG2         6.0363    1.1707    1.9591 H       3  ARG3        0.0296
     67 HD1         7.5421    1.0526    0.0227 H       3  ARG3        0.0655
     68 HD2         6.5868   -0.2677   -0.7097 H       3  ARG3        0.0655
     69 HE          7.4953   -1.7632    0.8274 H       3  ARG3        0.2579
     70 HH1         8.4041    1.5017    1.7822 H       3  ARG3        0.3062
     71 HH21        8.6586   -2.3470    3.0714 H       3  ARG3        0.2546
     72 HH22        8.1327   -1.1540    4.3199 H       3  ARG3        0.2546
@<TRIPOS>BOND
     1     1     2    1
     2     2     3    1
     3     2     4    1
     4     2     5    1
     5     5     6    1
     6     6     7    2
     7     6     8   am
     8     8     9    1
     9     9    10    1
    10    10    11    1
    11    11    12   ar
    12    12    13   ar
    13    13    14   ar
    14    14    15   ar
    15    15    16   ar
    16     9    17    1
    17    17    18    2
    18    17    19   am
    19    19    20    1
    20    20    21    1
    21    21    22    1
    22    22    23    1
    23    23    24    1
    24    24    25    2
    25    24    26   am
    26    26    27    1
    27    27    28    1
    28    28    29    2
    29    27    30    1
    30    30    31    1
    31    31    32    1
    32    32    33    1
    33    33    34    1
    34    34    35    2
    35    34    36    1
    36    16    11   ar
    37    23    19    1
    38     1    37    1
    39     1    38    1
    40     1    39    1
    41     3    40    1
    42     3    41    1
    43     3    42    1
    44     4    43    1
    45     4    44    1
    46     4    45    1
    47     8    46    1
    48     9    47    1
    49    10    48    1
    50    10    49    1
    51    12    50    1
    52    13    51    1
    53    14    52    1
    54    15    53    1
    55    16    54    1
    56    20    55    1
    57    20    56    1
    58    22    57    1
    59    22    58    1
    60    23    59    1
    61    26    60    1
    62    27    61    1
    63    28    62    1
    64    30    63    1
    65    30    64    1
    66    31    65    1
    67    31    66    1
    68    32    67    1
    69    32    68    1
    70    33    69    1
    71    35    70    1
    72    36    71    1
    73    36    72    1
