
     RDKit          3D

 42 44  0  0  0  0  0  0  0  0999 V2000
   -5.8570   -0.2864    2.0268 N   0  0  0  0  0  0  0  0  0  0  0  0
   -5.4009   -0.5965    0.7103 C   0  0  0  0  0  0  0  0  0  0  0  0
   -4.1607   -0.1251    0.3896 N   0  0  0  0  0  0  0  0  0  0  0  0
   -3.6830   -0.3913   -0.8443 C   0  0  0  0  0  0  0  0  0  0  0  0
   -4.4436   -1.1230   -1.7449 C   0  0  0  0  0  0  0  0  0  0  0  0
   -3.7113   -1.2222   -2.8704 N   0  0  0  0  0  0  0  0  0  0  0  0
   -2.5357   -0.5878   -2.7093 C   0  0  0  0  0  0  0  0  0  0  0  0
   -2.5236   -0.0746   -1.4515 N   0  0  0  0  0  0  0  0  0  0  0  0
   -1.4159    0.6789   -0.9133 C   0  0  1  0  0  0  0  0  0  0  0  0
   -1.2900    0.5616    0.5728 C   0  0  0  0  0  0  0  0  0  0  0  0
    0.1309    1.0476    0.8033 C   0  0  2  0  0  0  0  0  0  0  0  0
    0.0333    2.3791    1.2275 O   0  0  0  0  0  0  0  0  0  0  0  0
    0.6992    0.9930   -0.5957 C   0  0  1  0  0  0  0  0  0  0  0  0
    2.1168    0.4677   -0.6264 C   0  0  0  0  0  0  0  0  0  0  0  0
    2.9804    1.2708    0.1097 O   0  0  0  0  0  0  0  0  0  0  0  0
    4.5649    0.6840    0.0754 P   0  0  0  0  0  0  0  0  0  0  0  0
    5.6593    1.9077    0.4818 O   0  0  0  0  0  0  0  0  0  0  0  0
    4.9526    0.2331   -1.3348 O   0  0  0  0  0  0  0  0  0  0  0  0
    4.7827   -0.6241    1.0994 O   0  0  0  0  0  0  0  0  0  0  0  0
    6.4112   -1.0567    1.0716 P   0  0  0  0  0  0  0  0  0  0  0  0
    7.0832   -0.5285   -0.3819 O   0  0  0  0  0  0  0  0  0  0  0  0
    6.6274   -2.7263    1.2645 O   0  0  0  0  0  0  0  0  0  0  0  0
    7.1729   -0.3404    2.1861 O   0  0  0  0  0  0  0  0  0  0  0  0
   -0.1784    0.1743   -1.3444 O   0  0  0  0  0  0  0  0  0  0  0  0
   -5.6836   -1.5680   -1.3589 C   0  0  0  0  0  0  0  0  0  0  0  0
   -6.3811   -2.2274   -2.1563 O   0  0  0  0  0  0  0  0  0  0  0  0
   -6.1735   -1.3123   -0.1368 N   0  0  0  0  0  0  0  0  0  0  0  0
   -6.7233    0.3109    2.1189 H   0  0  0  0  0  0  0  0  0  0  0  0
   -5.4574   -0.5655    2.9510 H   0  0  0  0  0  0  0  0  0  0  0  0
   -1.8054   -0.5547   -3.5042 H   0  0  0  0  0  0  0  0  0  0  0  0
   -1.4402    1.7360   -1.2545 H   0  0  0  0  0  0  0  0  0  0  0  0
   -1.3279   -0.5048    0.8488 H   0  0  0  0  0  0  0  0  0  0  0  0
   -2.0297    1.1833    1.1145 H   0  0  0  0  0  0  0  0  0  0  0  0
    0.6789    0.4091    1.5169 H   0  0  0  0  0  0  0  0  0  0  0  0
    0.7732    2.6256    1.8317 H   0  0  0  0  0  0  0  0  0  0  0  0
    0.6244    1.9866   -1.0751 H   0  0  0  0  0  0  0  0  0  0  0  0
    2.1676   -0.6029   -0.3672 H   0  0  0  0  0  0  0  0  0  0  0  0
    2.4469    0.5643   -1.6950 H   0  0  0  0  0  0  0  0  0  0  0  0
    5.5093    2.2058    1.4227 H   0  0  0  0  0  0  0  0  0  0  0  0
    7.3789    0.4294   -0.3183 H   0  0  0  0  0  0  0  0  0  0  0  0
    6.5423   -3.1947    0.4059 H   0  0  0  0  0  0  0  0  0  0  0  0
   -7.1141   -1.6358    0.1910 H   0  0  0  0  0  0  0  0  0  0  0  0
  1  2  1  0
  2  3  2  0
  3  4  1  0
  4  5  2  0
  5  6  1  0
  6  7  2  0
  7  8  1  0
  8  9  1  0
  9 10  1  0
 10 11  1  0
 11 12  1  0
 11 13  1  0
 13 14  1  0
 14 15  1  0
 15 16  1  0
 16 17  1  0
 16 18  2  0
 16 19  1  0
 19 20  1  0
 20 21  1  0
 20 22  1  0
 20 23  2  0
 13 24  1  0
  5 25  1  0
 25 26  2  0
 25 27  1  0
 27  2  1  0
  8  4  1  0
 24  9  1  0
  1 28  1  0
  1 29  1  0
  7 30  1  0
  9 31  1  1
 10 32  1  0
 10 33  1  0
 11 34  1  1
 12 35  1  0
 13 36  1  6
 14 37  1  0
 14 38  1  0
 17 39  1  0
 21 40  1  0
 22 41  1  0
 27 42  1  0
M  END
$$$$
