@<TRIPOS>MOLECULE
*****
 61 65 0 0 0
SMALL
GASTEIGER

@<TRIPOS>ATOM
      1 C          -7.2998   -1.2963   -1.2209 C.3     1  UNL1       -0.0440
      2 C          -6.2860   -0.1774   -1.2361 C.3     1  UNL1        0.0492
      3 C          -6.7948    1.1101   -0.6249 C.3     1  UNL1        0.0749
      4 O          -6.4665    2.1995   -1.4532 O.3     1  UNL1       -0.3899
      5 C          -6.1823    1.2529    0.7416 C.3     1  UNL1       -0.0092
      6 C          -5.6301   -0.1666    0.9468 C.3     1  UNL1        0.0175
      7 N          -5.1571   -0.4808   -0.3698 N.am    1  UNL1       -0.2950
      8 C          -3.8824   -0.9071   -0.7634 C.2     1  UNL1        0.2327
      9 O          -3.6574   -1.1724   -1.9812 O.2     1  UNL1       -0.2740
     10 C          -2.7225   -1.1008    0.1168 C.3     1  UNL1        0.1054
     11 C          -2.3250   -0.1731    1.1381 C.3     1  UNL1       -0.0220
     12 C          -1.4846   -0.3110   -0.0530 C.3     1  UNL1        0.0134
     13 C          -0.1745   -1.1341    0.1201 C.3     1  UNL1        0.0935
     14 C          -0.0408   -1.9165   -1.1188 C.3     1  UNL1       -0.0351
     15 C           0.9304   -0.0837    0.1857 C.ar    1  UNL1        0.0158
     16 C           2.1708   -0.3876   -0.2094 C.ar    1  UNL1       -0.0463
     17 C           3.2937    0.4671    0.1206 C.ar    1  UNL1       -0.0217
     18 C           4.6923    0.3623   -0.1386 C.2     1  UNL1       -0.0172
     19 C           5.6437    0.4336    0.6457 C.2     1  UNL1        0.1492
     20 F           5.3623    0.6244    2.0685 F       1  UNL1       -0.2032
     21 C           7.1111    0.6248    0.3932 C.ar    1  UNL1        0.0990
     22 C           7.6751    0.3794   -0.9400 C.ar    1  UNL1       -0.0322
     23 C           8.9543    0.9711   -1.1883 C.ar    1  UNL1       -0.0408
     24 C           9.5917    1.7420   -0.1568 C.ar    1  UNL1        0.0699
     25 C          10.6774    2.6639   -0.4795 C.1     1  UNL1        0.1007
     26 N          11.6290    3.4913   -0.7524 N.1     1  UNL1       -0.1908
     27 C           8.9830    1.8657    1.0229 C.ar    1  UNL1        0.0457
     28 N           7.7810    1.2669    1.1319 N.ar    1  UNL1       -0.2514
     29 C           2.8993    1.5341    0.8529 C.ar    1  UNL1       -0.0518
     30 C           1.7524    1.9229    1.2867 C.ar    1  UNL1       -0.0255
     31 C           0.6471    1.0644    0.9352 C.ar    1  UNL1        0.1289
     32 F          -0.5284    1.4807    1.2556 F       1  UNL1       -0.2051
     33 N          -0.1954   -1.8478    1.3282 N.2     1  UNL1       -0.2521
     34 C          -1.0730   -2.7496    1.6459 C.2     1  UNL1        0.1485
     35 N          -0.9949   -3.4140    2.8639 N.pl3   1  UNL1       -0.3380
     36 S          -2.3970   -2.9156    0.4430 S.3     1  UNL1       -0.0746
     37 H          -7.1549   -1.9828   -0.3884 H       1  UNL1        0.0248
     38 H          -7.3025   -1.8458   -2.1744 H       1  UNL1        0.0248
     39 H          -8.3315   -0.8482   -1.0817 H       1  UNL1        0.0248
     40 H          -5.9470    0.0503   -2.2917 H       1  UNL1        0.0523
     41 H          -7.9004    1.0753   -0.5730 H       1  UNL1        0.0612
     42 H          -6.5175    1.9203   -2.4269 H       1  UNL1        0.2099
     43 H          -5.3692    1.9683    0.7406 H       1  UNL1        0.0306
     44 H          -6.9300    1.5219    1.5475 H       1  UNL1        0.0306
     45 H          -4.9291   -0.2207    1.7643 H       1  UNL1        0.0465
     46 H          -6.5787   -0.7772    1.1261 H       1  UNL1        0.0465
     47 H          -2.8325    0.8019    1.3910 H       1  UNL1        0.0287
     48 H          -1.9499   -0.6283    2.1149 H       1  UNL1        0.0287
     49 H          -1.4388    0.3212   -0.9361 H       1  UNL1        0.0346
     50 H           0.2148   -3.0044   -1.0022 H       1  UNL1        0.0256
     51 H          -0.9597   -1.8224   -1.7857 H       1  UNL1        0.0256
     52 H           0.8147   -1.4842   -1.7478 H       1  UNL1        0.0256
     53 H           2.4527   -1.2588   -0.7653 H       1  UNL1        0.0628
     54 H           4.9665    0.2053   -1.2544 H       1  UNL1        0.0653
     55 H           7.1217   -0.1911   -1.5844 H       1  UNL1        0.0640
     56 H           9.4979    0.8621   -2.0591 H       1  UNL1        0.0631
     57 H           9.3799    2.4228    1.8519 H       1  UNL1        0.0843
     58 H           3.7860    2.2174    1.1885 H       1  UNL1        0.0624
     59 H           1.5262    2.8376    1.8644 H       1  UNL1        0.0646
     60 H          -1.9509   -3.5981    3.3536 H       1  UNL1        0.1442
     61 H          -0.1698   -3.7646    3.3662 H       1  UNL1        0.1442
@<TRIPOS>BOND
     1     1     2    1
     2     2     3    1
     3     3     4    1
     4     3     5    1
     5     5     6    1
     6     6     7    1
     7     7     8   am
     8     8     9    2
     9    10     8    1
    10    10    11    1
    11    11    12    1
    12    12    13    1
    13    13    14    1
    14    13    15    1
    15    15    16   ar
    16    16    17   ar
    17    17    18    1
    18    18    19    2
    19    19    20    1
    20    19    21    1
    21    21    22   ar
    22    22    23   ar
    23    23    24   ar
    24    24    25    1
    25    25    26    3
    26    24    27   ar
    27    27    28   ar
    28    17    29   ar
    29    29    30   ar
    30    30    31   ar
    31    31    32    1
    32    13    33    1
    33    33    34    2
    34    34    35    1
    35    34    36    1
    36     7     2    1
    37    12    10    1
    38    31    15   ar
    39    36    10    1
    40    28    21   ar
    41     1    37    1
    42     1    38    1
    43     1    39    1
    44     2    40    1
    45     3    41    1
    46     4    42    1
    47     5    43    1
    48     5    44    1
    49     6    45    1
    50     6    46    1
    51    11    47    1
    52    11    48    1
    53    12    49    1
    54    14    50    1
    55    14    51    1
    56    14    52    1
    57    16    53    1
    58    18    54    1
    59    22    55    1
    60    23    56    1
    61    27    57    1
    62    29    58    1
    63    30    59    1
    64    35    60    1
    65    35    61    1
