
     RDKit          3D

 61 65  0  0  0  0  0  0  0  0999 V2000
   -7.2998   -1.2963   -1.2209 C   0  0  0  0  0  0  0  0  0  0  0  0
   -6.2860   -0.1774   -1.2361 C   0  0  1  0  0  0  0  0  0  0  0  0
   -6.7948    1.1101   -0.6249 C   0  0  2  0  0  0  0  0  0  0  0  0
   -6.4665    2.1995   -1.4532 O   0  0  0  0  0  0  0  0  0  0  0  0
   -6.1823    1.2529    0.7416 C   0  0  0  0  0  0  0  0  0  0  0  0
   -5.6301   -0.1666    0.9468 C   0  0  0  0  0  0  0  0  0  0  0  0
   -5.1571   -0.4808   -0.3698 N   0  0  0  0  0  0  0  0  0  0  0  0
   -3.8824   -0.9071   -0.7634 C   0  0  0  0  0  0  0  0  0  0  0  0
   -3.6574   -1.1724   -1.9812 O   0  0  0  0  0  0  0  0  0  0  0  0
   -2.7225   -1.1008    0.1168 C   0  0  2  0  0  0  0  0  0  0  0  0
   -2.3250   -0.1731    1.1381 C   0  0  0  0  0  0  0  0  0  0  0  0
   -1.4846   -0.3110   -0.0530 C   0  0  1  0  0  0  0  0  0  0  0  0
   -0.1745   -1.1341    0.1201 C   0  0  1  0  0  0  0  0  0  0  0  0
   -0.0408   -1.9165   -1.1188 C   0  0  0  0  0  0  0  0  0  0  0  0
    0.9304   -0.0837    0.1857 C   0  0  0  0  0  0  0  0  0  0  0  0
    2.1708   -0.3876   -0.2094 C   0  0  0  0  0  0  0  0  0  0  0  0
    3.2937    0.4671    0.1206 C   0  0  0  0  0  0  0  0  0  0  0  0
    4.6923    0.3623   -0.1386 C   0  0  0  0  0  0  0  0  0  0  0  0
    5.6437    0.4336    0.6457 C   0  0  0  0  0  0  0  0  0  0  0  0
    5.3623    0.6244    2.0685 F   0  0  0  0  0  0  0  0  0  0  0  0
    7.1111    0.6248    0.3932 C   0  0  0  0  0  0  0  0  0  0  0  0
    7.6751    0.3794   -0.9400 C   0  0  0  0  0  0  0  0  0  0  0  0
    8.9543    0.9711   -1.1883 C   0  0  0  0  0  0  0  0  0  0  0  0
    9.5917    1.7420   -0.1568 C   0  0  0  0  0  0  0  0  0  0  0  0
   10.6774    2.6639   -0.4795 C   0  0  0  0  0  0  0  0  0  0  0  0
   11.6290    3.4913   -0.7524 N   0  0  0  0  0  0  0  0  0  0  0  0
    8.9830    1.8657    1.0229 C   0  0  0  0  0  0  0  0  0  0  0  0
    7.7810    1.2669    1.1319 N   0  0  0  0  0  0  0  0  0  0  0  0
    2.8993    1.5341    0.8529 C   0  0  0  0  0  0  0  0  0  0  0  0
    1.7524    1.9229    1.2867 C   0  0  0  0  0  0  0  0  0  0  0  0
    0.6471    1.0644    0.9352 C   0  0  0  0  0  0  0  0  0  0  0  0
   -0.5284    1.4807    1.2556 F   0  0  0  0  0  0  0  0  0  0  0  0
   -0.1954   -1.8478    1.3282 N   0  0  0  0  0  0  0  0  0  0  0  0
   -1.0730   -2.7496    1.6459 C   0  0  0  0  0  0  0  0  0  0  0  0
   -0.9949   -3.4140    2.8639 N   0  0  0  0  0  0  0  0  0  0  0  0
   -2.3970   -2.9156    0.4430 S   0  0  0  0  0  0  0  0  0  0  0  0
   -7.1549   -1.9828   -0.3884 H   0  0  0  0  0  0  0  0  0  0  0  0
   -7.3025   -1.8458   -2.1744 H   0  0  0  0  0  0  0  0  0  0  0  0
   -8.3315   -0.8482   -1.0817 H   0  0  0  0  0  0  0  0  0  0  0  0
   -5.9470    0.0503   -2.2917 H   0  0  0  0  0  0  0  0  0  0  0  0
   -7.9004    1.0753   -0.5730 H   0  0  0  0  0  0  0  0  0  0  0  0
   -6.5175    1.9203   -2.4269 H   0  0  0  0  0  0  0  0  0  0  0  0
   -5.3692    1.9683    0.7406 H   0  0  0  0  0  0  0  0  0  0  0  0
   -6.9300    1.5219    1.5475 H   0  0  0  0  0  0  0  0  0  0  0  0
   -4.9291   -0.2207    1.7643 H   0  0  0  0  0  0  0  0  0  0  0  0
   -6.5787   -0.7772    1.1261 H   0  0  0  0  0  0  0  0  0  0  0  0
   -2.8325    0.8019    1.3910 H   0  0  0  0  0  0  0  0  0  0  0  0
   -1.9499   -0.6283    2.1149 H   0  0  0  0  0  0  0  0  0  0  0  0
   -1.4388    0.3212   -0.9361 H   0  0  0  0  0  0  0  0  0  0  0  0
    0.2148   -3.0044   -1.0022 H   0  0  0  0  0  0  0  0  0  0  0  0
   -0.9597   -1.8224   -1.7857 H   0  0  0  0  0  0  0  0  0  0  0  0
    0.8147   -1.4842   -1.7478 H   0  0  0  0  0  0  0  0  0  0  0  0
    2.4527   -1.2588   -0.7653 H   0  0  0  0  0  0  0  0  0  0  0  0
    4.9665    0.2053   -1.2544 H   0  0  0  0  0  0  0  0  0  0  0  0
    7.1217   -0.1911   -1.5844 H   0  0  0  0  0  0  0  0  0  0  0  0
    9.4979    0.8621   -2.0591 H   0  0  0  0  0  0  0  0  0  0  0  0
    9.3799    2.4228    1.8519 H   0  0  0  0  0  0  0  0  0  0  0  0
    3.7860    2.2174    1.1885 H   0  0  0  0  0  0  0  0  0  0  0  0
    1.5262    2.8376    1.8644 H   0  0  0  0  0  0  0  0  0  0  0  0
   -1.9509   -3.5981    3.3536 H   0  0  0  0  0  0  0  0  0  0  0  0
   -0.1698   -3.7646    3.3662 H   0  0  0  0  0  0  0  0  0  0  0  0
  1  2  1  0
  2  3  1  0
  3  4  1  0
  3  5  1  0
  5  6  1  0
  6  7  1  0
  7  8  1  0
  8  9  2  0
 10  8  1  6
 10 11  1  0
 11 12  1  0
 12 13  1  0
 13 14  1  6
 13 15  1  0
 15 16  2  0
 16 17  1  0
 17 18  1  0
 18 19  2  0
 19 20  1  0
 19 21  1  0
 21 22  2  0
 22 23  1  0
 23 24  2  0
 24 25  1  0
 25 26  3  0
 24 27  1  0
 27 28  2  0
 17 29  2  0
 29 30  1  0
 30 31  2  0
 31 32  1  0
 13 33  1  0
 33 34  2  0
 34 35  1  0
 34 36  1  0
  7  2  1  0
 12 10  1  0
 31 15  1  0
 36 10  1  0
 28 21  1  0
  1 37  1  0
  1 38  1  0
  1 39  1  0
  2 40  1  6
  3 41  1  1
  4 42  1  0
  5 43  1  0
  5 44  1  0
  6 45  1  0
  6 46  1  0
 11 47  1  0
 11 48  1  0
 12 49  1  6
 14 50  1  0
 14 51  1  0
 14 52  1  0
 16 53  1  0
 18 54  1  0
 22 55  1  0
 23 56  1  0
 27 57  1  0
 29 58  1  0
 30 59  1  0
 35 60  1  0
 35 61  1  0
M  END
$$$$
