
     RDKit          3D

 58 61  0  0  0  0  0  0  0  0999 V2000
   -1.6473    4.0383    1.9996 C   0  0  0  0  0  0  0  0  0  0  0  0
   -0.8482    3.5669    0.8320 C   0  0  0  0  0  0  0  0  0  0  0  0
   -0.7967    2.1224    0.7830 N   0  0  0  0  0  0  0  0  0  0  0  0
    0.0691    1.0884    1.2984 C   0  0  0  0  0  0  0  0  0  0  0  0
    0.1172    0.0987    0.1541 C   0  0  0  0  0  0  0  0  0  0  0  0
    0.8065   -1.1557    0.4806 C   0  0  0  0  0  0  0  0  0  0  0  0
    2.2207   -1.1397    0.9157 C   0  0  0  0  0  0  0  0  0  0  0  0
    3.2310   -0.6349    0.1283 N   0  0  0  0  0  0  0  0  0  0  0  0
    3.4552    0.7031   -0.1469 C   0  0  0  0  0  0  0  0  0  0  0  0
    4.3811    0.8764   -1.3319 C   0  0  0  0  0  0  0  0  0  0  0  0
    5.5538    0.1780   -1.2603 O   0  0  0  0  0  0  0  0  0  0  0  0
    5.4675   -1.0210   -0.5763 C   0  0  0  0  0  0  0  0  0  0  0  0
    4.0607   -1.5802   -0.5646 C   0  0  0  0  0  0  0  0  0  0  0  0
   -1.3699   -0.0716   -0.1233 C   0  0  0  0  0  0  0  0  0  0  0  0
   -1.7829    1.3794    0.0815 C   0  0  0  0  0  0  0  0  0  0  0  0
   -2.8886    1.8060   -0.3490 O   0  0  0  0  0  0  0  0  0  0  0  0
   -1.7067   -0.3638   -1.5166 C   0  0  0  0  0  0  0  0  0  0  0  0
   -2.5972   -1.3172   -1.9623 C   0  0  0  0  0  0  0  0  0  0  0  0
   -2.9007   -1.5719   -3.2827 C   0  0  0  0  0  0  0  0  0  0  0  0
   -2.2715   -0.8193   -4.2764 C   0  0  0  0  0  0  0  0  0  0  0  0
   -1.3667    0.1522   -3.8604 C   0  0  0  0  0  0  0  0  0  0  0  0
   -1.1082    0.3575   -2.5233 C   0  0  0  0  0  0  0  0  0  0  0  0
   -2.1019   -0.8239    0.8847 C   0  0  0  0  0  0  0  0  0  0  0  0
   -2.1514   -2.2165    1.0046 C   0  0  0  0  0  0  0  0  0  0  0  0
   -2.8434   -2.9185    1.9612 C   0  0  0  0  0  0  0  0  0  0  0  0
   -3.5619   -2.2044    2.8978 C   0  0  0  0  0  0  0  0  0  0  0  0
   -3.5957   -0.8298    2.8899 C   0  0  0  0  0  0  0  0  0  0  0  0
   -2.8690   -0.2234    1.8909 C   0  0  0  0  0  0  0  0  0  0  0  0
   -1.9663    3.2188    2.6875 H   0  0  0  0  0  0  0  0  0  0  0  0
   -2.5398    4.6555    1.6864 H   0  0  0  0  0  0  0  0  0  0  0  0
   -1.0434    4.7415    2.6060 H   0  0  0  0  0  0  0  0  0  0  0  0
   -1.2890    4.0047   -0.0801 H   0  0  0  0  0  0  0  0  0  0  0  0
    0.1896    3.9338    0.9330 H   0  0  0  0  0  0  0  0  0  0  0  0
    1.0608    1.5204    1.5421 H   0  0  0  0  0  0  0  0  0  0  0  0
   -0.4236    0.6422    2.1930 H   0  0  0  0  0  0  0  0  0  0  0  0
    0.5017    0.6231   -0.7329 H   0  0  0  0  0  0  0  0  0  0  0  0
    0.2441   -1.7819    1.2324 H   0  0  0  0  0  0  0  0  0  0  0  0
    0.7652   -1.8028   -0.4484 H   0  0  0  0  0  0  0  0  0  0  0  0
    2.5372   -2.2056    1.2082 H   0  0  0  0  0  0  0  0  0  0  0  0
    2.3125   -0.6375    1.9472 H   0  0  0  0  0  0  0  0  0  0  0  0
    3.9285    1.1709    0.7693 H   0  0  0  0  0  0  0  0  0  0  0  0
    2.5737    1.2979   -0.3511 H   0  0  0  0  0  0  0  0  0  0  0  0
    4.6663    1.9725   -1.3542 H   0  0  0  0  0  0  0  0  0  0  0  0
    3.8401    0.6069   -2.2508 H   0  0  0  0  0  0  0  0  0  0  0  0
    5.9013   -0.9694    0.4347 H   0  0  0  0  0  0  0  0  0  0  0  0
    6.0974   -1.7713   -1.1299 H   0  0  0  0  0  0  0  0  0  0  0  0
    3.7446   -1.8436   -1.5692 H   0  0  0  0  0  0  0  0  0  0  0  0
    4.0939   -2.5070    0.0441 H   0  0  0  0  0  0  0  0  0  0  0  0
   -3.1161   -1.9178   -1.2554 H   0  0  0  0  0  0  0  0  0  0  0  0
   -3.6134   -2.3402   -3.5717 H   0  0  0  0  0  0  0  0  0  0  0  0
   -2.5020   -1.0096   -5.2960 H   0  0  0  0  0  0  0  0  0  0  0  0
   -0.9256    0.6899   -4.6970 H   0  0  0  0  0  0  0  0  0  0  0  0
   -0.3906    1.1510   -2.4133 H   0  0  0  0  0  0  0  0  0  0  0  0
   -1.6141   -2.8272    0.2994 H   0  0  0  0  0  0  0  0  0  0  0  0
   -2.8380   -3.9974    1.9976 H   0  0  0  0  0  0  0  0  0  0  0  0
   -4.1173   -2.7189    3.6641 H   0  0  0  0  0  0  0  0  0  0  0  0
   -4.1378   -0.2527    3.5941 H   0  0  0  0  0  0  0  0  0  0  0  0
   -2.8949    0.8782    1.8828 H   0  0  0  0  0  0  0  0  0  0  0  0
  1  2  1  0
  2  3  1  0
  3  4  1  0
  4  5  1  0
  5  6  1  0
  6  7  1  0
  7  8  1  0
  8  9  1  0
  9 10  1  0
 10 11  1  0
 11 12  1  0
 12 13  1  0
  5 14  1  0
 14 15  1  0
 15 16  2  0
 14 17  1  0
 17 18  2  0
 18 19  1  0
 19 20  2  0
 20 21  1  0
 21 22  2  0
 14 23  1  0
 23 24  2  0
 24 25  1  0
 25 26  2  0
 26 27  1  0
 27 28  2  0
 15  3  1  0
 22 17  1  0
 28 23  1  0
 13  8  1  0
  1 29  1  0
  1 30  1  0
  1 31  1  0
  2 32  1  0
  2 33  1  0
  4 34  1  0
  4 35  1  0
  5 36  1  0
  6 37  1  0
  6 38  1  0
  7 39  1  0
  7 40  1  0
  9 41  1  0
  9 42  1  0
 10 43  1  0
 10 44  1  0
 12 45  1  0
 12 46  1  0
 13 47  1  0
 13 48  1  0
 18 49  1  0
 19 50  1  0
 20 51  1  0
 21 52  1  0
 22 53  1  0
 24 54  1  0
 25 55  1  0
 26 56  1  0
 27 57  1  0
 28 58  1  0
M  END
$$$$
