@<TRIPOS>MOLECULE
*****
 58 61 0 0 0
SMALL
GASTEIGER

@<TRIPOS>ATOM
      1 C          -1.6473    4.0383    1.9996 C.3     1  UNL1       -0.0493
      2 C          -0.8482    3.5669    0.8320 C.3     1  UNL1        0.0119
      3 N          -0.7967    2.1224    0.7830 N.am    1  UNL1       -0.3004
      4 C           0.0691    1.0884    1.2984 C.3     1  UNL1        0.0191
      5 C           0.1172    0.0987    0.1541 C.3     1  UNL1       -0.0020
      6 C           0.8065   -1.1557    0.4806 C.3     1  UNL1       -0.0344
      7 C           2.2207   -1.1397    0.9157 C.3     1  UNL1       -0.0006
      8 N           3.2310   -0.6349    0.1283 N.3     1  UNL1       -0.2980
      9 C           3.4552    0.7031   -0.1469 C.3     1  UNL1        0.0224
     10 C           4.3811    0.8764   -1.3319 C.3     1  UNL1        0.0604
     11 O           5.5538    0.1780   -1.2603 O.3     1  UNL1       -0.3772
     12 C           5.4675   -1.0210   -0.5763 C.3     1  UNL1        0.0604
     13 C           4.0607   -1.5802   -0.5646 C.3     1  UNL1        0.0224
     14 C          -1.3699   -0.0716   -0.1233 C.3     1  UNL1        0.1010
     15 C          -1.7829    1.3794    0.0815 C.2     1  UNL1        0.2308
     16 O          -2.8886    1.8060   -0.3490 O.2     1  UNL1       -0.2743
     17 C          -1.7067   -0.3638   -1.5166 C.ar    1  UNL1       -0.0278
     18 C          -2.5972   -1.3172   -1.9623 C.ar    1  UNL1       -0.0572
     19 C          -2.9007   -1.5719   -3.2827 C.ar    1  UNL1       -0.0615
     20 C          -2.2715   -0.8193   -4.2764 C.ar    1  UNL1       -0.0617
     21 C          -1.3667    0.1522   -3.8604 C.ar    1  UNL1       -0.0615
     22 C          -1.1082    0.3575   -2.5233 C.ar    1  UNL1       -0.0572
     23 C          -2.1019   -0.8239    0.8847 C.ar    1  UNL1       -0.0278
     24 C          -2.1514   -2.2165    1.0046 C.ar    1  UNL1       -0.0572
     25 C          -2.8434   -2.9185    1.9612 C.ar    1  UNL1       -0.0615
     26 C          -3.5619   -2.2044    2.8978 C.ar    1  UNL1       -0.0617
     27 C          -3.5957   -0.8298    2.8899 C.ar    1  UNL1       -0.0615
     28 C          -2.8690   -0.2234    1.8909 C.ar    1  UNL1       -0.0572
     29 H          -1.9663    3.2188    2.6875 H       1  UNL1        0.0245
     30 H          -2.5398    4.6555    1.6864 H       1  UNL1        0.0245
     31 H          -1.0434    4.7415    2.6060 H       1  UNL1        0.0245
     32 H          -1.2890    4.0047   -0.0801 H       1  UNL1        0.0462
     33 H           0.1896    3.9338    0.9330 H       1  UNL1        0.0462
     34 H           1.0608    1.5204    1.5421 H       1  UNL1        0.0468
     35 H          -0.4236    0.6422    2.1930 H       1  UNL1        0.0468
     36 H           0.5017    0.6231   -0.7329 H       1  UNL1        0.0333
     37 H           0.2441   -1.7819    1.2324 H       1  UNL1        0.0281
     38 H           0.7652   -1.8028   -0.4484 H       1  UNL1        0.0281
     39 H           2.5372   -2.2056    1.2082 H       1  UNL1        0.0427
     40 H           2.3125   -0.6375    1.9472 H       1  UNL1        0.0427
     41 H           3.9285    1.1709    0.7693 H       1  UNL1        0.0449
     42 H           2.5737    1.2979   -0.3511 H       1  UNL1        0.0449
     43 H           4.6663    1.9725   -1.3542 H       1  UNL1        0.0572
     44 H           3.8401    0.6069   -2.2508 H       1  UNL1        0.0572
     45 H           5.9013   -0.9694    0.4347 H       1  UNL1        0.0572
     46 H           6.0974   -1.7713   -1.1299 H       1  UNL1        0.0572
     47 H           3.7446   -1.8436   -1.5692 H       1  UNL1        0.0449
     48 H           4.0939   -2.5070    0.0441 H       1  UNL1        0.0449
     49 H          -3.1161   -1.9178   -1.2554 H       1  UNL1        0.0621
     50 H          -3.6134   -2.3402   -3.5717 H       1  UNL1        0.0618
     51 H          -2.5020   -1.0096   -5.2960 H       1  UNL1        0.0618
     52 H          -0.9256    0.6899   -4.6970 H       1  UNL1        0.0618
     53 H          -0.3906    1.1510   -2.4133 H       1  UNL1        0.0621
     54 H          -1.6141   -2.8272    0.2994 H       1  UNL1        0.0621
     55 H          -2.8380   -3.9974    1.9976 H       1  UNL1        0.0618
     56 H          -4.1173   -2.7189    3.6641 H       1  UNL1        0.0618
     57 H          -4.1378   -0.2527    3.5941 H       1  UNL1        0.0618
     58 H          -2.8949    0.8782    1.8828 H       1  UNL1        0.0621
@<TRIPOS>BOND
     1     1     2    1
     2     2     3    1
     3     3     4    1
     4     4     5    1
     5     5     6    1
     6     6     7    1
     7     7     8    1
     8     8     9    1
     9     9    10    1
    10    10    11    1
    11    11    12    1
    12    12    13    1
    13     5    14    1
    14    14    15    1
    15    15    16    2
    16    14    17    1
    17    17    18   ar
    18    18    19   ar
    19    19    20   ar
    20    20    21   ar
    21    21    22   ar
    22    14    23    1
    23    23    24   ar
    24    24    25   ar
    25    25    26   ar
    26    26    27   ar
    27    27    28   ar
    28    15     3   am
    29    22    17   ar
    30    28    23   ar
    31    13     8    1
    32     1    29    1
    33     1    30    1
    34     1    31    1
    35     2    32    1
    36     2    33    1
    37     4    34    1
    38     4    35    1
    39     5    36    1
    40     6    37    1
    41     6    38    1
    42     7    39    1
    43     7    40    1
    44     9    41    1
    45     9    42    1
    46    10    43    1
    47    10    44    1
    48    12    45    1
    49    12    46    1
    50    13    47    1
    51    13    48    1
    52    18    49    1
    53    19    50    1
    54    20    51    1
    55    21    52    1
    56    22    53    1
    57    24    54    1
    58    25    55    1
    59    26    56    1
    60    27    57    1
    61    28    58    1
