@<TRIPOS>MOLECULE
*****
 49 52 0 0 0
SMALL
GASTEIGER

@<TRIPOS>ATOM
      1 C           4.7268    1.6871   -0.5553 C.3     1  UNL1        0.0369
      2 O           4.6389    1.7902    0.8061 O.3     1  UNL1       -0.3783
      3 C           3.8888    0.8447    1.4806 C.3     1  UNL1        0.0745
      4 C           4.4352   -0.4908    1.0935 C.ar    1  UNL1        0.0099
      5 C           5.8196   -0.6610    1.2973 C.ar    1  UNL1       -0.0344
      6 C           6.5044   -1.7370    0.7889 C.ar    1  UNL1        0.0594
      7 CL          8.2182   -1.9780    1.0283 Cl      1  UNL1       -0.0820
      8 C           5.7585   -2.6400    0.0678 C.ar    1  UNL1        0.0467
      9 N           4.4491   -2.4844   -0.1266 N.ar    1  UNL1       -0.2486
     10 C           3.7382   -1.4083    0.3829 C.ar    1  UNL1        0.1311
     11 C           2.2935   -1.4668    0.2524 C.2     1  UNL1        0.2669
     12 O           1.8378   -2.0555   -0.7682 O.2     1  UNL1       -0.2682
     13 N           1.3295   -0.9522    1.1419 N.am    1  UNL1       -0.2802
     14 C          -0.0855   -1.0893    0.9134 C.ar    1  UNL1        0.0341
     15 C          -0.7087   -2.2590    1.3489 C.ar    1  UNL1       -0.0391
     16 C          -2.0543   -2.4577    1.1894 C.ar    1  UNL1       -0.0413
     17 C          -2.8499   -1.4923    0.5853 C.ar    1  UNL1        0.0466
     18 CL         -4.5592   -1.7255    0.3458 Cl      1  UNL1       -0.0832
     19 C          -2.2417   -0.3217    0.1487 C.ar    1  UNL1        0.0030
     20 C          -3.1358    0.7315   -0.4686 C.3     1  UNL1        0.1271
     21 C          -2.2374    1.8280   -0.9604 C.3     1  UNL1        0.1199
     22 F          -2.9633    2.8559   -1.5692 F       1  UNL1       -0.2462
     23 N          -3.7513    0.1150   -1.6079 N.2     1  UNL1       -0.2225
     24 C          -4.8917    0.5145   -2.0284 C.2     1  UNL1        0.2763
     25 N          -5.5210   -0.0848   -3.1604 N.pl3   1  UNL1       -0.3134
     26 O          -5.4916    1.5626   -1.3378 O.2     1  UNL1       -0.4622
     27 C          -5.4571    1.5547    0.0717 C.3     1  UNL1        0.1090
     28 C          -4.5707    2.5167    0.7964 C.3     1  UNL1       -0.0065
     29 C          -4.1160    1.1423    0.5492 C.3     1  UNL1        0.0314
     30 C          -0.8948   -0.1664    0.3265 C.ar    1  UNL1       -0.0335
     31 H           5.1735    0.6935   -0.8792 H       1  UNL1        0.0524
     32 H           3.8072    1.8751   -1.1047 H       1  UNL1        0.0524
     33 H           5.5401    2.4190   -0.9321 H       1  UNL1        0.0524
     34 H           2.8762    0.9273    0.9693 H       1  UNL1        0.0610
     35 H           3.7997    1.0235    2.5346 H       1  UNL1        0.0610
     36 H           6.3486    0.0766    1.8683 H       1  UNL1        0.0637
     37 H           6.2238   -3.5313   -0.3807 H       1  UNL1        0.0844
     38 H           1.6683   -0.4810    2.0116 H       1  UNL1        0.1552
     39 H          -0.1264   -3.0570    1.8271 H       1  UNL1        0.0636
     40 H          -2.5653   -3.3527    1.5201 H       1  UNL1        0.0633
     41 H          -1.5185    1.4544   -1.7038 H       1  UNL1        0.0643
     42 H          -1.6588    2.3439   -0.1629 H       1  UNL1        0.0643
     43 H          -6.3753    0.2938   -3.5927 H       1  UNL1        0.1466
     44 H          -5.0915   -0.9325   -3.5650 H       1  UNL1        0.1466
     45 H          -6.3942    1.1917    0.5564 H       1  UNL1        0.0737
     46 H          -4.2961    3.3968    0.2251 H       1  UNL1        0.0306
     47 H          -4.9256    2.7566    1.8424 H       1  UNL1        0.0306
     48 H          -4.1546    0.4685    1.4576 H       1  UNL1        0.0365
     49 H          -0.4395    0.7613   -0.0306 H       1  UNL1        0.0640
@<TRIPOS>BOND
     1     1     2    1
     2     2     3    1
     3     3     4    1
     4     4     5   ar
     5     5     6   ar
     6     6     7    1
     7     6     8   ar
     8     8     9   ar
     9     9    10   ar
    10    10    11    1
    11    11    12    2
    12    11    13   am
    13    13    14    1
    14    14    15   ar
    15    15    16   ar
    16    16    17   ar
    17    17    18    1
    18    17    19   ar
    19    19    20    1
    20    20    21    1
    21    21    22    1
    22    20    23    1
    23    23    24    2
    24    24    25    1
    25    24    26    1
    26    26    27    1
    27    27    28    1
    28    28    29    1
    29    19    30   ar
    30    10     4   ar
    31    30    14   ar
    32    29    20    1
    33    29    27    1
    34     1    31    1
    35     1    32    1
    36     1    33    1
    37     3    34    1
    38     3    35    1
    39     5    36    1
    40     8    37    1
    41    13    38    1
    42    15    39    1
    43    16    40    1
    44    21    41    1
    45    21    42    1
    46    25    43    1
    47    25    44    1
    48    27    45    1
    49    28    46    1
    50    28    47    1
    51    29    48    1
    52    30    49    1
