
     RDKit          3D

 49 52  0  0  0  0  0  0  0  0999 V2000
    4.7268    1.6871   -0.5553 C   0  0  0  0  0  0  0  0  0  0  0  0
    4.6389    1.7902    0.8061 O   0  0  0  0  0  0  0  0  0  0  0  0
    3.8888    0.8447    1.4806 C   0  0  0  0  0  0  0  0  0  0  0  0
    4.4352   -0.4908    1.0935 C   0  0  0  0  0  0  0  0  0  0  0  0
    5.8196   -0.6610    1.2973 C   0  0  0  0  0  0  0  0  0  0  0  0
    6.5044   -1.7370    0.7889 C   0  0  0  0  0  0  0  0  0  0  0  0
    8.2182   -1.9780    1.0283 Cl  0  0  0  0  0  0  0  0  0  0  0  0
    5.7585   -2.6400    0.0678 C   0  0  0  0  0  0  0  0  0  0  0  0
    4.4491   -2.4844   -0.1266 N   0  0  0  0  0  0  0  0  0  0  0  0
    3.7382   -1.4083    0.3829 C   0  0  0  0  0  0  0  0  0  0  0  0
    2.2935   -1.4668    0.2524 C   0  0  0  0  0  0  0  0  0  0  0  0
    1.8378   -2.0555   -0.7682 O   0  0  0  0  0  0  0  0  0  0  0  0
    1.3295   -0.9522    1.1419 N   0  0  0  0  0  0  0  0  0  0  0  0
   -0.0855   -1.0893    0.9134 C   0  0  0  0  0  0  0  0  0  0  0  0
   -0.7087   -2.2590    1.3489 C   0  0  0  0  0  0  0  0  0  0  0  0
   -2.0543   -2.4577    1.1894 C   0  0  0  0  0  0  0  0  0  0  0  0
   -2.8499   -1.4923    0.5853 C   0  0  0  0  0  0  0  0  0  0  0  0
   -4.5592   -1.7255    0.3458 Cl  0  0  0  0  0  0  0  0  0  0  0  0
   -2.2417   -0.3217    0.1487 C   0  0  0  0  0  0  0  0  0  0  0  0
   -3.1358    0.7315   -0.4686 C   0  0  1  0  0  0  0  0  0  0  0  0
   -2.2374    1.8280   -0.9604 C   0  0  0  0  0  0  0  0  0  0  0  0
   -2.9633    2.8559   -1.5692 F   0  0  0  0  0  0  0  0  0  0  0  0
   -3.7513    0.1150   -1.6079 N   0  0  0  0  0  0  0  0  0  0  0  0
   -4.8917    0.5145   -2.0284 C   0  0  0  0  0  0  0  0  0  0  0  0
   -5.5210   -0.0848   -3.1604 N   0  0  0  0  0  0  0  0  0  0  0  0
   -5.4916    1.5626   -1.3378 O   0  0  0  0  0  0  0  0  0  0  0  0
   -5.4571    1.5547    0.0717 C   0  0  2  0  0  0  0  0  0  0  0  0
   -4.5707    2.5167    0.7964 C   0  0  0  0  0  0  0  0  0  0  0  0
   -4.1160    1.1423    0.5492 C   0  0  2  0  0  0  0  0  0  0  0  0
   -0.8948   -0.1664    0.3265 C   0  0  0  0  0  0  0  0  0  0  0  0
    5.1735    0.6935   -0.8792 H   0  0  0  0  0  0  0  0  0  0  0  0
    3.8072    1.8751   -1.1047 H   0  0  0  0  0  0  0  0  0  0  0  0
    5.5401    2.4190   -0.9321 H   0  0  0  0  0  0  0  0  0  0  0  0
    2.8762    0.9273    0.9693 H   0  0  0  0  0  0  0  0  0  0  0  0
    3.7997    1.0235    2.5346 H   0  0  0  0  0  0  0  0  0  0  0  0
    6.3486    0.0766    1.8683 H   0  0  0  0  0  0  0  0  0  0  0  0
    6.2238   -3.5313   -0.3807 H   0  0  0  0  0  0  0  0  0  0  0  0
    1.6683   -0.4810    2.0116 H   0  0  0  0  0  0  0  0  0  0  0  0
   -0.1264   -3.0570    1.8271 H   0  0  0  0  0  0  0  0  0  0  0  0
   -2.5653   -3.3527    1.5201 H   0  0  0  0  0  0  0  0  0  0  0  0
   -1.5185    1.4544   -1.7038 H   0  0  0  0  0  0  0  0  0  0  0  0
   -1.6588    2.3439   -0.1629 H   0  0  0  0  0  0  0  0  0  0  0  0
   -6.3753    0.2938   -3.5927 H   0  0  0  0  0  0  0  0  0  0  0  0
   -5.0915   -0.9325   -3.5650 H   0  0  0  0  0  0  0  0  0  0  0  0
   -6.3942    1.1917    0.5564 H   0  0  0  0  0  0  0  0  0  0  0  0
   -4.2961    3.3968    0.2251 H   0  0  0  0  0  0  0  0  0  0  0  0
   -4.9256    2.7566    1.8424 H   0  0  0  0  0  0  0  0  0  0  0  0
   -4.1546    0.4685    1.4576 H   0  0  0  0  0  0  0  0  0  0  0  0
   -0.4395    0.7613   -0.0306 H   0  0  0  0  0  0  0  0  0  0  0  0
  1  2  1  0
  2  3  1  0
  3  4  1  0
  4  5  2  0
  5  6  1  0
  6  7  1  0
  6  8  2  0
  8  9  1  0
  9 10  2  0
 10 11  1  0
 11 12  2  0
 11 13  1  0
 13 14  1  0
 14 15  2  0
 15 16  1  0
 16 17  2  0
 17 18  1  0
 17 19  1  0
 19 20  1  0
 20 21  1  6
 21 22  1  0
 20 23  1  0
 23 24  2  0
 24 25  1  0
 24 26  1  0
 26 27  1  0
 27 28  1  0
 28 29  1  0
 19 30  2  0
 10  4  1  0
 30 14  1  0
 29 20  1  0
 29 27  1  0
  1 31  1  0
  1 32  1  0
  1 33  1  0
  3 34  1  0
  3 35  1  0
  5 36  1  0
  8 37  1  0
 13 38  1  0
 15 39  1  0
 16 40  1  0
 21 41  1  0
 21 42  1  0
 25 43  1  0
 25 44  1  0
 27 45  1  1
 28 46  1  0
 28 47  1  0
 29 48  1  1
 30 49  1  0
M  END
$$$$
