@<TRIPOS>MOLECULE
*****
 31 34 0 0 0
SMALL
GASTEIGER

@<TRIPOS>ATOM
      1 F           5.1278   -1.5253    1.0915 F       1  UNL1       -0.2039
      2 C           4.2281   -0.7125    0.4802 C.ar    1  UNL1        0.1420
      3 C           4.7107    0.4594   -0.0648 C.ar    1  UNL1        0.0628
      4 N           3.8264    1.2691   -0.6720 N.ar    1  UNL1       -0.2598
      5 C           2.4975    0.9736   -0.7631 C.ar    1  UNL1        0.0370
      6 C           1.9826   -0.1679   -0.2398 C.ar    1  UNL1        0.0229
      7 C           0.5645   -0.5311   -0.2845 C.ar    1  UNL1        0.0948
      8 N           0.1295   -1.6874   -0.8452 N.ar    1  UNL1       -0.2274
      9 C          -1.1890   -1.7288   -0.6811 C.ar    1  UNL1        0.1413
     10 C          -2.1328   -2.6914   -1.0668 C.ar    1  UNL1        0.0179
     11 C          -3.4600   -2.5011   -0.7772 C.ar    1  UNL1        0.1465
     12 F          -4.4077   -3.4099   -1.1334 F       1  UNL1       -0.2038
     13 C          -3.9008   -1.3806   -0.1110 C.ar    1  UNL1        0.0926
     14 CL         -5.5709   -1.0657    0.2941 Cl      1  UNL1       -0.0791
     15 C          -2.9221   -0.4588    0.2478 C.ar    1  UNL1        0.0326
     16 N          -1.6104   -0.6495   -0.0399 N.ar    1  UNL1       -0.3012
     17 C          -0.4930    0.1320    0.2239 C.ar    1  UNL1        0.0542
     18 C          -0.6710    1.3834    0.9567 C.3     1  UNL1        0.0019
     19 C          -1.1336    2.5302    0.0081 C.3     1  UNL1       -0.0442
     20 C           0.0620    2.6246    0.9287 C.3     1  UNL1       -0.0442
     21 C           2.8849   -1.0279    0.3976 C.ar    1  UNL1       -0.0143
     22 H           5.7701    0.7202   -0.0059 H       1  UNL1        0.0859
     23 H           1.8534    1.6779   -1.2881 H       1  UNL1        0.0836
     24 H          -1.7951   -3.5692   -1.5876 H       1  UNL1        0.0683
     25 H          -3.2622    0.4115    0.7648 H       1  UNL1        0.0829
     26 H          -1.3672    1.2392    1.8521 H       1  UNL1        0.0364
     27 H          -0.9613    2.4097   -1.0677 H       1  UNL1        0.0272
     28 H          -2.0900    3.0005    0.2545 H       1  UNL1        0.0272
     29 H           1.0158    2.8845    0.5001 H       1  UNL1        0.0272
     30 H          -0.1929    3.3386    1.8024 H       1  UNL1        0.0272
     31 H           2.5069   -1.9474    0.8254 H       1  UNL1        0.0654
@<TRIPOS>BOND
     1     1     2    1
     2     2     3   ar
     3     3     4   ar
     4     4     5   ar
     5     5     6   ar
     6     6     7    1
     7     7     8   ar
     8     8     9   ar
     9     9    10   ar
    10    10    11   ar
    11    11    12    1
    12    11    13   ar
    13    13    14    1
    14    13    15   ar
    15    15    16   ar
    16    16    17   ar
    17    17    18    1
    18    18    19    1
    19    19    20    1
    20     6    21   ar
    21    21     2   ar
    22    17     7   ar
    23    20    18    1
    24    16     9   ar
    25     3    22    1
    26     5    23    1
    27    10    24    1
    28    15    25    1
    29    18    26    1
    30    19    27    1
    31    19    28    1
    32    20    29    1
    33    20    30    1
    34    21    31    1
