@<TRIPOS>MOLECULE
*****
 47 48 0 0 0
SMALL
GASTEIGER

@<TRIPOS>ATOM
      1 C          -1.1228   -3.4096   -0.1631 C.3     1  UNL1       -0.0586
      2 C          -1.7114   -2.4483    0.8798 C.3     1  UNL1       -0.0198
      3 C          -3.1754   -2.6375    0.8886 C.3     1  UNL1       -0.0586
      4 C          -1.2015   -1.1133    0.6533 C.ar    1  UNL1       -0.0236
      5 C          -0.0452   -0.7156    1.2963 C.ar    1  UNL1       -0.0531
      6 C           0.4709    0.5690    1.0973 C.ar    1  UNL1       -0.0423
      7 C           1.7075    0.9779    1.8049 C.3     1  UNL1        0.0023
      8 C           2.9494    0.5359    1.1905 C.ar    1  UNL1        0.0146
      9 C           3.6608   -0.5320    1.6917 C.ar    1  UNL1        0.0379
     10 N           4.8172   -0.9502    1.1174 N.ar    1  UNL1       -0.2227
     11 C           5.2940   -0.3336    0.0492 C.ar    1  UNL1        0.2142
     12 N           6.5011   -0.7976   -0.5216 N.pl3   1  UNL1       -0.3274
     13 N           4.6321    0.7070   -0.4664 N.ar    1  UNL1       -0.1999
     14 C           3.4648    1.1570    0.0839 C.ar    1  UNL1        0.1247
     15 N           2.8737    2.2712   -0.5624 N.pl3   1  UNL1       -0.3428
     16 C          -0.2009    1.4187    0.2498 C.ar    1  UNL1       -0.0531
     17 C          -1.3765    1.0443   -0.4173 C.ar    1  UNL1       -0.0236
     18 C          -1.9811    2.0328   -1.2790 C.3     1  UNL1       -0.0198
     19 C          -2.9896    2.9093   -0.5286 C.3     1  UNL1       -0.0586
     20 C          -2.6994    1.5145   -2.4843 C.3     1  UNL1       -0.0586
     21 C          -1.8406   -0.2315   -0.1856 C.ar    1  UNL1        0.0315
     22 N          -3.0038   -0.6686   -0.8180 N.pl3   1  UNL1       -0.3575
     23 H          -0.0358   -3.5474   -0.0045 H       1  UNL1        0.0235
     24 H          -1.5898   -4.3963    0.0624 H       1  UNL1        0.0235
     25 H          -1.4065   -3.1327   -1.1817 H       1  UNL1        0.0235
     26 H          -1.3061   -2.8467    1.8586 H       1  UNL1        0.0344
     27 H          -3.6448   -2.8389   -0.0912 H       1  UNL1        0.0235
     28 H          -3.4088   -3.5624    1.4997 H       1  UNL1        0.0235
     29 H          -3.6865   -1.8197    1.4573 H       1  UNL1        0.0235
     30 H           0.5197   -1.3419    1.9706 H       1  UNL1        0.0624
     31 H           1.5834    0.6255    2.8590 H       1  UNL1        0.0363
     32 H           1.6413    2.1032    1.8960 H       1  UNL1        0.0363
     33 H           3.3077   -1.0542    2.5517 H       1  UNL1        0.0834
     34 H           7.4171   -0.4313   -0.1944 H       1  UNL1        0.1452
     35 H           6.4933   -1.5110   -1.2760 H       1  UNL1        0.1452
     36 H           2.5995    2.1466   -1.5608 H       1  UNL1        0.1437
     37 H           2.7054    3.1821   -0.0998 H       1  UNL1        0.1437
     38 H           0.2091    2.4127    0.1133 H       1  UNL1        0.0624
     39 H          -1.2071    2.7573   -1.6605 H       1  UNL1        0.0344
     40 H          -3.7791    2.2399   -0.1644 H       1  UNL1        0.0235
     41 H          -2.5334    3.4161    0.3243 H       1  UNL1        0.0235
     42 H          -3.3733    3.6951   -1.2094 H       1  UNL1        0.0235
     43 H          -3.7151    1.1509   -2.2509 H       1  UNL1        0.0235
     44 H          -2.8472    2.3940   -3.1643 H       1  UNL1        0.0235
     45 H          -2.0949    0.7997   -3.0821 H       1  UNL1        0.0235
     46 H          -3.9815   -0.5014   -0.5213 H       1  UNL1        0.1423
     47 H          -2.8897   -1.2390   -1.7078 H       1  UNL1        0.1423
@<TRIPOS>BOND
     1     1     2    1
     2     2     3    1
     3     2     4    1
     4     4     5   ar
     5     5     6   ar
     6     6     7    1
     7     7     8    1
     8     8     9   ar
     9     9    10   ar
    10    10    11   ar
    11    11    12    1
    12    11    13   ar
    13    13    14   ar
    14    14    15    1
    15     6    16   ar
    16    16    17   ar
    17    17    18    1
    18    18    19    1
    19    18    20    1
    20    17    21   ar
    21    21    22    1
    22    21     4   ar
    23    14     8   ar
    24     1    23    1
    25     1    24    1
    26     1    25    1
    27     2    26    1
    28     3    27    1
    29     3    28    1
    30     3    29    1
    31     5    30    1
    32     7    31    1
    33     7    32    1
    34     9    33    1
    35    12    34    1
    36    12    35    1
    37    15    36    1
    38    15    37    1
    39    16    38    1
    40    18    39    1
    41    19    40    1
    42    19    41    1
    43    19    42    1
    44    20    43    1
    45    20    44    1
    46    20    45    1
    47    22    46    1
    48    22    47    1
