
     RDKit          3D

 47 48  0  0  0  0  0  0  0  0999 V2000
   -1.1228   -3.4096   -0.1631 C   0  0  0  0  0  0  0  0  0  0  0  0
   -1.7114   -2.4483    0.8798 C   0  0  0  0  0  0  0  0  0  0  0  0
   -3.1754   -2.6375    0.8886 C   0  0  0  0  0  0  0  0  0  0  0  0
   -1.2015   -1.1133    0.6533 C   0  0  0  0  0  0  0  0  0  0  0  0
   -0.0452   -0.7156    1.2963 C   0  0  0  0  0  0  0  0  0  0  0  0
    0.4709    0.5690    1.0973 C   0  0  0  0  0  0  0  0  0  0  0  0
    1.7075    0.9779    1.8049 C   0  0  0  0  0  0  0  0  0  0  0  0
    2.9494    0.5359    1.1905 C   0  0  0  0  0  0  0  0  0  0  0  0
    3.6608   -0.5320    1.6917 C   0  0  0  0  0  0  0  0  0  0  0  0
    4.8172   -0.9502    1.1174 N   0  0  0  0  0  0  0  0  0  0  0  0
    5.2940   -0.3336    0.0492 C   0  0  0  0  0  0  0  0  0  0  0  0
    6.5011   -0.7976   -0.5216 N   0  0  0  0  0  0  0  0  0  0  0  0
    4.6321    0.7070   -0.4664 N   0  0  0  0  0  0  0  0  0  0  0  0
    3.4648    1.1570    0.0839 C   0  0  0  0  0  0  0  0  0  0  0  0
    2.8737    2.2712   -0.5624 N   0  0  0  0  0  0  0  0  0  0  0  0
   -0.2009    1.4187    0.2498 C   0  0  0  0  0  0  0  0  0  0  0  0
   -1.3765    1.0443   -0.4173 C   0  0  0  0  0  0  0  0  0  0  0  0
   -1.9811    2.0328   -1.2790 C   0  0  0  0  0  0  0  0  0  0  0  0
   -2.9896    2.9093   -0.5286 C   0  0  0  0  0  0  0  0  0  0  0  0
   -2.6994    1.5145   -2.4843 C   0  0  0  0  0  0  0  0  0  0  0  0
   -1.8406   -0.2315   -0.1856 C   0  0  0  0  0  0  0  0  0  0  0  0
   -3.0038   -0.6686   -0.8180 N   0  0  0  0  0  0  0  0  0  0  0  0
   -0.0358   -3.5474   -0.0045 H   0  0  0  0  0  0  0  0  0  0  0  0
   -1.5898   -4.3963    0.0624 H   0  0  0  0  0  0  0  0  0  0  0  0
   -1.4065   -3.1327   -1.1817 H   0  0  0  0  0  0  0  0  0  0  0  0
   -1.3061   -2.8467    1.8586 H   0  0  0  0  0  0  0  0  0  0  0  0
   -3.6448   -2.8389   -0.0912 H   0  0  0  0  0  0  0  0  0  0  0  0
   -3.4088   -3.5624    1.4997 H   0  0  0  0  0  0  0  0  0  0  0  0
   -3.6865   -1.8197    1.4573 H   0  0  0  0  0  0  0  0  0  0  0  0
    0.5197   -1.3419    1.9706 H   0  0  0  0  0  0  0  0  0  0  0  0
    1.5834    0.6255    2.8590 H   0  0  0  0  0  0  0  0  0  0  0  0
    1.6413    2.1032    1.8960 H   0  0  0  0  0  0  0  0  0  0  0  0
    3.3077   -1.0542    2.5517 H   0  0  0  0  0  0  0  0  0  0  0  0
    7.4171   -0.4313   -0.1944 H   0  0  0  0  0  0  0  0  0  0  0  0
    6.4933   -1.5110   -1.2760 H   0  0  0  0  0  0  0  0  0  0  0  0
    2.5995    2.1466   -1.5608 H   0  0  0  0  0  0  0  0  0  0  0  0
    2.7054    3.1821   -0.0998 H   0  0  0  0  0  0  0  0  0  0  0  0
    0.2091    2.4127    0.1133 H   0  0  0  0  0  0  0  0  0  0  0  0
   -1.2071    2.7573   -1.6605 H   0  0  0  0  0  0  0  0  0  0  0  0
   -3.7791    2.2399   -0.1644 H   0  0  0  0  0  0  0  0  0  0  0  0
   -2.5334    3.4161    0.3243 H   0  0  0  0  0  0  0  0  0  0  0  0
   -3.3733    3.6951   -1.2094 H   0  0  0  0  0  0  0  0  0  0  0  0
   -3.7151    1.1509   -2.2509 H   0  0  0  0  0  0  0  0  0  0  0  0
   -2.8472    2.3940   -3.1643 H   0  0  0  0  0  0  0  0  0  0  0  0
   -2.0949    0.7997   -3.0821 H   0  0  0  0  0  0  0  0  0  0  0  0
   -3.9815   -0.5014   -0.5213 H   0  0  0  0  0  0  0  0  0  0  0  0
   -2.8897   -1.2390   -1.7078 H   0  0  0  0  0  0  0  0  0  0  0  0
  1  2  1  0
  2  3  1  0
  2  4  1  0
  4  5  2  0
  5  6  1  0
  6  7  1  0
  7  8  1  0
  8  9  2  0
  9 10  1  0
 10 11  2  0
 11 12  1  0
 11 13  1  0
 13 14  2  0
 14 15  1  0
  6 16  2  0
 16 17  1  0
 17 18  1  0
 18 19  1  0
 18 20  1  0
 17 21  2  0
 21 22  1  0
 21  4  1  0
 14  8  1  0
  1 23  1  0
  1 24  1  0
  1 25  1  0
  2 26  1  0
  3 27  1  0
  3 28  1  0
  3 29  1  0
  5 30  1  0
  7 31  1  0
  7 32  1  0
  9 33  1  0
 12 34  1  0
 12 35  1  0
 15 36  1  0
 15 37  1  0
 16 38  1  0
 18 39  1  0
 19 40  1  0
 19 41  1  0
 19 42  1  0
 20 43  1  0
 20 44  1  0
 20 45  1  0
 22 46  1  0
 22 47  1  0
M  END
$$$$
