@<TRIPOS>MOLECULE
*****
 32 34 0 0 0
SMALL
GASTEIGER

@<TRIPOS>ATOM
      1 C           2.9872    0.0204   -1.2111 C.3     1  UNL1        0.0492
      2 N           3.7988   -0.1633   -0.0296 N.ar    1  UNL1       -0.3325
      3 C           4.3700    0.7278    0.7980 C.ar    1  UNL1        0.0244
      4 C           5.0656    0.0586    1.8111 C.ar    1  UNL1        0.0454
      5 N           4.8847   -1.2503    1.5513 N.ar    1  UNL1       -0.2441
      6 C           4.1237   -1.3761    0.4456 C.ar    1  UNL1        0.0962
      7 C           1.5416    0.0917   -0.8848 C.ar    1  UNL1       -0.0277
      8 C           0.7472   -1.0347   -0.8617 C.ar    1  UNL1       -0.0563
      9 C          -0.6135   -0.9913   -0.5600 C.ar    1  UNL1       -0.0537
     10 C          -1.2227    0.2344   -0.2649 C.ar    1  UNL1       -0.0179
     11 C          -0.4499    1.3683   -0.2820 C.ar    1  UNL1       -0.0537
     12 C           0.9025    1.2777   -0.5879 C.ar    1  UNL1       -0.0563
     13 C          -2.6490    0.2145    0.0351 C.ar    1  UNL1       -0.0179
     14 C          -3.3698   -0.7553   -0.6313 C.ar    1  UNL1       -0.0540
     15 C          -4.7451   -0.9141   -0.4585 C.ar    1  UNL1       -0.0612
     16 C          -5.4166   -0.0766    0.4073 C.ar    1  UNL1       -0.0617
     17 C          -4.7012    0.9090    1.0887 C.ar    1  UNL1       -0.0612
     18 C          -3.3224    1.0476    0.8975 C.ar    1  UNL1       -0.0540
     19 H           3.1220   -0.8534   -1.9122 H       1  UNL1        0.0541
     20 H           3.3228    0.8987   -1.8106 H       1  UNL1        0.0541
     21 H           4.2932    1.7999    0.6825 H       1  UNL1        0.0825
     22 H           5.6344    0.4788    2.6364 H       1  UNL1        0.0845
     23 H           3.8260   -2.3413    0.0155 H       1  UNL1        0.1029
     24 H           1.1764   -1.9976   -1.0819 H       1  UNL1        0.0621
     25 H          -1.1558   -1.9273   -0.5639 H       1  UNL1        0.0624
     26 H          -0.9318    2.3121   -0.0511 H       1  UNL1        0.0624
     27 H           1.4602    2.1981   -0.5866 H       1  UNL1        0.0621
     28 H          -2.9708   -1.4866   -1.3476 H       1  UNL1        0.0624
     29 H          -5.3270   -1.6838   -0.9859 H       1  UNL1        0.0618
     30 H          -6.4820   -0.1591    0.5752 H       1  UNL1        0.0618
     31 H          -5.1750    1.5895    1.7766 H       1  UNL1        0.0618
     32 H          -2.7237    1.7835    1.3904 H       1  UNL1        0.0624
@<TRIPOS>BOND
     1     1     2    1
     2     2     3   ar
     3     3     4   ar
     4     4     5   ar
     5     5     6   ar
     6     1     7    1
     7     7     8   ar
     8     8     9   ar
     9     9    10   ar
    10    10    11   ar
    11    11    12   ar
    12    10    13    1
    13    13    14   ar
    14    14    15   ar
    15    15    16   ar
    16    16    17   ar
    17    17    18   ar
    18     6     2   ar
    19    12     7   ar
    20    18    13   ar
    21     1    19    1
    22     1    20    1
    23     3    21    1
    24     4    22    1
    25     6    23    1
    26     8    24    1
    27     9    25    1
    28    11    26    1
    29    12    27    1
    30    14    28    1
    31    15    29    1
    32    16    30    1
    33    17    31    1
    34    18    32    1
