@<TRIPOS>MOLECULE
*****
 52 54 0 0 0
SMALL
GASTEIGER

@<TRIPOS>ATOM
      1 C          -2.8943   -1.2199   -0.5260 C.3     1  UNL1       -0.0394
      2 C          -1.7536   -2.0718   -0.2018 C.ar    1  UNL1       -0.0456
      3 C          -1.5405   -3.2098   -0.9838 C.ar    1  UNL1       -0.0558
      4 C          -0.4905   -4.0350   -0.7403 C.ar    1  UNL1       -0.0262
      5 C           0.3835   -3.7482    0.2962 C.ar    1  UNL1        0.1237
      6 F           1.4170   -4.5656    0.5323 F       1  UNL1       -0.2055
      7 C           0.1417   -2.6013    1.0602 C.ar    1  UNL1       -0.0215
      8 C          -0.8972   -1.7632    0.8378 C.ar    1  UNL1       -0.0246
      9 C          -1.1916   -0.5910    1.6462 C.3     1  UNL1        0.0379
     10 N          -0.9326    0.6934    0.9408 N.pl3   1  UNL1       -0.3209
     11 C          -1.6035    1.8204    1.4453 C.ar    1  UNL1        0.0317
     12 C          -2.2815    1.7171    2.6816 C.ar    1  UNL1       -0.0393
     13 C          -3.0163    2.7675    3.1679 C.ar    1  UNL1       -0.0412
     14 C          -3.1438    3.9653    2.5070 C.ar    1  UNL1        0.0701
     15 C          -3.9469    5.0425    3.0538 C.1     1  UNL1        0.1006
     16 N          -4.5790    5.8863    3.5043 N.1     1  UNL1       -0.1908
     17 C          -2.4975    4.0853    1.3125 C.ar    1  UNL1        0.0600
     18 CL         -2.6221    5.5947    0.4026 Cl      1  UNL1       -0.0822
     19 C          -1.7477    3.0295    0.8040 C.ar    1  UNL1       -0.0210
     20 C          -0.0055    0.6060   -0.0659 C.3     1  UNL1        0.0410
     21 C           0.3572    1.6514   -1.0399 C.3     1  UNL1       -0.0170
     22 C           1.5889    0.9319   -1.6862 C.3     1  UNL1        0.0165
     23 N           2.0800    0.0202   -0.6950 N.am    1  UNL1       -0.2975
     24 C           2.9617   -1.0779   -0.7695 C.2     1  UNL1        0.2440
     25 O           3.2612   -1.7505    0.2608 O.2     1  UNL1       -0.2728
     26 C           3.6154   -1.5559   -2.0058 C.3     1  UNL1        0.1283
     27 C           5.1133   -1.4995   -1.7828 C.3     1  UNL1       -0.0303
     28 O           3.3102   -0.8412   -3.1241 O.3     1  UNL1       -0.3828
     29 C           1.4549    0.4557    0.5287 C.3     1  UNL1        0.0333
     30 H          -2.5928   -0.6074   -1.4166 H       1  UNL1        0.0278
     31 H          -3.7447   -1.8479   -0.9258 H       1  UNL1        0.0278
     32 H          -3.3195   -0.6221    0.2732 H       1  UNL1        0.0278
     33 H          -2.2289   -3.4247   -1.7880 H       1  UNL1        0.0621
     34 H          -0.3327   -4.9262   -1.3595 H       1  UNL1        0.0646
     35 H           0.8668   -2.4361    1.8588 H       1  UNL1        0.0649
     36 H          -0.5699   -0.6564    2.5698 H       1  UNL1        0.0513
     37 H          -2.2492   -0.5376    1.9708 H       1  UNL1        0.0513
     38 H          -2.2445    0.8428    3.2926 H       1  UNL1        0.0636
     39 H          -3.5424    2.6805    4.1304 H       1  UNL1        0.0631
     40 H          -1.2980    3.1997   -0.1510 H       1  UNL1        0.0651
     41 H          -0.0874   -0.3716   -0.6452 H       1  UNL1        0.0516
     42 H           0.7523    2.6016   -0.6315 H       1  UNL1        0.0299
     43 H          -0.3836    1.8087   -1.8115 H       1  UNL1        0.0299
     44 H           1.2909    0.4767   -2.6335 H       1  UNL1        0.0465
     45 H           2.3364    1.7228   -1.8501 H       1  UNL1        0.0465
     46 H           3.3429   -2.6390   -2.1116 H       1  UNL1        0.0687
     47 H           5.4515   -2.3305   -1.1206 H       1  UNL1        0.0259
     48 H           5.3232   -0.5116   -1.2912 H       1  UNL1        0.0259
     49 H           5.6144   -1.4899   -2.7553 H       1  UNL1        0.0259
     50 H           3.7697    0.0323   -3.1096 H       1  UNL1        0.2104
     51 H           1.4826   -0.1931    1.3726 H       1  UNL1        0.0483
     52 H           1.8221    1.4926    0.7296 H       1  UNL1        0.0483
@<TRIPOS>BOND
     1     1     2    1
     2     2     3   ar
     3     3     4   ar
     4     4     5   ar
     5     5     6    1
     6     5     7   ar
     7     7     8   ar
     8     8     9    1
     9     9    10    1
    10    10    11    1
    11    11    12   ar
    12    12    13   ar
    13    13    14   ar
    14    14    15    1
    15    15    16    3
    16    14    17   ar
    17    17    18    1
    18    17    19   ar
    19    10    20    1
    20    20    21    1
    21    21    22    1
    22    22    23    1
    23    23    24   am
    24    24    25    2
    25    24    26    1
    26    26    27    1
    27    26    28    1
    28    23    29    1
    29     8     2   ar
    30    19    11   ar
    31    29    20    1
    32     1    30    1
    33     1    31    1
    34     1    32    1
    35     3    33    1
    36     4    34    1
    37     7    35    1
    38     9    36    1
    39     9    37    1
    40    12    38    1
    41    13    39    1
    42    19    40    1
    43    20    41    1
    44    21    42    1
    45    21    43    1
    46    22    44    1
    47    22    45    1
    48    26    46    1
    49    27    47    1
    50    27    48    1
    51    27    49    1
    52    28    50    1
    53    29    51    1
    54    29    52    1
