@<TRIPOS>MOLECULE
*****
 49 52 0 0 0
SMALL
GASTEIGER

@<TRIPOS>ATOM
      1 O          -6.1617    2.7137   -2.1266 O.2     1  UNL1       -0.2434
      2 C          -5.2190    2.5417   -1.3343 C.2     1  UNL1        0.3553
      3 OXT        -4.6636    3.6259   -0.6920 O.3     1  UNL1       -0.4761
      4 CA         -4.7017    1.2192   -1.0815 C.ar    1  UNL1        0.1480
      5 C          -5.2749    0.1497   -1.7370 C.ar    1  UNL1       -0.0292
      6 C          -4.7915   -1.0980   -1.5012 C.ar    1  UNL1       -0.0575
      7 C          -3.7383   -1.2486   -0.6088 C.ar    1  UNL1       -0.0360
      8 C          -3.1623   -0.2085    0.0431 C.ar    1  UNL1        0.0682
      9 C          -2.0292   -0.3104    0.9595 C.2     1  UNL1       -0.0181
     10 C          -0.7799   -0.6686    0.7884 C.2     1  UNL1       -0.0315
     11 C          -0.1332   -1.0880   -0.4375 C.ar    1  UNL1        0.0215
     12 C          -0.4982   -2.0529   -1.3035 C.ar    1  UNL1       -0.0325
     13 C           0.1931   -2.3381   -2.4758 C.ar    1  UNL1        0.0418
     14 CL         -0.3311   -3.6036   -3.5628 Cl      1  UNL1       -0.0835
     15 C           1.2970   -1.6159   -2.7781 C.ar    1  UNL1       -0.0399
     16 C           1.7221   -0.6016   -1.9131 C.ar    1  UNL1       -0.0179
     17 C           1.0292   -0.3291   -0.7562 C.ar    1  UNL1        0.1284
     18 O           1.4419    0.6536    0.0784 O.3     1  UNL1       -0.4867
     19 C           2.4521    1.5591    0.1499 C.3     1  UNL1        0.1173
     20 C           3.8081    1.0205    0.2380 C.ar    1  UNL1        0.0250
     21 C           4.6960    1.1035   -0.8025 C.ar    1  UNL1       -0.0499
     22 C           5.9784    0.6125   -0.6788 C.ar    1  UNL1       -0.0259
     23 C           6.4006    0.0263    0.4930 C.ar    1  UNL1        0.1261
     24 F           7.6843   -0.4517    0.5805 F       1  UNL1       -0.2054
     25 C           5.5291   -0.0720    1.5594 C.ar    1  UNL1        0.0092
     26 C           4.2642    0.4248    1.4038 C.ar    1  UNL1        0.1325
     27 F           3.3851    0.3337    2.4572 F       1  UNL1       -0.2050
     28 C          -0.0281   -0.5964    2.1207 C.3     1  UNL1       -0.0264
     29 C          -1.1770   -0.7591    3.0925 C.3     1  UNL1       -0.0450
     30 C          -2.2339    0.0580    2.4332 C.3     1  UNL1       -0.0251
     31 N          -3.6805    1.0247   -0.2242 N.ar    1  UNL1       -0.2404
     32 HXT        -4.6698    4.5678   -1.0929 H       1  UNL1        0.2955
     33 H          -6.1079    0.3051   -2.4377 H       1  UNL1        0.0641
     34 H          -5.1960   -1.9634   -1.9804 H       1  UNL1        0.0619
     35 H          -3.4061   -2.2572   -0.4265 H       1  UNL1        0.0639
     36 H          -1.3378   -2.6771   -1.1164 H       1  UNL1        0.0639
     37 H           1.8653   -1.8020   -3.6772 H       1  UNL1        0.0633
     38 H           2.6102   -0.0491   -2.2152 H       1  UNL1        0.0655
     39 H           2.4300    2.3301   -0.6783 H       1  UNL1        0.0749
     40 H           2.3025    2.1863    1.0752 H       1  UNL1        0.0749
     41 H           4.4261    1.5555   -1.7563 H       1  UNL1        0.0623
     42 H           6.6437    0.7034   -1.5368 H       1  UNL1        0.0646
     43 H           5.8741   -0.5376    2.4811 H       1  UNL1        0.0675
     44 H           0.5120    0.3385    2.2276 H       1  UNL1        0.0314
     45 H           0.5918   -1.4987    2.1723 H       1  UNL1        0.0314
     46 H          -0.9515   -0.3597    4.0955 H       1  UNL1        0.0272
     47 H          -1.5184   -1.8052    3.1619 H       1  UNL1        0.0272
     48 H          -3.2542   -0.2049    2.7419 H       1  UNL1        0.0314
     49 H          -2.0910    1.1441    2.5257 H       1  UNL1        0.0314
@<TRIPOS>BOND
     1     1     2    2
     2     2     3    1
     3     2     4    1
     4     4     5   ar
     5     5     6   ar
     6     6     7   ar
     7     7     8   ar
     8     8     9    1
     9     9    10    2
    10    10    11    1
    11    11    12   ar
    12    12    13   ar
    13    13    14    1
    14    13    15   ar
    15    15    16   ar
    16    16    17   ar
    17    17    18    1
    18    18    19    1
    19    19    20    1
    20    20    21   ar
    21    21    22   ar
    22    22    23   ar
    23    23    24    1
    24    23    25   ar
    25    25    26   ar
    26    26    27    1
    27    10    28    1
    28    28    29    1
    29    29    30    1
    30     8    31   ar
    31    31     4   ar
    32    30     9    1
    33    17    11   ar
    34    26    20   ar
    35     3    32    1
    36     5    33    1
    37     6    34    1
    38     7    35    1
    39    12    36    1
    40    15    37    1
    41    16    38    1
    42    19    39    1
    43    19    40    1
    44    21    41    1
    45    22    42    1
    46    25    43    1
    47    28    44    1
    48    28    45    1
    49    29    46    1
    50    29    47    1
    51    30    48    1
    52    30    49    1
