
     RDKit          3D

 49 52  0  0  0  0  0  0  0  0999 V2000
   -6.1617    2.7137   -2.1266 O   0  0  0  0  0  0  0  0  0  0  0  0
   -5.2190    2.5417   -1.3343 C   0  0  0  0  0  0  0  0  0  0  0  0
   -4.6636    3.6259   -0.6920 O   0  0  0  0  0  0  0  0  0  0  0  0
   -4.7017    1.2192   -1.0815 C   0  0  0  0  0  0  0  0  0  0  0  0
   -5.2749    0.1497   -1.7370 C   0  0  0  0  0  0  0  0  0  0  0  0
   -4.7915   -1.0980   -1.5012 C   0  0  0  0  0  0  0  0  0  0  0  0
   -3.7383   -1.2486   -0.6088 C   0  0  0  0  0  0  0  0  0  0  0  0
   -3.1623   -0.2085    0.0431 C   0  0  0  0  0  0  0  0  0  0  0  0
   -2.0292   -0.3104    0.9595 C   0  0  0  0  0  0  0  0  0  0  0  0
   -0.7799   -0.6686    0.7884 C   0  0  0  0  0  0  0  0  0  0  0  0
   -0.1332   -1.0880   -0.4375 C   0  0  0  0  0  0  0  0  0  0  0  0
   -0.4982   -2.0529   -1.3035 C   0  0  0  0  0  0  0  0  0  0  0  0
    0.1931   -2.3381   -2.4758 C   0  0  0  0  0  0  0  0  0  0  0  0
   -0.3311   -3.6036   -3.5628 Cl  0  0  0  0  0  0  0  0  0  0  0  0
    1.2970   -1.6159   -2.7781 C   0  0  0  0  0  0  0  0  0  0  0  0
    1.7221   -0.6016   -1.9131 C   0  0  0  0  0  0  0  0  0  0  0  0
    1.0292   -0.3291   -0.7562 C   0  0  0  0  0  0  0  0  0  0  0  0
    1.4419    0.6536    0.0784 O   0  0  0  0  0  0  0  0  0  0  0  0
    2.4521    1.5591    0.1499 C   0  0  0  0  0  0  0  0  0  0  0  0
    3.8081    1.0205    0.2380 C   0  0  0  0  0  0  0  0  0  0  0  0
    4.6960    1.1035   -0.8025 C   0  0  0  0  0  0  0  0  0  0  0  0
    5.9784    0.6125   -0.6788 C   0  0  0  0  0  0  0  0  0  0  0  0
    6.4006    0.0263    0.4930 C   0  0  0  0  0  0  0  0  0  0  0  0
    7.6843   -0.4517    0.5805 F   0  0  0  0  0  0  0  0  0  0  0  0
    5.5291   -0.0720    1.5594 C   0  0  0  0  0  0  0  0  0  0  0  0
    4.2642    0.4248    1.4038 C   0  0  0  0  0  0  0  0  0  0  0  0
    3.3851    0.3337    2.4572 F   0  0  0  0  0  0  0  0  0  0  0  0
   -0.0281   -0.5964    2.1207 C   0  0  0  0  0  0  0  0  0  0  0  0
   -1.1770   -0.7591    3.0925 C   0  0  0  0  0  0  0  0  0  0  0  0
   -2.2339    0.0580    2.4332 C   0  0  0  0  0  0  0  0  0  0  0  0
   -3.6805    1.0247   -0.2242 N   0  0  0  0  0  0  0  0  0  0  0  0
   -4.6698    4.5678   -1.0929 H   0  0  0  0  0  0  0  0  0  0  0  0
   -6.1079    0.3051   -2.4377 H   0  0  0  0  0  0  0  0  0  0  0  0
   -5.1960   -1.9634   -1.9804 H   0  0  0  0  0  0  0  0  0  0  0  0
   -3.4061   -2.2572   -0.4265 H   0  0  0  0  0  0  0  0  0  0  0  0
   -1.3378   -2.6771   -1.1164 H   0  0  0  0  0  0  0  0  0  0  0  0
    1.8653   -1.8020   -3.6772 H   0  0  0  0  0  0  0  0  0  0  0  0
    2.6102   -0.0491   -2.2152 H   0  0  0  0  0  0  0  0  0  0  0  0
    2.4300    2.3301   -0.6783 H   0  0  0  0  0  0  0  0  0  0  0  0
    2.3025    2.1863    1.0752 H   0  0  0  0  0  0  0  0  0  0  0  0
    4.4261    1.5555   -1.7563 H   0  0  0  0  0  0  0  0  0  0  0  0
    6.6437    0.7034   -1.5368 H   0  0  0  0  0  0  0  0  0  0  0  0
    5.8741   -0.5376    2.4811 H   0  0  0  0  0  0  0  0  0  0  0  0
    0.5120    0.3385    2.2276 H   0  0  0  0  0  0  0  0  0  0  0  0
    0.5918   -1.4987    2.1723 H   0  0  0  0  0  0  0  0  0  0  0  0
   -0.9515   -0.3597    4.0955 H   0  0  0  0  0  0  0  0  0  0  0  0
   -1.5184   -1.8052    3.1619 H   0  0  0  0  0  0  0  0  0  0  0  0
   -3.2542   -0.2049    2.7419 H   0  0  0  0  0  0  0  0  0  0  0  0
   -2.0910    1.1441    2.5257 H   0  0  0  0  0  0  0  0  0  0  0  0
  1  2  2  0
  2  3  1  0
  2  4  1  0
  4  5  2  0
  5  6  1  0
  6  7  2  0
  7  8  1  0
  8  9  1  0
  9 10  2  0
 10 11  1  0
 11 12  2  0
 12 13  1  0
 13 14  1  0
 13 15  2  0
 15 16  1  0
 16 17  2  0
 17 18  1  0
 18 19  1  0
 19 20  1  0
 20 21  2  0
 21 22  1  0
 22 23  2  0
 23 24  1  0
 23 25  1  0
 25 26  2  0
 26 27  1  0
 10 28  1  0
 28 29  1  0
 29 30  1  0
  8 31  2  0
 31  4  1  0
 30  9  1  0
 17 11  1  0
 26 20  1  0
  3 32  1  0
  5 33  1  0
  6 34  1  0
  7 35  1  0
 12 36  1  0
 15 37  1  0
 16 38  1  0
 19 39  1  0
 19 40  1  0
 21 41  1  0
 22 42  1  0
 25 43  1  0
 28 44  1  0
 28 45  1  0
 29 46  1  0
 29 47  1  0
 30 48  1  0
 30 49  1  0
M  END
$$$$
