@<TRIPOS>MOLECULE
*****
 18 19 0 0 0
SMALL
GASTEIGER

@<TRIPOS>ATOM
      1 O          -1.4255   -2.5676   -0.0739 O.3     1  UNL1       -0.5046
      2 C          -1.2454   -1.1881   -0.0670 C.ar    1  UNL1        0.1427
      3 C          -2.3434   -0.3522   -0.0926 C.ar    1  UNL1       -0.0166
      4 C          -2.2102    1.0284   -0.0869 C.ar    1  UNL1       -0.0392
      5 C          -0.9232    1.5246   -0.0543 C.ar    1  UNL1        0.0504
      6 CL         -0.7326    3.2654   -0.0465 Cl      1  UNL1       -0.0829
      7 C           0.1827    0.6922   -0.0285 C.ar    1  UNL1        0.0223
      8 C           1.4694    1.1960    0.0041 C.ar    1  UNL1       -0.0496
      9 C           2.5625    0.3485    0.0296 C.ar    1  UNL1       -0.0430
     10 C           2.3851   -1.0217    0.0228 C.ar    1  UNL1        0.0284
     11 N           1.1207   -1.4785   -0.0092 N.ar    1  UNL1       -0.2513
     12 C           0.0387   -0.6786   -0.0344 C.ar    1  UNL1        0.1136
     13 H          -0.8249   -3.1003    0.5555 H       1  UNL1        0.2922
     14 H          -3.3576   -0.7270   -0.1183 H       1  UNL1        0.0655
     15 H          -3.0787    1.6723   -0.1071 H       1  UNL1        0.0633
     16 H           1.5609    2.2766    0.0083 H       1  UNL1        0.0625
     17 H           3.5663    0.7788    0.0551 H       1  UNL1        0.0633
     18 H           3.2552   -1.6688    0.0431 H       1  UNL1        0.0830
@<TRIPOS>BOND
     1     1     2    1
     2     2     3   ar
     3     3     4   ar
     4     4     5   ar
     5     5     6    1
     6     5     7   ar
     7     7     8   ar
     8     8     9   ar
     9     9    10   ar
    10    10    11   ar
    11    11    12   ar
    12    12     2   ar
    13    12     7   ar
    14     1    13    1
    15     3    14    1
    16     4    15    1
    17     8    16    1
    18     9    17    1
    19    10    18    1
