@<TRIPOS>MOLECULE
*****
 54 57 0 0 0
SMALL
GASTEIGER

@<TRIPOS>ATOM
      1 C          -1.4892   -1.1048   -2.9054 C.3     1  UNL1        0.0071
      2 N          -1.6731   -0.4090   -1.6364 N.pl3   1  UNL1       -0.2880
      3 C          -3.0009   -0.2891   -1.1510 C.ar    1  UNL1        0.0369
      4 C          -3.3738    0.2668    0.0470 C.ar    1  UNL1       -0.0126
      5 C          -4.6784    0.3843    0.4729 C.ar    1  UNL1        0.0947
      6 N          -5.2826    0.8685    1.5596 N.ar    1  UNL1       -0.1712
      7 N          -6.5935    0.7350    1.4732 N.ar    1  UNL1       -0.2705
      8 C          -7.6631    1.1063    2.3941 C.3     1  UNL1        0.0305
      9 C          -6.9208    0.1388    0.2891 C.ar    1  UNL1        0.0436
     10 C          -8.2416   -0.2165   -0.2583 C.3     1  UNL1       -0.0221
     11 C          -5.6991   -0.0726   -0.3227 C.ar    1  UNL1        0.0228
     12 C          -5.3917   -0.6426   -1.5400 C.ar    1  UNL1       -0.0491
     13 C          -4.0667   -0.7289   -1.9049 C.ar    1  UNL1       -0.0396
     14 C          -0.4962    0.0594   -1.0498 C.ar    1  UNL1        0.1303
     15 C          -0.3488    1.2802   -0.4496 C.ar    1  UNL1       -0.0031
     16 C           0.8494    1.6448    0.1165 C.ar    1  UNL1        0.0345
     17 N           1.8490    0.7659    0.0554 N.ar    1  UNL1       -0.2225
     18 C           1.7667   -0.4307   -0.5117 C.ar    1  UNL1        0.2212
     19 N           2.8141   -1.3845   -0.5947 N.pl3   1  UNL1       -0.2835
     20 C           4.1599   -1.2353   -0.1752 C.ar    1  UNL1        0.0354
     21 C           5.0490   -2.3125   -0.1701 C.ar    1  UNL1       -0.0401
     22 C           6.3579   -2.1732    0.2201 C.ar    1  UNL1       -0.0552
     23 C           6.8797   -0.9518    0.6341 C.ar    1  UNL1       -0.0240
     24 C           8.2801   -0.8327    1.0465 C.3     1  UNL1       -0.0379
     25 C           6.0185    0.1488    0.6409 C.ar    1  UNL1        0.1096
     26 C           4.7230   -0.0502    0.2416 C.ar    1  UNL1       -0.0138
     27 S           6.6657    1.6832    1.1474 S.O2    1  UNL1        0.0563
     28 N           5.5041    2.9520    1.1069 N.3     1  UNL1       -0.2035
     29 O           7.1741    1.5654    2.5616 O.2     1  UNL1       -0.1532
     30 O           7.8724    2.0495    0.2900 O.2     1  UNL1       -0.1532
     31 N           0.5894   -0.7213   -1.0382 N.ar    1  UNL1       -0.1990
     32 H          -1.9200   -0.5488   -3.7681 H       1  UNL1        0.0432
     33 H          -1.9887   -2.1146   -2.8269 H       1  UNL1        0.0432
     34 H          -0.4231   -1.3202   -3.1050 H       1  UNL1        0.0432
     35 H          -2.6411    0.6325    0.7232 H       1  UNL1        0.0658
     36 H          -8.3673    0.2587    2.4795 H       1  UNL1        0.0473
     37 H          -7.2563    1.4400    3.3726 H       1  UNL1        0.0473
     38 H          -8.2243    1.9694    1.9869 H       1  UNL1        0.0473
     39 H          -8.1379   -0.3655   -1.3549 H       1  UNL1        0.0293
     40 H          -9.0185    0.5644   -0.0759 H       1  UNL1        0.0293
     41 H          -8.6022   -1.1777    0.2066 H       1  UNL1        0.0293
     42 H          -6.1909   -0.9995   -2.1612 H       1  UNL1        0.0625
     43 H          -3.8911   -1.1888   -2.8801 H       1  UNL1        0.0636
     44 H          -1.1480    2.0016   -0.4083 H       1  UNL1        0.0667
     45 H           1.0442    2.5917    0.6086 H       1  UNL1        0.0832
     46 H           2.5875   -2.3334   -1.0204 H       1  UNL1        0.1550
     47 H           4.6647   -3.2904   -0.4928 H       1  UNL1        0.0636
     48 H           6.9633   -3.0840    0.1846 H       1  UNL1        0.0621
     49 H           8.3665   -0.3798    2.0617 H       1  UNL1        0.0278
     50 H           8.9062   -0.3077    0.2872 H       1  UNL1        0.0278
     51 H           8.7109   -1.8581    1.1475 H       1  UNL1        0.0278
     52 H           4.1419    0.8441    0.2797 H       1  UNL1        0.0656
     53 H           4.7809    2.7539    0.3923 H       1  UNL1        0.1442
     54 H           6.0101    3.8189    0.7499 H       1  UNL1        0.1442
@<TRIPOS>BOND
     1     1     2    1
     2     2     3    1
     3     3     4   ar
     4     4     5   ar
     5     5     6   ar
     6     6     7   ar
     7     7     8    1
     8     7     9   ar
     9     9    10    1
    10     9    11   ar
    11    11    12   ar
    12    12    13   ar
    13     2    14    1
    14    14    15   ar
    15    15    16   ar
    16    16    17   ar
    17    17    18   ar
    18    18    19    1
    19    19    20    1
    20    20    21   ar
    21    21    22   ar
    22    22    23   ar
    23    23    24    1
    24    23    25   ar
    25    25    26   ar
    26    25    27    1
    27    27    28    1
    28    27    29    2
    29    27    30    2
    30    18    31   ar
    31    13     3   ar
    32    31    14   ar
    33    11     5   ar
    34    26    20   ar
    35     1    32    1
    36     1    33    1
    37     1    34    1
    38     4    35    1
    39     8    36    1
    40     8    37    1
    41     8    38    1
    42    10    39    1
    43    10    40    1
    44    10    41    1
    45    12    42    1
    46    13    43    1
    47    15    44    1
    48    16    45    1
    49    19    46    1
    50    21    47    1
    51    22    48    1
    52    24    49    1
    53    24    50    1
    54    24    51    1
    55    26    52    1
    56    28    53    1
    57    28    54    1
