
     RDKit          3D

 57 61  0  0  0  0  0  0  0  0999 V2000
    1.9765   -1.2487   -1.3847 C   0  0  0  0  0  0  0  0  0  0  0  0
    1.8579   -0.2033   -0.3068 C   0  0  2  0  0  0  0  0  0  0  0  0
    1.2432   -0.6999    0.9668 C   0  0  0  0  0  0  0  0  0  0  0  0
   -0.1523   -1.2323    0.6048 C   0  0  0  0  0  0  0  0  0  0  0  0
   -1.0503   -0.1367    0.1425 C   0  0  1  0  0  0  0  0  0  0  0  0
   -0.4336    0.4592   -1.1387 C   0  0  1  0  0  0  0  0  0  0  0  0
   -1.2308    1.6390   -1.6061 C   0  0  0  0  0  0  0  0  0  0  0  0
   -2.6867    1.4798   -1.4102 C   0  0  0  0  0  0  0  0  0  0  0  0
   -3.2289    0.5064   -0.7324 C   0  0  0  0  0  0  0  0  0  0  0  0
   -4.7111    0.4512   -0.6034 C   0  0  0  0  0  0  0  0  0  0  0  0
   -5.1349    0.4996    0.8589 C   0  0  1  0  0  0  0  0  0  0  0  0
   -6.0064   -0.5227    1.1422 O   0  0  0  0  0  0  0  0  0  0  0  0
   -3.8587    0.3890    1.6848 C   0  0  0  0  0  0  0  0  0  0  0  0
   -3.0965   -0.8299    1.2745 C   0  0  0  0  0  0  0  0  0  0  0  0
   -2.4496   -0.5682   -0.0698 C   0  0  2  0  0  0  0  0  0  0  0  0
   -2.5759   -1.7964   -0.9447 C   0  0  0  0  0  0  0  0  0  0  0  0
    0.8925    0.9330   -0.7039 C   0  0  2  0  0  0  0  0  0  0  0  0
    1.7069    1.7054   -1.6362 C   0  0  0  0  0  0  0  0  0  0  0  0
    3.0377    1.6133   -0.9915 C   0  0  0  0  0  0  0  0  0  0  0  0
    3.1134    0.5118   -0.2332 C   0  0  0  0  0  0  0  0  0  0  0  0
    4.3311    0.2092    0.4985 C   0  0  0  0  0  0  0  0  0  0  0  0
    4.5562   -0.9731    1.1394 C   0  0  0  0  0  0  0  0  0  0  0  0
    5.7150   -1.2367    1.8747 C   0  0  0  0  0  0  0  0  0  0  0  0
    6.6819   -0.2711    1.9643 C   0  0  0  0  0  0  0  0  0  0  0  0
    6.4544    0.9168    1.3180 C   0  0  0  0  0  0  0  0  0  0  0  0
    5.3356    1.1332    0.6258 N   0  0  0  0  0  0  0  0  0  0  0  0
    1.7581   -2.2744   -1.0483 H   0  0  0  0  0  0  0  0  0  0  0  0
    3.0317   -1.2945   -1.7975 H   0  0  0  0  0  0  0  0  0  0  0  0
    1.3620   -1.0462   -2.2834 H   0  0  0  0  0  0  0  0  0  0  0  0
    1.0448    0.2095    1.5900 H   0  0  0  0  0  0  0  0  0  0  0  0
    1.7676   -1.4069    1.5672 H   0  0  0  0  0  0  0  0  0  0  0  0
   -0.0228   -2.0448   -0.1249 H   0  0  0  0  0  0  0  0  0  0  0  0
   -0.5250   -1.7077    1.5335 H   0  0  0  0  0  0  0  0  0  0  0  0
   -1.0264    0.6737    0.8801 H   0  0  0  0  0  0  0  0  0  0  0  0
   -0.4809   -0.3411   -1.8724 H   0  0  0  0  0  0  0  0  0  0  0  0
   -0.9272    2.5738   -1.0492 H   0  0  0  0  0  0  0  0  0  0  0  0
   -0.9974    1.8627   -2.6760 H   0  0  0  0  0  0  0  0  0  0  0  0
   -3.3060    2.2640   -1.8906 H   0  0  0  0  0  0  0  0  0  0  0  0
   -5.1924    1.2632   -1.1854 H   0  0  0  0  0  0  0  0  0  0  0  0
   -5.0464   -0.5376   -1.0188 H   0  0  0  0  0  0  0  0  0  0  0  0
   -5.5563    1.5142    1.1085 H   0  0  0  0  0  0  0  0  0  0  0  0
   -6.8179   -0.2339    1.6310 H   0  0  0  0  0  0  0  0  0  0  0  0
   -4.0934    0.3067    2.7704 H   0  0  0  0  0  0  0  0  0  0  0  0
   -3.3148    1.3269    1.5486 H   0  0  0  0  0  0  0  0  0  0  0  0
   -3.8103   -1.6856    1.1731 H   0  0  0  0  0  0  0  0  0  0  0  0
   -2.3922   -1.0859    2.0643 H   0  0  0  0  0  0  0  0  0  0  0  0
   -2.2765   -1.5289   -1.9838 H   0  0  0  0  0  0  0  0  0  0  0  0
   -2.0027   -2.6536   -0.5890 H   0  0  0  0  0  0  0  0  0  0  0  0
   -3.6647   -2.0405   -0.9960 H   0  0  0  0  0  0  0  0  0  0  0  0
    0.7449    1.5178    0.2394 H   0  0  0  0  0  0  0  0  0  0  0  0
    1.3660    2.7712   -1.7269 H   0  0  0  0  0  0  0  0  0  0  0  0
    1.7582    1.2555   -2.6519 H   0  0  0  0  0  0  0  0  0  0  0  0
    3.8254    2.3231   -1.1143 H   0  0  0  0  0  0  0  0  0  0  0  0
    3.8580   -1.7764    1.0833 H   0  0  0  0  0  0  0  0  0  0  0  0
    5.8482   -2.1928    2.3682 H   0  0  0  0  0  0  0  0  0  0  0  0
    7.6095   -0.4371    2.5330 H   0  0  0  0  0  0  0  0  0  0  0  0
    7.1919    1.6978    1.3661 H   0  0  0  0  0  0  0  0  0  0  0  0
  2  1  1  6
  2  3  1  0
  3  4  1  0
  4  5  1  0
  5  6  1  0
  6  7  1  0
  7  8  1  0
  8  9  2  0
  9 10  1  0
 10 11  1  0
 11 12  1  0
 11 13  1  0
 13 14  1  0
 14 15  1  0
 15 16  1  6
  6 17  1  0
 17 18  1  0
 18 19  1  0
 19 20  2  0
 20 21  1  0
 21 22  2  0
 22 23  1  0
 23 24  2  0
 24 25  1  0
 25 26  2  0
 17  2  1  0
 26 21  1  0
 20  2  1  0
 15  5  1  0
 15  9  1  0
  1 27  1  0
  1 28  1  0
  1 29  1  0
  3 30  1  0
  3 31  1  0
  4 32  1  0
  4 33  1  0
  5 34  1  1
  6 35  1  6
  7 36  1  0
  7 37  1  0
  8 38  1  0
 10 39  1  0
 10 40  1  0
 11 41  1  6
 12 42  1  0
 13 43  1  0
 13 44  1  0
 14 45  1  0
 14 46  1  0
 16 47  1  0
 16 48  1  0
 16 49  1  0
 17 50  1  1
 18 51  1  0
 18 52  1  0
 19 53  1  0
 22 54  1  0
 23 55  1  0
 24 56  1  0
 25 57  1  0
M  END
$$$$
