@<TRIPOS>MOLECULE
*****
 57 61 0 0 0
SMALL
GASTEIGER

@<TRIPOS>ATOM
      1 C           1.9765   -1.2487   -1.3847 C.3     1  UNL1       -0.0552
      2 C           1.8579   -0.2033   -0.3068 C.3     1  UNL1       -0.0020
      3 C           1.2432   -0.6999    0.9668 C.3     1  UNL1       -0.0430
      4 C          -0.1523   -1.2323    0.6048 C.3     1  UNL1       -0.0484
      5 C          -1.0503   -0.1367    0.1425 C.3     1  UNL1       -0.0285
      6 C          -0.4336    0.4592   -1.1387 C.3     1  UNL1       -0.0301
      7 C          -1.2308    1.6390   -1.6061 C.3     1  UNL1       -0.0311
      8 C          -2.6867    1.4798   -1.4102 C.2     1  UNL1       -0.0839
      9 C          -3.2289    0.5064   -0.7324 C.2     1  UNL1       -0.0648
     10 C          -4.7111    0.4512   -0.6034 C.3     1  UNL1       -0.0051
     11 C          -5.1349    0.4996    0.8589 C.3     1  UNL1        0.0590
     12 O          -6.0064   -0.5227    1.1422 O.3     1  UNL1       -0.3915
     13 C          -3.8587    0.3890    1.6848 C.3     1  UNL1       -0.0258
     14 C          -3.0965   -0.8299    1.2745 C.3     1  UNL1       -0.0413
     15 C          -2.4496   -0.5682   -0.0698 C.3     1  UNL1       -0.0078
     16 C          -2.5759   -1.7964   -0.9447 C.3     1  UNL1       -0.0556
     17 C           0.8925    0.9330   -0.7039 C.3     1  UNL1       -0.0248
     18 C           1.7069    1.7054   -1.6362 C.3     1  UNL1       -0.0302
     19 C           3.0377    1.6133   -0.9915 C.2     1  UNL1       -0.0780
     20 C           3.1134    0.5118   -0.2332 C.2     1  UNL1       -0.0197
     21 C           4.3311    0.2092    0.4985 C.ar    1  UNL1        0.0672
     22 C           4.5562   -0.9731    1.1394 C.ar    1  UNL1       -0.0360
     23 C           5.7150   -1.2367    1.8747 C.ar    1  UNL1       -0.0583
     24 C           6.6819   -0.2711    1.9643 C.ar    1  UNL1       -0.0436
     25 C           6.4544    0.9168    1.3180 C.ar    1  UNL1        0.0282
     26 N           5.3356    1.1332    0.6258 N.ar    1  UNL1       -0.2553
     27 H           1.7581   -2.2744   -1.0483 H       1  UNL1        0.0238
     28 H           3.0317   -1.2945   -1.7975 H       1  UNL1        0.0238
     29 H           1.3620   -1.0462   -2.2834 H       1  UNL1        0.0238
     30 H           1.0448    0.2095    1.5900 H       1  UNL1        0.0274
     31 H           1.7676   -1.4069    1.5672 H       1  UNL1        0.0274
     32 H          -0.0228   -2.0448   -0.1249 H       1  UNL1        0.0269
     33 H          -0.5250   -1.7077    1.5335 H       1  UNL1        0.0269
     34 H          -1.0264    0.6737    0.8801 H       1  UNL1        0.0312
     35 H          -0.4809   -0.3411   -1.8724 H       1  UNL1        0.0310
     36 H          -0.9272    2.5738   -1.0492 H       1  UNL1        0.0310
     37 H          -0.9974    1.8627   -2.6760 H       1  UNL1        0.0310
     38 H          -3.3060    2.2640   -1.8906 H       1  UNL1        0.0572
     39 H          -5.1924    1.2632   -1.1854 H       1  UNL1        0.0335
     40 H          -5.0464   -0.5376   -1.0188 H       1  UNL1        0.0335
     41 H          -5.5563    1.5142    1.1085 H       1  UNL1        0.0596
     42 H          -6.8179   -0.2339    1.6310 H       1  UNL1        0.2098
     43 H          -4.0934    0.3067    2.7704 H       1  UNL1        0.0290
     44 H          -3.3148    1.3269    1.5486 H       1  UNL1        0.0290
     45 H          -3.8103   -1.6856    1.1731 H       1  UNL1        0.0274
     46 H          -2.3922   -1.0859    2.0643 H       1  UNL1        0.0274
     47 H          -2.2765   -1.5289   -1.9838 H       1  UNL1        0.0238
     48 H          -2.0027   -2.6536   -0.5890 H       1  UNL1        0.0238
     49 H          -3.6647   -2.0405   -0.9960 H       1  UNL1        0.0238
     50 H           0.7449    1.5178    0.2394 H       1  UNL1        0.0315
     51 H           1.3660    2.7712   -1.7269 H       1  UNL1        0.0311
     52 H           1.7582    1.2555   -2.6519 H       1  UNL1        0.0311
     53 H           3.8254    2.3231   -1.1143 H       1  UNL1        0.0576
     54 H           3.8580   -1.7764    1.0833 H       1  UNL1        0.0639
     55 H           5.8482   -2.1928    2.3682 H       1  UNL1        0.0619
     56 H           7.6095   -0.4371    2.5330 H       1  UNL1        0.0633
     57 H           7.1919    1.6978    1.3661 H       1  UNL1        0.0830
@<TRIPOS>BOND
     1     2     1    1
     2     2     3    1
     3     3     4    1
     4     4     5    1
     5     5     6    1
     6     6     7    1
     7     7     8    1
     8     8     9    2
     9     9    10    1
    10    10    11    1
    11    11    12    1
    12    11    13    1
    13    13    14    1
    14    14    15    1
    15    15    16    1
    16     6    17    1
    17    17    18    1
    18    18    19    1
    19    19    20    2
    20    20    21    1
    21    21    22   ar
    22    22    23   ar
    23    23    24   ar
    24    24    25   ar
    25    25    26   ar
    26    17     2    1
    27    26    21   ar
    28    20     2    1
    29    15     5    1
    30    15     9    1
    31     1    27    1
    32     1    28    1
    33     1    29    1
    34     3    30    1
    35     3    31    1
    36     4    32    1
    37     4    33    1
    38     5    34    1
    39     6    35    1
    40     7    36    1
    41     7    37    1
    42     8    38    1
    43    10    39    1
    44    10    40    1
    45    11    41    1
    46    12    42    1
    47    13    43    1
    48    13    44    1
    49    14    45    1
    50    14    46    1
    51    16    47    1
    52    16    48    1
    53    16    49    1
    54    17    50    1
    55    18    51    1
    56    18    52    1
    57    19    53    1
    58    22    54    1
    59    23    55    1
    60    24    56    1
    61    25    57    1
