
     RDKit          3D

 60 64  0  0  0  0  0  0  0  0999 V2000
   -7.1310   -0.3465    1.7142 C   0  0  0  0  0  0  0  0  0  0  0  0
   -6.8893    0.9889    2.2048 N   0  0  0  0  0  0  0  0  0  0  0  0
   -7.9880    1.7169    2.8476 C   0  0  0  0  0  0  0  0  0  0  0  0
   -5.6486    1.6434    2.0972 C   0  0  0  0  0  0  0  0  0  0  0  0
   -5.5108    2.8225    2.5542 O   0  0  0  0  0  0  0  0  0  0  0  0
   -4.4706    0.9817    1.4501 C   0  0  2  0  0  0  0  0  0  0  0  0
   -3.2326    1.7994    1.3786 C   0  0  0  0  0  0  0  0  0  0  0  0
   -4.0834    1.4386    0.1556 C   0  0  1  0  0  0  0  0  0  0  0  0
   -3.4239    0.5669   -0.8433 C   0  0  1  0  0  0  0  0  0  0  0  0
   -4.2970    0.5693   -2.1002 C   0  0  0  0  0  0  0  0  0  0  0  0
   -2.1145    1.1817   -1.2774 C   0  0  0  0  0  0  0  0  0  0  0  0
   -0.9498    0.4073   -1.2474 C   0  0  0  0  0  0  0  0  0  0  0  0
    0.2652    0.9093   -1.6041 C   0  0  0  0  0  0  0  0  0  0  0  0
    1.4704    0.0772   -1.5637 C   0  0  0  0  0  0  0  0  0  0  0  0
    2.5555    0.5795   -1.0509 C   0  0  0  0  0  0  0  0  0  0  0  0
    2.4831    1.8749   -0.5765 F   0  0  0  0  0  0  0  0  0  0  0  0
    3.8484   -0.1076   -0.9445 C   0  0  0  0  0  0  0  0  0  0  0  0
    3.9956   -1.3730   -1.4353 C   0  0  0  0  0  0  0  0  0  0  0  0
    5.2014   -2.0074   -1.3347 N   0  0  0  0  0  0  0  0  0  0  0  0
    6.2718   -1.4448   -0.7684 C   0  0  0  0  0  0  0  0  0  0  0  0
    7.5555   -2.0701   -0.6552 C   0  0  0  0  0  0  0  0  0  0  0  0
    8.6491   -2.5795   -0.5579 C   0  0  0  0  0  0  0  0  0  0  0  0
    9.9992   -3.1833   -0.4389 C   0  0  0  0  0  0  0  0  0  0  0  0
   11.1643   -2.4016   -1.0270 C   0  0  0  0  0  0  0  0  0  0  0  0
   10.9429   -2.4717    0.4603 C   0  0  0  0  0  0  0  0  0  0  0  0
    6.0720   -0.1474   -0.2794 C   0  0  0  0  0  0  0  0  0  0  0  0
    4.9024    0.4890   -0.3682 N   0  0  0  0  0  0  0  0  0  0  0  0
    0.3231    2.2246   -2.0056 C   0  0  0  0  0  0  0  0  0  0  0  0
   -0.8090    3.0266   -2.0503 C   0  0  0  0  0  0  0  0  0  0  0  0
   -2.0282    2.4923   -1.6822 C   0  0  0  0  0  0  0  0  0  0  0  0
   -3.1705    3.2176   -1.7070 F   0  0  0  0  0  0  0  0  0  0  0  0
   -3.1771   -0.7630   -0.5026 N   0  0  0  0  0  0  0  0  0  0  0  0
   -3.4286   -1.5061    0.4691 C   0  0  0  0  0  0  0  0  0  0  0  0
   -3.0430   -2.8807    0.5590 N   0  0  0  0  0  0  0  0  0  0  0  0
   -4.3339   -0.7626    1.8182 S   0  0  0  0  0  0  0  0  0  0  0  0
   -6.6250   -0.5919    0.7779 H   0  0  0  0  0  0  0  0  0  0  0  0
   -6.8714   -1.0854    2.4971 H   0  0  0  0  0  0  0  0  0  0  0  0
   -8.2407   -0.4430    1.5216 H   0  0  0  0  0  0  0  0  0  0  0  0
   -7.7452    2.7974    2.9496 H   0  0  0  0  0  0  0  0  0  0  0  0
   -8.2007    1.2454    3.8185 H   0  0  0  0  0  0  0  0  0  0  0  0
   -8.8797    1.6041    2.2098 H   0  0  0  0  0  0  0  0  0  0  0  0
   -3.2661    2.8196    1.7779 H   0  0  0  0  0  0  0  0  0  0  0  0
   -2.2578    1.2815    1.4744 H   0  0  0  0  0  0  0  0  0  0  0  0
   -4.6678    2.2866   -0.2859 H   0  0  0  0  0  0  0  0  0  0  0  0
   -5.3724    0.6536   -1.8277 H   0  0  0  0  0  0  0  0  0  0  0  0
   -4.1485   -0.3798   -2.6494 H   0  0  0  0  0  0  0  0  0  0  0  0
   -4.0028    1.3849   -2.8027 H   0  0  0  0  0  0  0  0  0  0  0  0
   -1.0616   -0.6198   -0.9254 H   0  0  0  0  0  0  0  0  0  0  0  0
    1.4548   -0.9230   -1.9494 H   0  0  0  0  0  0  0  0  0  0  0  0
    3.1729   -1.9226   -1.9203 H   0  0  0  0  0  0  0  0  0  0  0  0
    9.9966   -4.2770   -0.5242 H   0  0  0  0  0  0  0  0  0  0  0  0
   12.0129   -3.0016   -1.4384 H   0  0  0  0  0  0  0  0  0  0  0  0
   10.9279   -1.4233   -1.5097 H   0  0  0  0  0  0  0  0  0  0  0  0
   10.5523   -1.5632    0.9988 H   0  0  0  0  0  0  0  0  0  0  0  0
   11.6050   -3.1394    1.0499 H   0  0  0  0  0  0  0  0  0  0  0  0
    6.9528    0.3093    0.1860 H   0  0  0  0  0  0  0  0  0  0  0  0
    1.2773    2.6705   -2.3075 H   0  0  0  0  0  0  0  0  0  0  0  0
   -0.7926    4.0594   -2.3590 H   0  0  0  0  0  0  0  0  0  0  0  0
   -3.3861   -3.4855    1.3312 H   0  0  0  0  0  0  0  0  0  0  0  0
   -2.4042   -3.2193   -0.1955 H   0  0  0  0  0  0  0  0  0  0  0  0
  1  2  1  0
  2  3  1  0
  2  4  1  0
  4  5  2  0
  6  4  1  1
  6  7  1  0
  7  8  1  0
  8  9  1  0
  9 10  1  6
  9 11  1  0
 11 12  2  0
 12 13  1  0
 13 14  1  0
 14 15  2  0
 15 16  1  0
 15 17  1  0
 17 18  2  0
 18 19  1  0
 19 20  2  0
 20 21  1  0
 21 22  3  0
 22 23  1  0
 23 24  1  0
 24 25  1  0
 20 26  1  0
 26 27  2  0
 13 28  2  0
 28 29  1  0
 29 30  2  0
 30 31  1  0
  9 32  1  0
 32 33  2  0
 33 34  1  0
 33 35  1  0
  8  6  1  0
 30 11  1  0
 35  6  1  0
 27 17  1  0
 25 23  1  0
  1 36  1  0
  1 37  1  0
  1 38  1  0
  3 39  1  0
  3 40  1  0
  3 41  1  0
  7 42  1  0
  7 43  1  0
  8 44  1  6
 10 45  1  0
 10 46  1  0
 10 47  1  0
 12 48  1  0
 14 49  1  0
 18 50  1  0
 23 51  1  0
 24 52  1  0
 24 53  1  0
 25 54  1  0
 25 55  1  0
 26 56  1  0
 28 57  1  0
 29 58  1  0
 34 59  1  0
 34 60  1  0
M  END
$$$$
