@<TRIPOS>MOLECULE
*****
 60 64 0 0 0
SMALL
GASTEIGER

@<TRIPOS>ATOM
      1 C          -7.1310   -0.3465    1.7142 C.3     1  UNL1        0.0029
      2 N          -6.8893    0.9889    2.2048 N.am    1  UNL1       -0.3064
      3 C          -7.9880    1.7169    2.8476 C.3     1  UNL1        0.0029
      4 C          -5.6486    1.6434    2.0972 C.2     1  UNL1        0.2319
      5 O          -5.5108    2.8225    2.5542 O.2     1  UNL1       -0.2741
      6 C          -4.4706    0.9817    1.4501 C.3     1  UNL1        0.1054
      7 C          -3.2326    1.7994    1.3786 C.3     1  UNL1       -0.0220
      8 C          -4.0834    1.4386    0.1556 C.3     1  UNL1        0.0134
      9 C          -3.4239    0.5669   -0.8433 C.3     1  UNL1        0.0935
     10 C          -4.2970    0.5693   -2.1002 C.3     1  UNL1       -0.0351
     11 C          -2.1145    1.1817   -1.2774 C.ar    1  UNL1        0.0158
     12 C          -0.9498    0.4073   -1.2474 C.ar    1  UNL1       -0.0463
     13 C           0.2652    0.9093   -1.6041 C.ar    1  UNL1       -0.0217
     14 C           1.4704    0.0772   -1.5637 C.2     1  UNL1       -0.0171
     15 C           2.5555    0.5795   -1.0509 C.2     1  UNL1        0.1506
     16 F           2.4831    1.8749   -0.5765 F       1  UNL1       -0.2032
     17 C           3.8484   -0.1076   -0.9445 C.ar    1  UNL1        0.1170
     18 C           3.9956   -1.3730   -1.4353 C.ar    1  UNL1        0.0572
     19 N           5.2014   -2.0074   -1.3347 N.ar    1  UNL1       -0.2430
     20 C           6.2718   -1.4448   -0.7684 C.ar    1  UNL1        0.1314
     21 C           7.5555   -2.0701   -0.6552 C.1     1  UNL1       -0.0446
     22 C           8.6491   -2.5795   -0.5579 C.1     1  UNL1       -0.0920
     23 C           9.9992   -3.1833   -0.4389 C.3     1  UNL1        0.0211
     24 C          11.1643   -2.4016   -1.0270 C.3     1  UNL1       -0.0382
     25 C          10.9429   -2.4717    0.4603 C.3     1  UNL1       -0.0382
     26 C           6.0720   -0.1474   -0.2794 C.ar    1  UNL1        0.0622
     27 N           4.9024    0.4890   -0.3682 N.ar    1  UNL1       -0.2484
     28 C           0.3231    2.2246   -2.0056 C.ar    1  UNL1       -0.0518
     29 C          -0.8090    3.0266   -2.0503 C.ar    1  UNL1       -0.0255
     30 C          -2.0282    2.4923   -1.6822 C.ar    1  UNL1        0.1289
     31 F          -3.1705    3.2176   -1.7070 F       1  UNL1       -0.2051
     32 N          -3.1771   -0.7630   -0.5026 N.2     1  UNL1       -0.2521
     33 C          -3.4286   -1.5061    0.4691 C.2     1  UNL1        0.1485
     34 N          -3.0430   -2.8807    0.5590 N.pl3   1  UNL1       -0.3380
     35 S          -4.3339   -0.7626    1.8182 S.3     1  UNL1       -0.0746
     36 H          -6.6250   -0.5919    0.7779 H       1  UNL1        0.0428
     37 H          -6.8714   -1.0854    2.4971 H       1  UNL1        0.0428
     38 H          -8.2407   -0.4430    1.5216 H       1  UNL1        0.0428
     39 H          -7.7452    2.7974    2.9496 H       1  UNL1        0.0428
     40 H          -8.2007    1.2454    3.8185 H       1  UNL1        0.0428
     41 H          -8.8797    1.6041    2.2098 H       1  UNL1        0.0428
     42 H          -3.2661    2.8196    1.7779 H       1  UNL1        0.0287
     43 H          -2.2578    1.2815    1.4744 H       1  UNL1        0.0287
     44 H          -4.6678    2.2866   -0.2859 H       1  UNL1        0.0346
     45 H          -5.3724    0.6536   -1.8277 H       1  UNL1        0.0256
     46 H          -4.1485   -0.3798   -2.6494 H       1  UNL1        0.0256
     47 H          -4.0028    1.3849   -2.8027 H       1  UNL1        0.0256
     48 H          -1.0616   -0.6198   -0.9254 H       1  UNL1        0.0628
     49 H           1.4548   -0.9230   -1.9494 H       1  UNL1        0.0653
     50 H           3.1729   -1.9226   -1.9203 H       1  UNL1        0.0852
     51 H           9.9966   -4.2770   -0.5242 H       1  UNL1        0.0433
     52 H          12.0129   -3.0016   -1.4384 H       1  UNL1        0.0277
     53 H          10.9279   -1.4233   -1.5097 H       1  UNL1        0.0277
     54 H          10.5523   -1.5632    0.9988 H       1  UNL1        0.0277
     55 H          11.6050   -3.1394    1.0499 H       1  UNL1        0.0277
     56 H           6.9528    0.3093    0.1860 H       1  UNL1        0.0858
     57 H           1.2773    2.6705   -2.3075 H       1  UNL1        0.0624
     58 H          -0.7926    4.0594   -2.3590 H       1  UNL1        0.0646
     59 H          -3.3861   -3.4855    1.3312 H       1  UNL1        0.1442
     60 H          -2.4042   -3.2193   -0.1955 H       1  UNL1        0.1442
@<TRIPOS>BOND
     1     1     2    1
     2     2     3    1
     3     2     4   am
     4     4     5    2
     5     6     4    1
     6     6     7    1
     7     7     8    1
     8     8     9    1
     9     9    10    1
    10     9    11    1
    11    11    12   ar
    12    12    13   ar
    13    13    14    1
    14    14    15    2
    15    15    16    1
    16    15    17    1
    17    17    18   ar
    18    18    19   ar
    19    19    20   ar
    20    20    21    1
    21    21    22    3
    22    22    23    1
    23    23    24    1
    24    24    25    1
    25    20    26   ar
    26    26    27   ar
    27    13    28   ar
    28    28    29   ar
    29    29    30   ar
    30    30    31    1
    31     9    32    1
    32    32    33    2
    33    33    34    1
    34    33    35    1
    35     8     6    1
    36    30    11   ar
    37    35     6    1
    38    27    17   ar
    39    25    23    1
    40     1    36    1
    41     1    37    1
    42     1    38    1
    43     3    39    1
    44     3    40    1
    45     3    41    1
    46     7    42    1
    47     7    43    1
    48     8    44    1
    49    10    45    1
    50    10    46    1
    51    10    47    1
    52    12    48    1
    53    14    49    1
    54    18    50    1
    55    23    51    1
    56    24    52    1
    57    24    53    1
    58    25    54    1
    59    25    55    1
    60    26    56    1
    61    28    57    1
    62    29    58    1
    63    34    59    1
    64    34    60    1
