
     RDKit          3D

 73 77  0  0  0  0  0  0  0  0999 V2000
   -9.5953    3.3770    1.4783 C   0  0  0  0  0  0  0  0  0  0  0  0
   -8.5448    2.4504    1.5119 O   0  0  0  0  0  0  0  0  0  0  0  0
   -8.3949    1.5731    0.4358 C   0  0  0  0  0  0  0  0  0  0  0  0
   -9.1243    1.4721   -0.6720 N   0  0  0  0  0  0  0  0  0  0  0  0
   -8.6832    0.5229   -1.4695 N   0  0  0  0  0  0  0  0  0  0  0  0
   -9.2382    0.1430   -2.7475 C   0  0  0  0  0  0  0  0  0  0  0  0
   -7.6117   -0.0326   -0.8645 C   0  0  0  0  0  0  0  0  0  0  0  0
   -7.3968    0.6038    0.3439 C   0  0  0  0  0  0  0  0  0  0  0  0
   -6.3910    0.3507    1.3036 N   0  0  0  0  0  0  0  0  0  0  0  0
   -5.4691   -0.6979    1.1272 C   0  0  0  0  0  0  0  0  0  0  0  0
   -5.7584   -1.9648    1.4974 N   0  0  0  0  0  0  0  0  0  0  0  0
   -4.8739   -2.9466    1.3464 C   0  0  0  0  0  0  0  0  0  0  0  0
   -3.6287   -2.6464    0.7948 C   0  0  0  0  0  0  0  0  0  0  0  0
   -2.6552   -3.7276    0.6248 C   0  0  0  0  0  0  0  0  0  0  0  0
   -3.3273   -1.3621    0.4177 C   0  0  0  0  0  0  0  0  0  0  0  0
   -2.0128   -1.0927   -0.1448 C   0  0  0  0  0  0  0  0  0  0  0  0
   -1.3459   -1.7601   -1.1441 C   0  0  0  0  0  0  0  0  0  0  0  0
   -0.1644   -1.1551   -1.3032 N   0  0  0  0  0  0  0  0  0  0  0  0
   -0.0142   -0.1180   -0.4587 C   0  0  0  0  0  0  0  0  0  0  0  0
    0.9650    0.8278   -0.2111 C   0  0  0  0  0  0  0  0  0  0  0  0
    2.1690    0.7656   -0.9461 N   0  0  0  0  0  0  0  0  0  0  0  0
    3.3061    0.1634   -0.3629 C   0  0  0  0  0  0  0  0  0  0  0  0
    3.2137   -0.2933    0.8003 O   0  0  0  0  0  0  0  0  0  0  0  0
    4.6027    0.0515   -1.0705 C   0  0  1  0  0  0  0  0  0  0  0  0
    4.9921    1.2697   -1.8399 C   0  0  0  0  0  0  0  0  0  0  0  0
    5.6157   -0.3544   -0.0882 N   0  0  0  0  0  0  0  0  0  0  0  0
    5.7118    0.6623    0.8879 C   0  0  0  0  0  0  0  0  0  0  0  0
    7.0463    1.1680    1.2651 C   0  0  0  0  0  0  0  0  0  0  0  0
    8.0998    0.9425    0.3022 N   0  0  0  0  0  0  0  0  0  0  0  0
    9.3723    1.1420    0.9655 C   0  0  0  0  0  0  0  0  0  0  0  0
    8.0663   -0.4565   -0.0910 C   0  0  0  0  0  0  0  0  0  0  0  0
    6.7814   -0.7943   -0.7556 C   0  0  1  0  0  0  0  0  0  0  0  0
    6.7200   -2.3279   -0.8344 C   0  0  0  0  0  0  0  0  0  0  0  0
    0.7814    1.8068    0.7591 C   0  0  0  0  0  0  0  0  0  0  0  0
   -0.3832    1.8263    1.4711 C   0  0  0  0  0  0  0  0  0  0  0  0
   -1.3743    0.8962    1.2448 C   0  0  0  0  0  0  0  0  0  0  0  0
   -1.1633   -0.0719    0.2674 C   0  0  0  0  0  0  0  0  0  0  0  0
   -4.2572   -0.4209    0.5939 N   0  0  0  0  0  0  0  0  0  0  0  0
  -10.5483    2.8215    1.6187 H   0  0  0  0  0  0  0  0  0  0  0  0
   -9.4963    4.0693    2.3351 H   0  0  0  0  0  0  0  0  0  0  0  0
   -9.6537    3.8986    0.5118 H   0  0  0  0  0  0  0  0  0  0  0  0
   -9.9317   -0.7025   -2.5466 H   0  0  0  0  0  0  0  0  0  0  0  0
   -8.4791   -0.1753   -3.4700 H   0  0  0  0  0  0  0  0  0  0  0  0
   -9.7771    1.0466   -3.1381 H   0  0  0  0  0  0  0  0  0  0  0  0
   -6.9841   -0.8449   -1.2167 H   0  0  0  0  0  0  0  0  0  0  0  0
   -6.3331    0.9501    2.1468 H   0  0  0  0  0  0  0  0  0  0  0  0
   -5.1116   -3.9487    1.6402 H   0  0  0  0  0  0  0  0  0  0  0  0
   -2.8024   -4.4842    1.4446 H   0  0  0  0  0  0  0  0  0  0  0  0
   -1.6096   -3.4088    0.6644 H   0  0  0  0  0  0  0  0  0  0  0  0
   -2.8746   -4.2420   -0.3541 H   0  0  0  0  0  0  0  0  0  0  0  0
   -1.7253   -2.6157   -1.6897 H   0  0  0  0  0  0  0  0  0  0  0  0
    0.5906   -1.4239   -1.9953 H   0  0  0  0  0  0  0  0  0  0  0  0
    2.1941    1.1594   -1.9027 H   0  0  0  0  0  0  0  0  0  0  0  0
    4.4552   -0.7634   -1.8234 H   0  0  0  0  0  0  0  0  0  0  0  0
    5.6723    0.9648   -2.6876 H   0  0  0  0  0  0  0  0  0  0  0  0
    4.1065    1.7187   -2.3322 H   0  0  0  0  0  0  0  0  0  0  0  0
    5.5448    2.0360   -1.2566 H   0  0  0  0  0  0  0  0  0  0  0  0
    5.2353    0.2416    1.8303 H   0  0  0  0  0  0  0  0  0  0  0  0
    5.0467    1.5287    0.6495 H   0  0  0  0  0  0  0  0  0  0  0  0
    7.3305    0.8193    2.2829 H   0  0  0  0  0  0  0  0  0  0  0  0
    6.9920    2.2891    1.3767 H   0  0  0  0  0  0  0  0  0  0  0  0
    9.4741    2.2039    1.2294 H   0  0  0  0  0  0  0  0  0  0  0  0
   10.1562    0.8643    0.2006 H   0  0  0  0  0  0  0  0  0  0  0  0
    9.4970    0.5340    1.8768 H   0  0  0  0  0  0  0  0  0  0  0  0
    8.2823   -1.1440    0.7383 H   0  0  0  0  0  0  0  0  0  0  0  0
    8.8937   -0.5800   -0.8493 H   0  0  0  0  0  0  0  0  0  0  0  0
    6.8423   -0.4719   -1.8222 H   0  0  0  0  0  0  0  0  0  0  0  0
    7.3051   -2.7619    0.0161 H   0  0  0  0  0  0  0  0  0  0  0  0
    5.6977   -2.7041   -0.7483 H   0  0  0  0  0  0  0  0  0  0  0  0
    7.2445   -2.6841   -1.7459 H   0  0  0  0  0  0  0  0  0  0  0  0
    1.5805    2.5090    0.8999 H   0  0  0  0  0  0  0  0  0  0  0  0
   -0.5449    2.5895    2.2418 H   0  0  0  0  0  0  0  0  0  0  0  0
   -2.3052    0.9189    1.8197 H   0  0  0  0  0  0  0  0  0  0  0  0
  1  2  1  0
  2  3  1  0
  3  4  2  0
  4  5  1  0
  5  6  1  0
  5  7  1  0
  7  8  2  0
  8  9  1  0
  9 10  1  0
 10 11  2  0
 11 12  1  0
 12 13  2  0
 13 14  1  0
 13 15  1  0
 15 16  1  0
 16 17  2  0
 17 18  1  0
 18 19  1  0
 19 20  2  0
 20 21  1  0
 21 22  1  0
 22 23  2  0
 22 24  1  0
 24 25  1  0
 24 26  1  0
 26 27  1  0
 27 28  1  0
 28 29  1  0
 29 30  1  0
 29 31  1  0
 31 32  1  0
 32 33  1  0
 20 34  1  0
 34 35  2  0
 35 36  1  0
 36 37  2  0
 15 38  2  0
  8  3  1  0
 38 10  1  0
 37 16  1  0
 37 19  1  0
 32 26  1  0
  1 39  1  0
  1 40  1  0
  1 41  1  0
  6 42  1  0
  6 43  1  0
  6 44  1  0
  7 45  1  0
  9 46  1  0
 12 47  1  0
 14 48  1  0
 14 49  1  0
 14 50  1  0
 17 51  1  0
 18 52  1  0
 21 53  1  0
 24 54  1  6
 25 55  1  0
 25 56  1  0
 25 57  1  0
 27 58  1  0
 27 59  1  0
 28 60  1  0
 28 61  1  0
 30 62  1  0
 30 63  1  0
 30 64  1  0
 31 65  1  0
 31 66  1  0
 32 67  1  6
 33 68  1  0
 33 69  1  0
 33 70  1  0
 34 71  1  0
 35 72  1  0
 36 73  1  0
M  END
$$$$
