@<TRIPOS>MOLECULE
*****
 37 39 0 0 0
SMALL
GASTEIGER

@<TRIPOS>ATOM
      1 O           6.4291    0.0159    0.3244 O.3     1  UNL1       -0.4806
      2 C           5.5668   -1.0898    0.3153 C.2     1  UNL1        0.3052
      3 O           6.2641   -2.1415    0.3597 O.2     1  UNL1       -0.2510
      4 C           4.0833   -1.1694    0.2651 C.3     1  UNL1        0.0531
      5 C           3.5041    0.2321    0.2055 C.3     1  UNL1        0.0340
      6 C           2.0084    0.1754    0.1617 C.ar    1  UNL1        0.1973
      7 N           1.1901    1.2547    0.1029 N.ar    1  UNL1       -0.2127
      8 C          -0.0897    0.7811    0.0800 C.ar    1  UNL1        0.1172
      9 C          -0.0118   -0.5705    0.1252 C.ar    1  UNL1        0.1630
     10 O           1.2723   -0.8901    0.1736 O.2     1  UNL1       -0.4391
     11 C          -1.1976   -1.4055    0.1161 C.ar    1  UNL1        0.0195
     12 C          -1.2343   -2.2189   -1.0195 C.ar    1  UNL1       -0.0510
     13 C          -2.2922   -3.1041   -1.2244 C.ar    1  UNL1       -0.0611
     14 C          -3.3300   -3.2067   -0.3213 C.ar    1  UNL1       -0.0617
     15 C          -3.2660   -2.3893    0.7928 C.ar    1  UNL1       -0.0611
     16 C          -2.2339   -1.5082    1.0179 C.ar    1  UNL1       -0.0510
     17 C          -1.1506    1.7770    0.0251 C.ar    1  UNL1        0.0041
     18 C          -1.3674    2.5280   -1.1231 C.ar    1  UNL1       -0.0524
     19 C          -2.3513    3.4898   -1.2362 C.ar    1  UNL1       -0.0611
     20 C          -3.1642    3.7166   -0.1465 C.ar    1  UNL1       -0.0617
     21 C          -3.0098    3.0099    1.0293 C.ar    1  UNL1       -0.0611
     22 C          -2.0085    2.0687    1.0663 C.ar    1  UNL1       -0.0524
     23 H           7.1321    0.0373   -0.4011 H       1  UNL1        0.2951
     24 H           3.8477   -1.6608   -0.7204 H       1  UNL1        0.0382
     25 H           3.6260   -1.7269    1.0777 H       1  UNL1        0.0382
     26 H           3.8738    0.7231   -0.7173 H       1  UNL1        0.0365
     27 H           3.8264    0.8401    1.0638 H       1  UNL1        0.0365
     28 H          -0.5094   -2.2624   -1.8152 H       1  UNL1        0.0625
     29 H          -2.3696   -3.7553   -2.0844 H       1  UNL1        0.0618
     30 H          -4.1668   -3.8841   -0.4506 H       1  UNL1        0.0618
     31 H          -4.0430   -2.4103    1.5483 H       1  UNL1        0.0618
     32 H          -2.1126   -0.8431    1.8576 H       1  UNL1        0.0625
     33 H          -0.7211    2.3455   -1.9856 H       1  UNL1        0.0624
     34 H          -2.5068    4.0661   -2.1392 H       1  UNL1        0.0618
     35 H          -3.9495    4.4713   -0.2092 H       1  UNL1        0.0618
     36 H          -3.6405    3.1750    1.8988 H       1  UNL1        0.0618
     37 H          -1.8977    1.5295    1.9868 H       1  UNL1        0.0624
@<TRIPOS>BOND
     1     1     2    1
     2     2     3    2
     3     2     4    1
     4     4     5    1
     5     5     6    1
     6     6     7   ar
     7     7     8   ar
     8     8     9   ar
     9     9    10   ar
    10     9    11    1
    11    11    12   ar
    12    12    13   ar
    13    13    14   ar
    14    14    15   ar
    15    15    16   ar
    16     8    17    1
    17    17    18   ar
    18    18    19   ar
    19    19    20   ar
    20    20    21   ar
    21    21    22   ar
    22    10     6   ar
    23    16    11   ar
    24    22    17   ar
    25     1    23    1
    26     4    24    1
    27     4    25    1
    28     5    26    1
    29     5    27    1
    30    12    28    1
    31    13    29    1
    32    14    30    1
    33    15    31    1
    34    16    32    1
    35    18    33    1
    36    19    34    1
    37    20    35    1
    38    21    36    1
    39    22    37    1
