
     RDKit          3D

 57 61  0  0  0  0  0  0  0  0999 V2000
    1.2690   -1.5666    2.1012 C   0  0  0  0  0  0  0  0  0  0  0  0
    0.5709   -0.8628    1.0372 N   0  0  0  0  0  0  0  0  0  0  0  0
    1.0192    0.1914    0.2973 C   0  0  0  0  0  0  0  0  0  0  0  0
    2.3986    0.7428    0.5521 C   0  0  0  0  0  0  0  0  0  0  0  0
    3.2855   -0.0045   -0.3252 N   0  0  0  0  0  0  0  0  0  0  0  0
    4.6855    0.2735   -0.3140 C   0  0  0  0  0  0  0  0  0  0  0  0
    5.1743    1.2352    0.5195 C   0  0  0  0  0  0  0  0  0  0  0  0
    6.5277    1.5748    0.5995 C   0  0  0  0  0  0  0  0  0  0  0  0
    7.3202    0.8229   -0.2656 C   0  0  0  0  0  0  0  0  0  0  0  0
    6.9266   -0.1637   -1.1403 C   0  0  0  0  0  0  0  0  0  0  0  0
    5.5646   -0.4035   -1.1229 C   0  0  0  0  0  0  0  0  0  0  0  0
    8.7410    1.1242   -0.2354 C   0  0  0  0  0  0  0  0  0  0  0  0
    9.7018    0.1235   -0.5208 N   0  0  0  0  0  0  0  0  0  0  0  0
    9.6428    2.0121   -0.0368 N   0  0  0  0  0  0  0  0  0  0  0  0
    0.0716    0.5757   -0.6012 N   0  0  0  0  0  0  0  0  0  0  0  0
   -0.9917   -0.2603   -0.4153 C   0  0  0  0  0  0  0  0  0  0  0  0
   -0.6572   -1.1172    0.5814 C   0  0  0  0  0  0  0  0  0  0  0  0
   -1.5856   -2.0529    0.9350 C   0  0  0  0  0  0  0  0  0  0  0  0
   -2.7918   -2.0775    0.2730 C   0  0  0  0  0  0  0  0  0  0  0  0
   -3.1010   -1.1912   -0.7365 C   0  0  0  0  0  0  0  0  0  0  0  0
   -4.4185   -1.2206   -1.4643 C   0  0  0  0  0  0  0  0  0  0  0  0
   -5.4423   -0.4661   -0.8125 N   0  0  0  0  0  0  0  0  0  0  0  0
   -6.2918   -0.9991    0.1132 C   0  0  0  0  0  0  0  0  0  0  0  0
   -6.3815   -2.3886    0.6484 C   0  0  0  0  0  0  0  0  0  0  0  0
   -7.1182   -0.0023    0.5143 N   0  0  0  0  0  0  0  0  0  0  0  0
   -6.8185    1.1334   -0.1247 C   0  0  0  0  0  0  0  0  0  0  0  0
   -5.7640    0.8319   -0.9563 C   0  0  0  0  0  0  0  0  0  0  0  0
   -5.2396    1.8539   -1.7548 C   0  0  0  0  0  0  0  0  0  0  0  0
   -5.8336    3.1127   -1.6427 C   0  0  0  0  0  0  0  0  0  0  0  0
   -6.8859    3.3717   -0.7983 C   0  0  0  0  0  0  0  0  0  0  0  0
   -7.4105    2.3703   -0.0073 C   0  0  0  0  0  0  0  0  0  0  0  0
   -2.1851   -0.2081   -1.1416 C   0  0  0  0  0  0  0  0  0  0  0  0
    1.7544   -0.7807    2.7434 H   0  0  0  0  0  0  0  0  0  0  0  0
    0.5550   -2.1569    2.6750 H   0  0  0  0  0  0  0  0  0  0  0  0
    2.1097   -2.1852    1.7330 H   0  0  0  0  0  0  0  0  0  0  0  0
    2.3647    1.7877    0.1769 H   0  0  0  0  0  0  0  0  0  0  0  0
    2.6679    0.6659    1.6085 H   0  0  0  0  0  0  0  0  0  0  0  0
    2.9547   -0.7541   -0.9828 H   0  0  0  0  0  0  0  0  0  0  0  0
    4.5017    1.7853    1.1688 H   0  0  0  0  0  0  0  0  0  0  0  0
    6.9678    2.3170    1.2321 H   0  0  0  0  0  0  0  0  0  0  0  0
    7.6357   -0.6739   -1.7595 H   0  0  0  0  0  0  0  0  0  0  0  0
    5.1661   -1.1800   -1.7948 H   0  0  0  0  0  0  0  0  0  0  0  0
   10.4395   -0.1479   -1.2343 H   0  0  0  0  0  0  0  0  0  0  0  0
   10.4068   -0.6138   -0.7272 H   0  0  0  0  0  0  0  0  0  0  0  0
    9.3122    2.9706    0.2216 H   0  0  0  0  0  0  0  0  0  0  0  0
   -1.4188   -2.7819    1.7151 H   0  0  0  0  0  0  0  0  0  0  0  0
   -3.5272   -2.8401    0.5714 H   0  0  0  0  0  0  0  0  0  0  0  0
   -4.6593   -2.3062   -1.5451 H   0  0  0  0  0  0  0  0  0  0  0  0
   -4.2479   -0.8582   -2.5124 H   0  0  0  0  0  0  0  0  0  0  0  0
   -7.4320   -2.7467    0.6937 H   0  0  0  0  0  0  0  0  0  0  0  0
   -5.9560   -2.4739    1.6567 H   0  0  0  0  0  0  0  0  0  0  0  0
   -5.8502   -3.1099   -0.0302 H   0  0  0  0  0  0  0  0  0  0  0  0
   -4.4124    1.6294   -2.4126 H   0  0  0  0  0  0  0  0  0  0  0  0
   -5.4391    3.9085   -2.2508 H   0  0  0  0  0  0  0  0  0  0  0  0
   -7.2926    4.3614   -0.7623 H   0  0  0  0  0  0  0  0  0  0  0  0
   -8.2355    2.5739    0.6538 H   0  0  0  0  0  0  0  0  0  0  0  0
   -2.3476    0.5218   -1.9200 H   0  0  0  0  0  0  0  0  0  0  0  0
  1  2  1  0
  2  3  1  0
  3  4  1  0
  4  5  1  0
  5  6  1  0
  6  7  2  0
  7  8  1  0
  8  9  2  0
  9 10  1  0
 10 11  2  0
  9 12  1  0
 12 13  1  0
 12 14  2  3
  3 15  2  0
 15 16  1  0
 16 17  2  0
 17 18  1  0
 18 19  2  0
 19 20  1  0
 20 21  1  0
 21 22  1  0
 22 23  1  0
 23 24  1  0
 23 25  2  0
 25 26  1  0
 26 27  2  0
 27 28  1  0
 28 29  2  0
 29 30  1  0
 30 31  2  0
 20 32  2  0
 17  2  1  0
 27 22  1  0
 11  6  1  0
 32 16  1  0
 31 26  1  0
  1 33  1  0
  1 34  1  0
  1 35  1  0
  4 36  1  0
  4 37  1  0
  5 38  1  0
  7 39  1  0
  8 40  1  0
 10 41  1  0
 11 42  1  0
 13 43  1  0
 13 44  1  0
 14 45  1  0
 18 46  1  0
 19 47  1  0
 21 48  1  0
 21 49  1  0
 24 50  1  0
 24 51  1  0
 24 52  1  0
 28 53  1  0
 29 54  1  0
 30 55  1  0
 31 56  1  0
 32 57  1  0
M  END
$$$$
