@<TRIPOS>MOLECULE
*****
 57 61 0 0 0
SMALL
GASTEIGER

@<TRIPOS>ATOM
      1 C           1.2690   -1.5666    2.1012 C.3     1  UNL1        0.0136
      2 N           0.5709   -0.8628    1.0372 N.ar    1  UNL1       -0.3294
      3 C           1.0192    0.1914    0.2973 C.ar    1  UNL1        0.1277
      4 C           2.3986    0.7428    0.5521 C.3     1  UNL1        0.0674
      5 N           3.2855   -0.0045   -0.3252 N.pl3   1  UNL1       -0.3367
      6 C           4.6855    0.2735   -0.3140 C.ar    1  UNL1        0.0275
      7 C           5.1743    1.2352    0.5195 C.ar    1  UNL1       -0.0400
      8 C           6.5277    1.5748    0.5995 C.ar    1  UNL1       -0.0452
      9 C           7.3202    0.8229   -0.2656 C.ar    1  UNL1        0.0648
     10 C           6.9266   -0.1637   -1.1403 C.ar    1  UNL1       -0.0452
     11 C           5.5646   -0.4035   -1.1229 C.ar    1  UNL1       -0.0400
     12 C           8.7410    1.1242   -0.2354 C.2     1  UNL1        0.3081
     13 N           9.7018    0.1235   -0.5208 N.pl3   1  UNL1       -0.2466
     14 N           9.6428    2.0121   -0.0368 N.2     1  UNL1       -0.0994
     15 N           0.0716    0.5757   -0.6012 N.ar    1  UNL1       -0.2307
     16 C          -0.9917   -0.2603   -0.4153 C.ar    1  UNL1        0.0897
     17 C          -0.6572   -1.1172    0.5814 C.ar    1  UNL1        0.0686
     18 C          -1.5856   -2.0529    0.9350 C.ar    1  UNL1       -0.0358
     19 C          -2.7918   -2.0775    0.2730 C.ar    1  UNL1       -0.0548
     20 C          -3.1010   -1.1912   -0.7365 C.ar    1  UNL1       -0.0256
     21 C          -4.4185   -1.2206   -1.4643 C.3     1  UNL1        0.0500
     22 N          -5.4423   -0.4661   -0.8125 N.ar    1  UNL1       -0.3233
     23 C          -6.2918   -0.9991    0.1132 C.ar    1  UNL1        0.1079
     24 C          -6.3815   -2.3886    0.6484 C.3     1  UNL1       -0.0062
     25 N          -7.1182   -0.0023    0.5143 N.ar    1  UNL1       -0.2326
     26 C          -6.8185    1.1334   -0.1247 C.ar    1  UNL1        0.0893
     27 C          -5.7640    0.8319   -0.9563 C.ar    1  UNL1        0.0691
     28 C          -5.2396    1.8539   -1.7548 C.ar    1  UNL1       -0.0360
     29 C          -5.8336    3.1127   -1.6427 C.ar    1  UNL1       -0.0597
     30 C          -6.8859    3.3717   -0.7983 C.ar    1  UNL1       -0.0596
     31 C          -7.4105    2.3703   -0.0073 C.ar    1  UNL1       -0.0342
     32 C          -2.1851   -0.2081   -1.1416 C.ar    1  UNL1       -0.0293
     33 H           1.7544   -0.7807    2.7434 H       1  UNL1        0.0456
     34 H           0.5550   -2.1569    2.6750 H       1  UNL1        0.0456
     35 H           2.1097   -2.1852    1.7330 H       1  UNL1        0.0456
     36 H           2.3647    1.7877    0.1769 H       1  UNL1        0.0541
     37 H           2.6679    0.6659    1.6085 H       1  UNL1        0.0541
     38 H           2.9547   -0.7541   -0.9828 H       1  UNL1        0.1465
     39 H           4.5017    1.7853    1.1688 H       1  UNL1        0.0636
     40 H           6.9678    2.3170    1.2321 H       1  UNL1        0.0627
     41 H           7.6357   -0.6739   -1.7595 H       1  UNL1        0.0627
     42 H           5.1661   -1.1800   -1.7948 H       1  UNL1        0.0636
     43 H          10.4395   -0.1479   -1.2343 H       1  UNL1        0.2884
     44 H          10.4068   -0.6138   -0.7272 H       1  UNL1        0.2884
     45 H           9.3122    2.9706    0.2216 H       1  UNL1        0.3633
     46 H          -1.4188   -2.7819    1.7151 H       1  UNL1        0.0639
     47 H          -3.5272   -2.8401    0.5714 H       1  UNL1        0.0622
     48 H          -4.6593   -2.3062   -1.5451 H       1  UNL1        0.0542
     49 H          -4.2479   -0.8582   -2.5124 H       1  UNL1        0.0542
     50 H          -7.4320   -2.7467    0.6937 H       1  UNL1        0.0307
     51 H          -5.9560   -2.4739    1.6567 H       1  UNL1        0.0307
     52 H          -5.8502   -3.1099   -0.0302 H       1  UNL1        0.0307
     53 H          -4.4124    1.6294   -2.4126 H       1  UNL1        0.0639
     54 H          -5.4391    3.9085   -2.2508 H       1  UNL1        0.0618
     55 H          -7.2926    4.3614   -0.7623 H       1  UNL1        0.0618
     56 H          -8.2355    2.5739    0.6538 H       1  UNL1        0.0639
     57 H          -2.3476    0.5218   -1.9200 H       1  UNL1        0.0643
@<TRIPOS>BOND
     1     1     2    1
     2     2     3   ar
     3     3     4    1
     4     4     5    1
     5     5     6    1
     6     6     7   ar
     7     7     8   ar
     8     8     9   ar
     9     9    10   ar
    10    10    11   ar
    11     9    12    1
    12    12    13    1
    13    12    14    2
    14     3    15   ar
    15    15    16   ar
    16    16    17   ar
    17    17    18   ar
    18    18    19   ar
    19    19    20   ar
    20    20    21    1
    21    21    22    1
    22    22    23   ar
    23    23    24    1
    24    23    25   ar
    25    25    26   ar
    26    26    27   ar
    27    27    28   ar
    28    28    29   ar
    29    29    30   ar
    30    30    31   ar
    31    20    32   ar
    32    17     2   ar
    33    27    22   ar
    34    11     6   ar
    35    32    16   ar
    36    31    26   ar
    37     1    33    1
    38     1    34    1
    39     1    35    1
    40     4    36    1
    41     4    37    1
    42     5    38    1
    43     7    39    1
    44     8    40    1
    45    10    41    1
    46    11    42    1
    47    13    43    1
    48    13    44    1
    49    14    45    1
    50    18    46    1
    51    19    47    1
    52    21    48    1
    53    21    49    1
    54    24    50    1
    55    24    51    1
    56    24    52    1
    57    28    53    1
    58    29    54    1
    59    30    55    1
    60    31    56    1
    61    32    57    1
