@<TRIPOS>MOLECULE
*****
 58 62 0 0 0
SMALL
GASTEIGER

@<TRIPOS>ATOM
      1 C           2.0348   -3.8556    0.4331 C.3     1  UNL1        0.0790
      2 O           0.8633   -3.2302   -0.0549 O.3     1  UNL1       -0.4914
      3 C           0.9793   -1.9127   -0.4904 C.ar    1  UNL1        0.1623
      4 C           2.1725   -1.2264   -0.4580 C.ar    1  UNL1       -0.0038
      5 C           2.3501    0.0748   -0.8739 C.ar    1  UNL1        0.0441
      6 C           3.5640    0.7477   -0.8263 C.ar    1  UNL1        0.1340
      7 N           4.7060    0.0653   -0.3629 N.pl3   1  UNL1       -0.2966
      8 C           5.9908    0.6431   -0.1073 C.ar    1  UNL1        0.0695
      9 C           6.2992    1.9617   -0.2511 C.ar    1  UNL1       -0.0179
     10 C           7.5936    2.4478    0.0154 C.ar    1  UNL1        0.0612
     11 CL          7.9323    4.1603   -0.1877 Cl      1  UNL1       -0.0820
     12 C           8.6022    1.6174    0.4315 C.ar    1  UNL1        0.0621
     13 CL         10.2022    2.2541    0.7559 Cl      1  UNL1       -0.0819
     14 C           8.2959    0.2850    0.5783 C.ar    1  UNL1       -0.0048
     15 C           7.0307   -0.1954    0.3187 C.ar    1  UNL1        0.1459
     16 F           6.7362   -1.5141    0.4671 F       1  UNL1       -0.2035
     17 N           3.6166    2.0233   -1.2554 N.ar    1  UNL1       -0.2200
     18 C           2.5389    2.6556   -1.7234 C.ar    1  UNL1        0.1187
     19 N           1.3426    2.0059   -1.7756 N.ar    1  UNL1       -0.2352
     20 C           1.2243    0.7400   -1.3649 C.ar    1  UNL1        0.0797
     21 C           0.0094    0.0672   -1.4076 C.ar    1  UNL1        0.0098
     22 C          -0.1415   -1.2327   -0.9855 C.ar    1  UNL1        0.1640
     23 O          -1.3029   -1.9401   -1.0005 O.3     1  UNL1       -0.4880
     24 C          -2.5884   -1.6661   -1.3609 C.3     1  UNL1        0.0926
     25 C          -3.2126   -0.6024   -0.4915 C.3     1  UNL1       -0.0062
     26 C          -4.6426   -0.3180   -0.9235 C.3     1  UNL1       -0.0428
     27 C          -5.5295   -0.7631    0.2038 C.3     1  UNL1       -0.0239
     28 C          -6.6080    0.2473    0.5374 C.3     1  UNL1        0.0017
     29 N          -6.0475    1.1823    1.4763 N.3     1  UNL1       -0.3048
     30 C          -6.2033    2.5091    0.9218 C.3     1  UNL1       -0.0127
     31 C          -4.6249    0.8959    1.5768 C.3     1  UNL1        0.0017
     32 C          -4.6048   -0.5931    1.4181 C.3     1  UNL1       -0.0239
     33 C          -3.3182   -1.1642    0.9373 C.3     1  UNL1       -0.0428
     34 H           2.5021   -3.2648    1.2600 H       1  UNL1        0.0660
     35 H           2.7942   -3.8307   -0.3982 H       1  UNL1        0.0660
     36 H           1.8254   -4.8937    0.7639 H       1  UNL1        0.0660
     37 H           3.0148   -1.7945   -0.0589 H       1  UNL1        0.0663
     38 H           4.6015   -0.9846   -0.1997 H       1  UNL1        0.1537
     39 H           5.5637    2.6732   -0.5677 H       1  UNL1        0.0652
     40 H           9.0828   -0.3844    0.9054 H       1  UNL1        0.0662
     41 H           2.6394    3.6779   -2.0535 H       1  UNL1        0.1048
     42 H          -0.8060    0.6462   -1.8171 H       1  UNL1        0.0677
     43 H          -3.2059   -2.6151   -1.3288 H       1  UNL1        0.0699
     44 H          -2.6951   -1.3461   -2.4360 H       1  UNL1        0.0699
     45 H          -2.6177    0.3145   -0.4892 H       1  UNL1        0.0334
     46 H          -4.8546   -0.8923   -1.8427 H       1  UNL1        0.0272
     47 H          -4.7437    0.7875   -1.1009 H       1  UNL1        0.0272
     48 H          -5.8958   -1.7857    0.1105 H       1  UNL1        0.0316
     49 H          -7.0042    0.7151   -0.3657 H       1  UNL1        0.0429
     50 H          -7.4014   -0.3247    1.0853 H       1  UNL1        0.0429
     51 H          -6.2585    3.2677    1.7165 H       1  UNL1        0.0391
     52 H          -5.3882    2.7781    0.2313 H       1  UNL1        0.0391
     53 H          -7.1786    2.4995    0.3687 H       1  UNL1        0.0391
     54 H          -4.2112    1.1977    2.5571 H       1  UNL1        0.0429
     55 H          -4.1109    1.3976    0.7499 H       1  UNL1        0.0429
     56 H          -5.0312   -1.0906    2.3072 H       1  UNL1        0.0316
     57 H          -3.4442   -2.2505    0.8250 H       1  UNL1        0.0272
     58 H          -2.4370   -0.8672    1.5345 H       1  UNL1        0.0272
@<TRIPOS>BOND
     1     1     2    1
     2     2     3    1
     3     3     4   ar
     4     4     5   ar
     5     5     6   ar
     6     6     7    1
     7     7     8    1
     8     8     9   ar
     9     9    10   ar
    10    10    11    1
    11    10    12   ar
    12    12    13    1
    13    12    14   ar
    14    14    15   ar
    15    15    16    1
    16     6    17   ar
    17    17    18   ar
    18    18    19   ar
    19    19    20   ar
    20    20    21   ar
    21    21    22   ar
    22    22    23    1
    23    23    24    1
    24    24    25    1
    25    25    26    1
    26    26    27    1
    27    27    28    1
    28    28    29    1
    29    29    30    1
    30    29    31    1
    31    31    32    1
    32    32    33    1
    33    22     3   ar
    34    33    25    1
    35    20     5   ar
    36    32    27    1
    37    15     8   ar
    38     1    34    1
    39     1    35    1
    40     1    36    1
    41     4    37    1
    42     7    38    1
    43     9    39    1
    44    14    40    1
    45    18    41    1
    46    21    42    1
    47    24    43    1
    48    24    44    1
    49    25    45    1
    50    26    46    1
    51    26    47    1
    52    27    48    1
    53    28    49    1
    54    28    50    1
    55    30    51    1
    56    30    52    1
    57    30    53    1
    58    31    54    1
    59    31    55    1
    60    32    56    1
    61    33    57    1
    62    33    58    1
