
     RDKit          3D

 53 55  0  0  0  0  0  0  0  0999 V2000
    9.2323    1.6410    0.6382 C   0  0  0  0  0  0  0  0  0  0  0  0
    8.5326    0.2953    0.4806 C   0  0  0  0  0  0  0  0  0  0  0  0
    7.9997   -0.7748    0.3591 C   0  0  0  0  0  0  0  0  0  0  0  0
    7.3387   -2.1105    0.1994 C   0  0  0  0  0  0  0  0  0  0  0  0
    6.2645   -2.1114   -0.6879 O   0  0  0  0  0  0  0  0  0  0  0  0
    5.0866   -1.4191   -0.4153 C   0  0  0  0  0  0  0  0  0  0  0  0
    4.1039   -1.4993   -1.3644 C   0  0  0  0  0  0  0  0  0  0  0  0
    2.9099   -0.9346   -1.2718 C   0  0  0  0  0  0  0  0  0  0  0  0
    2.6074   -0.1154    0.0384 C   0  0  0  0  0  0  0  0  0  0  0  0
    1.1448   -0.0099   -0.0177 C   0  0  0  0  0  0  0  0  0  0  0  0
    0.4794    0.4109   -0.9611 O   0  0  0  0  0  0  0  0  0  0  0  0
    0.3034   -0.5259    1.1371 N   0  0  0  0  0  0  0  0  0  0  0  0
   -1.0418   -0.6956    0.7078 C   0  0  0  0  0  0  0  0  0  0  0  0
   -1.0473   -1.7283   -0.3861 C   0  0  0  0  0  0  0  0  0  0  0  0
   -2.2092   -2.1299   -0.9427 C   0  0  0  0  0  0  0  0  0  0  0  0
   -2.0837   -3.0436   -2.0121 F   0  0  0  0  0  0  0  0  0  0  0  0
   -3.3947   -1.6544   -0.5583 C   0  0  0  0  0  0  0  0  0  0  0  0
   -4.5454   -2.1380   -1.0796 F   0  0  0  0  0  0  0  0  0  0  0  0
   -3.4639   -0.6782    0.4632 C   0  0  0  0  0  0  0  0  0  0  0  0
   -4.7765   -0.1134    0.7185 C   0  0  2  0  0  0  0  0  0  0  0  0
   -5.8638   -1.0134    1.2217 C   0  0  0  0  0  0  0  0  0  0  0  0
   -5.5320   -1.5595    2.4310 F   0  0  0  0  0  0  0  0  0  0  0  0
   -5.1837    0.6154   -0.5769 C   0  0  0  0  0  0  0  0  0  0  0  0
   -4.2195    1.8168   -0.7543 C   0  0  1  0  0  0  0  0  0  0  0  0
   -4.2388    2.3140   -2.1340 C   0  0  0  0  0  0  0  0  0  0  0  0
   -5.4546    2.7865   -2.6025 F   0  0  0  0  0  0  0  0  0  0  0  0
   -3.2636    3.2639   -2.3089 F   0  0  0  0  0  0  0  0  0  0  0  0
   -3.8656    1.2333   -2.9677 F   0  0  0  0  0  0  0  0  0  0  0  0
   -4.6211    2.7659    0.2424 O   0  0  0  0  0  0  0  0  0  0  0  0
   -4.6959    2.1519    1.5392 C   0  0  0  0  0  0  0  0  0  0  0  0
   -4.6731    3.1790    2.6421 N   0  0  0  0  0  0  0  0  0  0  0  0
   -4.7492    0.9734    1.7686 N   0  0  0  0  0  0  0  0  0  0  0  0
   -2.2393   -0.2538    1.0450 C   0  0  0  0  0  0  0  0  0  0  0  0
    3.5586   -0.1102    0.7912 N   0  0  0  0  0  0  0  0  0  0  0  0
    4.7969   -0.6841    0.7040 C   0  0  0  0  0  0  0  0  0  0  0  0
    8.9834    2.2664   -0.2684 H   0  0  0  0  0  0  0  0  0  0  0  0
   10.3133    1.3197    0.5664 H   0  0  0  0  0  0  0  0  0  0  0  0
    8.8847    2.1093    1.5260 H   0  0  0  0  0  0  0  0  0  0  0  0
    8.0568   -2.8598    0.0052 H   0  0  0  0  0  0  0  0  0  0  0  0
    6.9569   -2.2670    1.2776 H   0  0  0  0  0  0  0  0  0  0  0  0
    4.3773   -2.1287   -2.2850 H   0  0  0  0  0  0  0  0  0  0  0  0
    2.0815   -0.9386   -1.8793 H   0  0  0  0  0  0  0  0  0  0  0  0
    0.7868   -0.6632    1.9699 H   0  0  0  0  0  0  0  0  0  0  0  0
   -0.0928   -2.0733   -0.6378 H   0  0  0  0  0  0  0  0  0  0  0  0
   -6.7556   -0.3194    1.3849 H   0  0  0  0  0  0  0  0  0  0  0  0
   -6.1286   -1.8332    0.5506 H   0  0  0  0  0  0  0  0  0  0  0  0
   -6.1734    1.0167   -0.4389 H   0  0  0  0  0  0  0  0  0  0  0  0
   -5.1060   -0.0778   -1.4515 H   0  0  0  0  0  0  0  0  0  0  0  0
   -3.2020    1.3900   -0.5210 H   0  0  0  0  0  0  0  0  0  0  0  0
   -4.6848    4.1437    2.3382 H   0  0  0  0  0  0  0  0  0  0  0  0
   -4.6328    2.7911    3.6451 H   0  0  0  0  0  0  0  0  0  0  0  0
   -2.3516    0.5066    1.8711 H   0  0  0  0  0  0  0  0  0  0  0  0
    5.4910   -0.5265    1.4874 H   0  0  0  0  0  0  0  0  0  0  0  0
  1  2  1  0
  2  3  3  0
  3  4  1  0
  4  5  1  0
  5  6  1  0
  6  7  2  0
  7  8  1  0
  8  9  2  0
  9 10  1  0
 10 11  2  0
 10 12  1  0
 12 13  1  0
 13 14  2  0
 14 15  1  0
 15 16  1  0
 15 17  2  0
 17 18  1  0
 17 19  1  0
 19 20  1  0
 20 21  1  1
 21 22  1  0
 20 23  1  0
 23 24  1  0
 24 25  1  0
 25 26  1  0
 25 27  1  0
 25 28  1  0
 24 29  1  0
 29 30  1  0
 30 31  1  0
 30 32  2  0
 19 33  2  0
  9 34  1  0
 34 35  2  0
 35  6  1  0
 33 13  1  0
 32 20  1  0
  1 36  1  0
  1 37  1  0
  1 38  1  0
  4 39  1  0
  4 40  1  0
  7 41  1  0
  8 42  1  0
 12 43  1  0
 14 44  1  0
 21 45  1  0
 21 46  1  0
 23 47  1  0
 23 48  1  0
 24 49  1  1
 31 50  1  0
 31 51  1  0
 33 52  1  0
 35 53  1  0
M  END
$$$$
