@<TRIPOS>MOLECULE
*****
 53 55 0 0 0
SMALL
GASTEIGER

@<TRIPOS>ATOM
      1 C           9.2323    1.6410    0.6382 C.3     1  UNL1       -0.0025
      2 C           8.5326    0.2953    0.4806 C.1     1  UNL1       -0.1022
      3 C           7.9997   -0.7748    0.3591 C.1     1  UNL1       -0.0617
      4 C           7.3387   -2.1105    0.1994 C.3     1  UNL1        0.1499
      5 O           6.2645   -2.1114   -0.6879 O.3     1  UNL1       -0.4780
      6 C           5.0866   -1.4191   -0.4153 C.ar    1  UNL1        0.1399
      7 C           4.1039   -1.4993   -1.3644 C.ar    1  UNL1       -0.0162
      8 C           2.9099   -0.9346   -1.2718 C.ar    1  UNL1       -0.0277
      9 C           2.6074   -0.1154    0.0384 C.ar    1  UNL1        0.1259
     10 C           1.1448   -0.0099   -0.0177 C.2     1  UNL1        0.2666
     11 O           0.4794    0.4109   -0.9611 O.2     1  UNL1       -0.2682
     12 N           0.3034   -0.5259    1.1371 N.am    1  UNL1       -0.2802
     13 C          -1.0418   -0.6956    0.7078 C.ar    1  UNL1        0.0369
     14 C          -1.0473   -1.7283   -0.3861 C.ar    1  UNL1       -0.0023
     15 C          -2.2092   -2.1299   -0.9427 C.ar    1  UNL1        0.1605
     16 F          -2.0837   -3.0436   -2.0121 F       1  UNL1       -0.2024
     17 C          -3.3947   -1.6544   -0.5583 C.ar    1  UNL1        0.1640
     18 F          -4.5454   -2.1380   -1.0796 F       1  UNL1       -0.2021
     19 C          -3.4639   -0.6782    0.4632 C.ar    1  UNL1        0.0224
     20 C          -4.7765   -0.1134    0.7185 C.3     1  UNL1        0.1259
     21 C          -5.8638   -1.0134    1.2217 C.3     1  UNL1        0.1196
     22 F          -5.5320   -1.5595    2.4310 F       1  UNL1       -0.2462
     23 C          -5.1837    0.6154   -0.5769 C.3     1  UNL1        0.0251
     24 C          -4.2195    1.8168   -0.7543 C.3     1  UNL1        0.1998
     25 C          -4.2388    2.3140   -2.1340 C.3     1  UNL1        0.4266
     26 F          -5.4546    2.7865   -2.6025 F       1  UNL1       -0.1669
     27 F          -3.2636    3.2639   -2.3089 F       1  UNL1       -0.1669
     28 F          -3.8656    1.2333   -2.9677 F       1  UNL1       -0.1669
     29 O          -4.6211    2.7659    0.2424 O.2     1  UNL1       -0.4534
     30 C          -4.6959    2.1519    1.5392 C.2     1  UNL1        0.2766
     31 N          -4.6731    3.1790    2.6421 N.pl3   1  UNL1       -0.3134
     32 N          -4.7492    0.9734    1.7686 N.2     1  UNL1       -0.2228
     33 C          -2.2393   -0.2538    1.0450 C.ar    1  UNL1       -0.0320
     34 N           3.5586   -0.1102    0.7912 N.ar    1  UNL1       -0.2467
     35 C           4.7969   -0.6841    0.7040 C.ar    1  UNL1        0.0701
     36 H           8.9834    2.2664   -0.2684 H       1  UNL1        0.0362
     37 H          10.3133    1.3197    0.5664 H       1  UNL1        0.0362
     38 H           8.8847    2.1093    1.5260 H       1  UNL1        0.0362
     39 H           8.0568   -2.8598    0.0052 H       1  UNL1        0.0837
     40 H           6.9569   -2.2670    1.2776 H       1  UNL1        0.0837
     41 H           4.3773   -2.1287   -2.2850 H       1  UNL1        0.0655
     42 H           2.0815   -0.9386   -1.8793 H       1  UNL1        0.0641
     43 H           0.7868   -0.6632    1.9699 H       1  UNL1        0.1552
     44 H          -0.0928   -2.0733   -0.6378 H       1  UNL1        0.0666
     45 H          -6.7556   -0.3194    1.3849 H       1  UNL1        0.0643
     46 H          -6.1286   -1.8332    0.5506 H       1  UNL1        0.0643
     47 H          -6.1734    1.0167   -0.4389 H       1  UNL1        0.0331
     48 H          -5.1060   -0.0778   -1.4515 H       1  UNL1        0.0331
     49 H          -3.2020    1.3900   -0.5210 H       1  UNL1        0.0826
     50 H          -4.6848    4.1437    2.3382 H       1  UNL1        0.1466
     51 H          -4.6328    2.7911    3.6451 H       1  UNL1        0.1466
     52 H          -2.3516    0.5066    1.8711 H       1  UNL1        0.0640
     53 H           5.4910   -0.5265    1.4874 H       1  UNL1        0.0867
@<TRIPOS>BOND
     1     1     2    1
     2     2     3    3
     3     3     4    1
     4     4     5    1
     5     5     6    1
     6     6     7   ar
     7     7     8   ar
     8     8     9   ar
     9     9    10    1
    10    10    11    2
    11    10    12   am
    12    12    13    1
    13    13    14   ar
    14    14    15   ar
    15    15    16    1
    16    15    17   ar
    17    17    18    1
    18    17    19   ar
    19    19    20    1
    20    20    21    1
    21    21    22    1
    22    20    23    1
    23    23    24    1
    24    24    25    1
    25    25    26    1
    26    25    27    1
    27    25    28    1
    28    24    29    1
    29    29    30    1
    30    30    31    1
    31    30    32    2
    32    19    33   ar
    33     9    34   ar
    34    34    35   ar
    35    35     6   ar
    36    33    13   ar
    37    32    20    1
    38     1    36    1
    39     1    37    1
    40     1    38    1
    41     4    39    1
    42     4    40    1
    43     7    41    1
    44     8    42    1
    45    12    43    1
    46    14    44    1
    47    21    45    1
    48    21    46    1
    49    23    47    1
    50    23    48    1
    51    24    49    1
    52    31    50    1
    53    31    51    1
    54    33    52    1
    55    35    53    1
