@<TRIPOS>MOLECULE
*****
 31 32 0 0 0
SMALL
GASTEIGER

@<TRIPOS>ATOM
      1 C          -5.2901    0.1044    0.7551 C.3     1  UNL1       -0.0014
      2 C          -3.8460    0.4290    0.7804 C.2     1  UNL1        0.1602
      3 O          -3.4328    1.4202    1.4253 O.2     1  UNL1       -0.2924
      4 C          -2.9055   -0.4100    0.0513 C.ar    1  UNL1        0.0206
      5 C          -3.3720   -1.5038   -0.6589 C.ar    1  UNL1       -0.0510
      6 C          -2.4778   -2.2760   -1.3340 C.ar    1  UNL1       -0.0576
      7 C          -1.1125   -1.9990   -1.3313 C.ar    1  UNL1       -0.0199
      8 C          -0.6424   -0.9137   -0.6277 C.ar    1  UNL1        0.1217
      9 O           0.7355   -0.6388   -0.6282 O.3     1  UNL1       -0.4874
     10 C           1.1574    0.4799    0.1060 C.3     1  UNL1        0.1146
     11 C           2.6101    0.6954    0.0527 C.ar    1  UNL1       -0.0103
     12 C           3.1906    1.4795   -0.9284 C.ar    1  UNL1       -0.0540
     13 C           4.5540    1.6967   -0.9990 C.ar    1  UNL1       -0.0430
     14 C           5.3914    1.1197   -0.0655 C.ar    1  UNL1        0.0410
     15 CL          7.1309    1.3940   -0.1516 Cl      1  UNL1       -0.0835
     16 C           4.8428    0.3260    0.9342 C.ar    1  UNL1       -0.0430
     17 C           3.4782    0.1291    0.9767 C.ar    1  UNL1       -0.0540
     18 C          -1.5523   -0.1418    0.0495 C.ar    1  UNL1       -0.0095
     19 H          -5.9045    0.9439    1.1335 H       1  UNL1        0.0309
     20 H          -5.5939   -0.0801   -0.2943 H       1  UNL1        0.0309
     21 H          -5.4920   -0.8234    1.3650 H       1  UNL1        0.0309
     22 H          -4.4274   -1.7218   -0.6637 H       1  UNL1        0.0625
     23 H          -2.8349   -3.1264   -1.8870 H       1  UNL1        0.0619
     24 H          -0.4595   -2.6553   -1.8899 H       1  UNL1        0.0654
     25 H           0.6055    1.3662   -0.2919 H       1  UNL1        0.0748
     26 H           0.8147    0.3413    1.1645 H       1  UNL1        0.0748
     27 H           2.5079    1.9289   -1.6605 H       1  UNL1        0.0622
     28 H           4.9902    2.3228   -1.7870 H       1  UNL1        0.0632
     29 H           5.5216   -0.1143    1.6532 H       1  UNL1        0.0632
     30 H           3.0335   -0.4890    1.7522 H       1  UNL1        0.0622
     31 H          -1.2208    0.7163    0.6116 H       1  UNL1        0.0661
@<TRIPOS>BOND
     1     1     2    1
     2     2     3    2
     3     2     4    1
     4     4     5   ar
     5     5     6   ar
     6     6     7   ar
     7     7     8   ar
     8     8     9    1
     9     9    10    1
    10    10    11    1
    11    11    12   ar
    12    12    13   ar
    13    13    14   ar
    14    14    15    1
    15    14    16   ar
    16    16    17   ar
    17     8    18   ar
    18    18     4   ar
    19    17    11   ar
    20     1    19    1
    21     1    20    1
    22     1    21    1
    23     5    22    1
    24     6    23    1
    25     7    24    1
    26    10    25    1
    27    10    26    1
    28    12    27    1
    29    13    28    1
    30    16    29    1
    31    17    30    1
    32    18    31    1
