@<TRIPOS>MOLECULE
*****
 48 49 0 0 0
SMALL
GASTEIGER

@<TRIPOS>ATOM
      1 C          -3.8513    0.4961   -2.3115 C.3     1  UNL1        0.0788
      2 O          -3.2366    0.4718   -1.0411 O.3     1  UNL1       -0.4948
      3 C          -1.8624    0.5822   -0.9706 C.ar    1  UNL1        0.1236
      4 C          -1.1185    0.7179   -2.1493 C.ar    1  UNL1       -0.0185
      5 C           0.2505    0.8307   -2.1035 C.ar    1  UNL1       -0.0429
      6 C           0.8683    0.8078   -0.8743 C.ar    1  UNL1        0.0254
      7 C           2.3192    0.9249   -0.7652 C.1     1  UNL1       -0.0663
      8 C           3.4980    1.0358   -0.6820 C.1     1  UNL1       -0.0970
      9 C           4.9789    1.1950   -0.5605 C.3     1  UNL1        0.0095
     10 C           5.3621    1.1323    0.8739 C.3     1  UNL1       -0.0417
     11 C           5.0340   -0.1545    1.5229 C.3     1  UNL1       -0.0421
     12 C           5.6899   -1.3825    1.0371 C.3     1  UNL1        0.0448
     13 C           5.4527   -1.8254   -0.3278 C.2     1  UNL1        0.3047
     14 O           4.3230   -2.0057   -0.8502 O.2     1  UNL1       -0.2510
     15 O           6.5273   -2.1012   -1.2167 O.3     1  UNL1       -0.4806
     16 C           0.1237    0.6737    0.2782 C.ar    1  UNL1       -0.0394
     17 C          -1.2545    0.5579    0.2562 C.ar    1  UNL1       -0.0001
     18 C          -2.0155    0.4016    1.4857 C.3     1  UNL1        0.0058
     19 C          -3.4437    0.1343    1.3633 C.ar    1  UNL1        0.0148
     20 C          -4.3505    1.1526    1.5982 C.ar    1  UNL1        0.0379
     21 N          -5.6709    0.9319    1.5028 N.ar    1  UNL1       -0.2227
     22 C          -6.1703   -0.2791    1.1772 C.ar    1  UNL1        0.2142
     23 N          -7.5867   -0.5167    1.0773 N.pl3   1  UNL1       -0.3274
     24 N          -5.2851   -1.2614    0.9507 N.ar    1  UNL1       -0.1999
     25 C          -3.9608   -1.1044    1.0297 C.ar    1  UNL1        0.1247
     26 N          -3.0359   -2.1498    0.7865 N.pl3   1  UNL1       -0.3428
     27 H          -3.5149    1.4342   -2.8103 H       1  UNL1        0.0660
     28 H          -4.9362    0.3980   -2.2711 H       1  UNL1        0.0660
     29 H          -3.3926   -0.3503   -2.9044 H       1  UNL1        0.0660
     30 H          -1.5939    0.7376   -3.1184 H       1  UNL1        0.0654
     31 H           0.8134    0.9339   -3.0290 H       1  UNL1        0.0631
     32 H           5.2340    2.2345   -0.9310 H       1  UNL1        0.0397
     33 H           5.4239    0.4321   -1.2133 H       1  UNL1        0.0397
     34 H           6.4071    1.4771    1.0620 H       1  UNL1        0.0274
     35 H           4.7330    1.9314    1.3881 H       1  UNL1        0.0274
     36 H           3.9023   -0.2930    1.4494 H       1  UNL1        0.0271
     37 H           5.1806   -0.0883    2.6392 H       1  UNL1        0.0271
     38 H           6.7950   -1.3703    1.2845 H       1  UNL1        0.0377
     39 H           5.3158   -2.2280    1.7041 H       1  UNL1        0.0377
     40 H           6.4316   -1.8582   -2.1916 H       1  UNL1        0.2951
     41 H           0.6444    0.6608    1.2330 H       1  UNL1        0.0634
     42 H          -1.8905    1.2817    2.1913 H       1  UNL1        0.0364
     43 H          -1.5861   -0.4490    2.1173 H       1  UNL1        0.0364
     44 H          -3.9821    2.1562    1.8679 H       1  UNL1        0.0834
     45 H          -7.9980   -0.6292    0.1482 H       1  UNL1        0.1452
     46 H          -8.1781   -0.5735    1.9245 H       1  UNL1        0.1452
     47 H          -3.2532   -2.8596    0.0585 H       1  UNL1        0.1437
     48 H          -2.1402   -2.2439    1.3060 H       1  UNL1        0.1437
@<TRIPOS>BOND
     1     1     2    1
     2     2     3    1
     3     3     4   ar
     4     4     5   ar
     5     5     6   ar
     6     6     7    1
     7     7     8    3
     8     8     9    1
     9     9    10    1
    10    10    11    1
    11    11    12    1
    12    12    13    1
    13    13    14    2
    14    13    15    1
    15     6    16   ar
    16    16    17   ar
    17    17    18    1
    18    18    19    1
    19    19    20   ar
    20    20    21   ar
    21    21    22   ar
    22    22    23    1
    23    22    24   ar
    24    24    25   ar
    25    25    26    1
    26    17     3   ar
    27    25    19   ar
    28     1    27    1
    29     1    28    1
    30     1    29    1
    31     4    30    1
    32     5    31    1
    33     9    32    1
    34     9    33    1
    35    10    34    1
    36    10    35    1
    37    11    36    1
    38    11    37    1
    39    12    38    1
    40    12    39    1
    41    15    40    1
    42    16    41    1
    43    18    42    1
    44    18    43    1
    45    20    44    1
    46    23    45    1
    47    23    46    1
    48    26    47    1
    49    26    48    1
