@<TRIPOS>MOLECULE
*****
 41 41 0 0 0
SMALL
GASTEIGER

@<TRIPOS>ATOM
      1 C          -3.6756   -1.0315    0.0029 C.3     1  UNL1        0.0861
      2 O          -3.6589   -1.3475    1.3708 O.3     1  UNL1       -0.3891
      3 C          -2.5161   -1.7977   -0.6203 C.3     1  UNL1        0.0066
      4 C          -1.1826   -1.2457   -0.3029 C.3     1  UNL1        0.1084
      5 O          -0.4621   -1.1869   -1.4976 O.3     1  UNL1       -0.3867
      6 C          -1.1006    0.0536    0.4093 C.3     1  UNL1        0.1855
      7 O          -0.3534   -0.0702    1.5685 O.3     1  UNL1       -0.3488
      8 C           0.7633    0.7109    1.6488 C.3     1  UNL1        0.0508
      9 C           1.7883    0.3938    0.5315 C.3     1  UNL1       -0.0294
     10 C           2.9380    1.3157    0.7568 C.3     1  UNL1       -0.0510
     11 C           4.0574    1.2709   -0.1958 C.3     1  UNL1       -0.0532
     12 C           4.7859   -0.0246   -0.3225 C.3     1  UNL1       -0.0559
     13 C           3.9509   -1.1449   -0.8509 C.3     1  UNL1       -0.0653
     14 O          -2.3112    0.6069    0.7879 O.3     1  UNL1       -0.3407
     15 C          -3.2373    0.4236   -0.2050 C.3     1  UNL1        0.1106
     16 C          -4.4112    1.3601   -0.1600 C.3     1  UNL1        0.0729
     17 O          -5.1445    1.2785    0.9998 O.3     1  UNL1       -0.3924
     18 H          -4.6174   -1.2493   -0.4850 H       1  UNL1        0.0621
     19 H          -3.2822   -2.2559    1.4837 H       1  UNL1        0.2099
     20 H          -2.7395   -1.7836   -1.7205 H       1  UNL1        0.0318
     21 H          -2.6499   -2.8701   -0.3231 H       1  UNL1        0.0318
     22 H          -0.6461   -2.0385    0.2926 H       1  UNL1        0.0645
     23 H          -0.9152   -0.6473   -2.1946 H       1  UNL1        0.2100
     24 H          -0.6239    0.8095   -0.2418 H       1  UNL1        0.0936
     25 H           1.2896    0.5819    2.6083 H       1  UNL1        0.0561
     26 H           0.4534    1.7656    1.4574 H       1  UNL1        0.0561
     27 H           1.3505    0.5967   -0.4432 H       1  UNL1        0.0287
     28 H           2.0170   -0.6819    0.6952 H       1  UNL1        0.0287
     29 H           2.5362    2.3721    0.7359 H       1  UNL1        0.0266
     30 H           3.3420    1.1473    1.8081 H       1  UNL1        0.0266
     31 H           3.6682    1.5900   -1.2115 H       1  UNL1        0.0265
     32 H           4.7694    2.1016    0.0975 H       1  UNL1        0.0265
     33 H           5.6668    0.1247   -1.0116 H       1  UNL1        0.0263
     34 H           5.2713   -0.2925    0.6594 H       1  UNL1        0.0263
     35 H           3.7824   -1.9282   -0.0847 H       1  UNL1        0.0230
     36 H           3.0435   -0.7986   -1.3697 H       1  UNL1        0.0230
     37 H           4.5360   -1.7038   -1.6691 H       1  UNL1        0.0230
     38 H          -2.7356    0.5638   -1.1854 H       1  UNL1        0.0646
     39 H          -5.0877    1.0235   -0.9994 H       1  UNL1        0.0584
     40 H          -4.0590    2.3587   -0.4276 H       1  UNL1        0.0584
     41 H          -4.6003    1.6492    1.7385 H       1  UNL1        0.2095
@<TRIPOS>BOND
     1     1     2    1
     2     1     3    1
     3     3     4    1
     4     4     5    1
     5     4     6    1
     6     6     7    1
     7     7     8    1
     8     8     9    1
     9     9    10    1
    10    10    11    1
    11    11    12    1
    12    12    13    1
    13     6    14    1
    14    14    15    1
    15    15    16    1
    16    16    17    1
    17    15     1    1
    18     1    18    1
    19     2    19    1
    20     3    20    1
    21     3    21    1
    22     4    22    1
    23     5    23    1
    24     6    24    1
    25     8    25    1
    26     8    26    1
    27     9    27    1
    28     9    28    1
    29    10    29    1
    30    10    30    1
    31    11    31    1
    32    11    32    1
    33    12    33    1
    34    12    34    1
    35    13    35    1
    36    13    36    1
    37    13    37    1
    38    15    38    1
    39    16    39    1
    40    16    40    1
    41    17    41    1
