
     RDKit          3D

 56 58  0  0  0  0  0  0  0  0999 V2000
    1.4285   -0.4731   -0.7618 C   0  0  1  0  0  0  0  0  0  0  0  0
    0.2199   -0.9466   -1.5354 C   0  0  0  0  0  0  0  0  0  0  0  0
   -0.7737    0.0599   -1.6400 N   0  0  0  0  0  0  0  0  0  0  0  0
   -0.4134    1.2077   -2.4690 C   0  0  0  0  0  0  0  0  0  0  0  0
   -2.0540    0.0483   -1.0250 C   0  0  0  0  0  0  0  0  0  0  0  0
   -2.4514   -1.0041   -0.2279 C   0  0  0  0  0  0  0  0  0  0  0  0
   -3.7026   -1.0303    0.3796 C   0  0  0  0  0  0  0  0  0  0  0  0
   -4.1814   -2.0454    1.1937 O   0  0  0  0  0  0  0  0  0  0  0  0
   -3.3222   -3.1391    1.4222 C   0  0  0  0  0  0  0  0  0  0  0  0
   -4.5731    0.0413    0.1714 C   0  0  0  0  0  0  0  0  0  0  0  0
   -5.8391    0.1511    0.7071 O   0  0  0  0  0  0  0  0  0  0  0  0
   -6.0156    0.7685    1.9507 C   0  0  0  0  0  0  0  0  0  0  0  0
   -4.1944    1.1092   -0.6257 C   0  0  0  0  0  0  0  0  0  0  0  0
   -5.0284    2.1983   -0.8607 O   0  0  0  0  0  0  0  0  0  0  0  0
   -4.5245    3.2271   -1.6943 C   0  0  0  0  0  0  0  0  0  0  0  0
   -2.9373    1.0847   -1.2066 C   0  0  0  0  0  0  0  0  0  0  0  0
    1.0203   -0.0789    0.6351 C   0  0  0  0  0  0  0  0  0  0  0  0
    2.1716    0.4855    1.4312 C   0  0  0  0  0  0  0  0  0  0  0  0
    3.4291    0.0788    0.7524 C   0  0  0  0  0  0  0  0  0  0  0  0
    3.7214   -0.7970   -0.1963 C   0  0  0  0  0  0  0  0  0  0  0  0
    2.5075   -1.5330   -0.6842 C   0  0  0  0  0  0  0  0  0  0  0  0
    5.0964   -0.9544   -0.6509 C   0  0  0  0  0  0  0  0  0  0  0  0
    5.2666   -1.9383   -1.6836 N   0  0  0  0  0  0  0  0  0  0  0  0
    6.0478   -0.2602   -0.1536 N   0  0  0  0  0  0  0  0  0  0  0  0
    5.9098    0.7249    0.8719 C   0  0  2  0  0  0  0  0  0  0  0  0
    6.7326    0.4502    2.0252 N   0  0  0  0  0  0  0  0  0  0  0  0
    4.5178    0.8502    1.3038 N   0  0  0  0  0  0  0  0  0  0  0  0
    1.8860    0.3723   -1.3175 H   0  0  0  0  0  0  0  0  0  0  0  0
   -0.0795   -1.8986   -1.0605 H   0  0  0  0  0  0  0  0  0  0  0  0
    0.5189   -1.2307   -2.5743 H   0  0  0  0  0  0  0  0  0  0  0  0
   -1.1478    1.2551   -3.3224 H   0  0  0  0  0  0  0  0  0  0  0  0
    0.6266    1.2309   -2.7814 H   0  0  0  0  0  0  0  0  0  0  0  0
   -0.5885    2.1696   -1.9024 H   0  0  0  0  0  0  0  0  0  0  0  0
   -1.8362   -1.8484   -0.0308 H   0  0  0  0  0  0  0  0  0  0  0  0
   -3.0287   -3.6029    0.4581 H   0  0  0  0  0  0  0  0  0  0  0  0
   -3.8609   -3.8512    2.0858 H   0  0  0  0  0  0  0  0  0  0  0  0
   -2.3906   -2.8049    1.9404 H   0  0  0  0  0  0  0  0  0  0  0  0
   -5.9884    0.0201    2.7668 H   0  0  0  0  0  0  0  0  0  0  0  0
   -5.2795    1.5540    2.1604 H   0  0  0  0  0  0  0  0  0  0  0  0
   -7.0245    1.2409    1.9983 H   0  0  0  0  0  0  0  0  0  0  0  0
   -5.3284    3.9731   -1.8557 H   0  0  0  0  0  0  0  0  0  0  0  0
   -4.2088    2.8348   -2.6914 H   0  0  0  0  0  0  0  0  0  0  0  0
   -3.6639    3.6602   -1.1374 H   0  0  0  0  0  0  0  0  0  0  0  0
   -2.6086    1.9014   -1.8356 H   0  0  0  0  0  0  0  0  0  0  0  0
    0.2118    0.6702    0.5500 H   0  0  0  0  0  0  0  0  0  0  0  0
    0.6858   -0.9799    1.2033 H   0  0  0  0  0  0  0  0  0  0  0  0
    2.0577    1.5987    1.4301 H   0  0  0  0  0  0  0  0  0  0  0  0
    2.1461    0.1571    2.4893 H   0  0  0  0  0  0  0  0  0  0  0  0
    2.2368   -2.3085    0.0790 H   0  0  0  0  0  0  0  0  0  0  0  0
    2.6826   -2.0357   -1.6315 H   0  0  0  0  0  0  0  0  0  0  0  0
    5.2169   -2.9518   -1.4285 H   0  0  0  0  0  0  0  0  0  0  0  0
    5.4432   -1.9499   -2.7211 H   0  0  0  0  0  0  0  0  0  0  0  0
    6.2082    1.6994    0.4305 H   0  0  0  0  0  0  0  0  0  0  0  0
    7.5644   -0.1068    1.7377 H   0  0  0  0  0  0  0  0  0  0  0  0
    6.9847    1.3624    2.4668 H   0  0  0  0  0  0  0  0  0  0  0  0
    4.5064    1.5838    2.0565 H   0  0  0  0  0  0  0  0  0  0  0  0
  1  2  1  0
  2  3  1  0
  3  4  1  0
  3  5  1  0
  5  6  2  0
  6  7  1  0
  7  8  1  0
  8  9  1  0
  7 10  2  0
 10 11  1  0
 11 12  1  0
 10 13  1  0
 13 14  1  0
 14 15  1  0
 13 16  2  0
  1 17  1  0
 17 18  1  0
 18 19  1  0
 19 20  2  0
 20 21  1  0
 20 22  1  0
 22 23  1  0
 22 24  2  0
 24 25  1  0
 25 26  1  0
 25 27  1  0
 21  1  1  0
 16  5  1  0
 27 19  1  0
  1 28  1  6
  2 29  1  0
  2 30  1  0
  4 31  1  0
  4 32  1  0
  4 33  1  0
  6 34  1  0
  9 35  1  0
  9 36  1  0
  9 37  1  0
 12 38  1  0
 12 39  1  0
 12 40  1  0
 15 41  1  0
 15 42  1  0
 15 43  1  0
 16 44  1  0
 17 45  1  0
 17 46  1  0
 18 47  1  0
 18 48  1  0
 21 49  1  0
 21 50  1  0
 23 51  1  0
 23 52  1  0
 25 53  1  6
 26 54  1  0
 26 55  1  0
 27 56  1  0
M  END
$$$$
