@<TRIPOS>MOLECULE
*****
 60 63 0 0 0
SMALL
GASTEIGER

@<TRIPOS>ATOM
      1 C          -4.4007    1.2877    0.5966 C.3     1  UNL1        0.0699
      2 N          -4.1683   -0.1032    0.9316 N.pl3   1  UNL1       -0.2192
      3 C          -2.9579   -0.5682    1.5581 C.3     1  UNL1        0.1056
      4 C          -1.7548   -0.2815    0.7372 C.ar    1  UNL1       -0.0081
      5 C          -1.0225    0.8655    0.8375 C.ar    1  UNL1       -0.0543
      6 C           0.0962    1.0691    0.0350 C.ar    1  UNL1       -0.0492
      7 C           0.5129    0.1321   -0.8889 C.ar    1  UNL1        0.0370
      8 C           1.6731    0.3110   -1.7405 C.2     1  UNL1        0.2483
      9 O           1.9702   -0.6024   -2.5527 O.2     1  UNL1       -0.2699
     10 N           2.5120    1.4441   -1.7345 N.am    1  UNL1       -0.2808
     11 C           3.6424    1.5875   -2.5834 C.ar    1  UNL1        0.0459
     12 C           3.5941    2.1589   -3.8372 C.ar    1  UNL1       -0.0384
     13 C           4.7036    2.2853   -4.6383 C.ar    1  UNL1       -0.0416
     14 C           5.9156    1.8261   -4.1795 C.ar    1  UNL1        0.0418
     15 CL          7.3707    1.9546   -5.1469 Cl      1  UNL1       -0.0835
     16 C           6.0078    1.2420   -2.9180 C.ar    1  UNL1       -0.0295
     17 C           4.8558    1.1317   -2.1329 C.ar    1  UNL1        0.0596
     18 C           4.9641    0.5208   -0.8207 C.2     1  UNL1        0.2511
     19 O           3.9073    0.4275   -0.1203 O.2     1  UNL1       -0.2697
     20 N           6.1309    0.0122   -0.2302 N.am    1  UNL1       -0.2663
     21 C           6.1709   -0.5782    1.0673 C.ar    1  UNL1        0.1252
     22 C           5.9720   -1.9290    1.2524 C.ar    1  UNL1       -0.0201
     23 C           6.0127   -2.4957    2.5199 C.ar    1  UNL1       -0.0387
     24 C           6.2553   -1.7096    3.6287 C.ar    1  UNL1        0.0592
     25 CL          6.3160   -2.3841    5.2539 Cl      1  UNL1       -0.0820
     26 C           6.4505   -0.3541    3.4000 C.ar    1  UNL1        0.0480
     27 N           6.4066    0.1790    2.1537 N.ar    1  UNL1       -0.2387
     28 C          -0.2475   -1.0157   -0.9663 C.ar    1  UNL1       -0.0492
     29 C          -1.3586   -1.2346   -0.1797 C.ar    1  UNL1       -0.0543
     30 C          -5.1883   -1.0381    0.6233 C.2     1  UNL1        0.3123
     31 N          -4.7896   -2.2355    0.2710 N.2     1  UNL1       -0.0992
     32 C          -6.5959   -0.7457    0.6765 C.ar    1  UNL1        0.0650
     33 C          -7.4822   -1.3793   -0.1454 C.ar    1  UNL1       -0.0469
     34 C          -8.8453   -1.1021   -0.1005 C.ar    1  UNL1       -0.0610
     35 C          -9.3086   -0.1602    0.8014 C.ar    1  UNL1       -0.0617
     36 C          -8.4314    0.4894    1.6385 C.ar    1  UNL1       -0.0610
     37 C          -7.0665    0.1914    1.5721 C.ar    1  UNL1       -0.0469
     38 H          -4.4175    1.8533    1.5471 H       1  UNL1        0.0689
     39 H          -3.6416    1.6887   -0.1048 H       1  UNL1        0.0689
     40 H          -5.3821    1.4302    0.1033 H       1  UNL1        0.0689
     41 H          -2.8710   -0.1391    2.5802 H       1  UNL1        0.0778
     42 H          -3.0288   -1.6632    1.6950 H       1  UNL1        0.0778
     43 H          -1.3507    1.6063    1.5669 H       1  UNL1        0.0622
     44 H           0.6513    2.0016    0.1499 H       1  UNL1        0.0625
     45 H           2.2691    2.2135   -1.0564 H       1  UNL1        0.1552
     46 H           2.6411    2.5145   -4.1855 H       1  UNL1        0.0637
     47 H           4.6770    2.7305   -5.6203 H       1  UNL1        0.0633
     48 H           6.9774    0.8922   -2.5902 H       1  UNL1        0.0640
     49 H           7.0212    0.0661   -0.7647 H       1  UNL1        0.1566
     50 H           5.7836   -2.5178    0.3586 H       1  UNL1        0.0652
     51 H           5.8546   -3.5500    2.6373 H       1  UNL1        0.0634
     52 H           6.6410    0.2610    4.2733 H       1  UNL1        0.0845
     53 H           0.0706   -1.7714   -1.6966 H       1  UNL1        0.0625
     54 H          -1.9034   -2.1774   -0.3094 H       1  UNL1        0.0622
     55 H          -5.4851   -2.9634    0.0334 H       1  UNL1        0.3633
     56 H          -7.1285   -2.1151   -0.8515 H       1  UNL1        0.0626
     57 H          -9.5701   -1.5856   -0.7365 H       1  UNL1        0.0618
     58 H         -10.3616    0.0716    0.8545 H       1  UNL1        0.0618
     59 H          -8.8318    1.2166    2.3271 H       1  UNL1        0.0618
     60 H          -6.4373    0.7381    2.2570 H       1  UNL1        0.0626
@<TRIPOS>BOND
     1     1     2    1
     2     2     3    1
     3     3     4    1
     4     4     5   ar
     5     5     6   ar
     6     6     7   ar
     7     7     8    1
     8     8     9    2
     9     8    10   am
    10    10    11    1
    11    11    12   ar
    12    12    13   ar
    13    13    14   ar
    14    14    15    1
    15    14    16   ar
    16    16    17   ar
    17    17    18    1
    18    18    19    2
    19    18    20   am
    20    20    21    1
    21    21    22   ar
    22    22    23   ar
    23    23    24   ar
    24    24    25    1
    25    24    26   ar
    26    26    27   ar
    27     7    28   ar
    28    28    29   ar
    29     2    30    1
    30    30    31    2
    31    30    32    1
    32    32    33   ar
    33    33    34   ar
    34    34    35   ar
    35    35    36   ar
    36    36    37   ar
    37    29     4   ar
    38    37    32   ar
    39    17    11   ar
    40    27    21   ar
    41     1    38    1
    42     1    39    1
    43     1    40    1
    44     3    41    1
    45     3    42    1
    46     5    43    1
    47     6    44    1
    48    10    45    1
    49    12    46    1
    50    13    47    1
    51    16    48    1
    52    20    49    1
    53    22    50    1
    54    23    51    1
    55    26    52    1
    56    28    53    1
    57    29    54    1
    58    31    55    1
    59    33    56    1
    60    34    57    1
    61    35    58    1
    62    36    59    1
    63    37    60    1
