
     RDKit          3D

 60 63  0  0  0  0  0  0  0  0999 V2000
   -4.4007    1.2877    0.5966 C   0  0  0  0  0  0  0  0  0  0  0  0
   -4.1683   -0.1032    0.9316 N   0  0  0  0  0  0  0  0  0  0  0  0
   -2.9579   -0.5682    1.5581 C   0  0  0  0  0  0  0  0  0  0  0  0
   -1.7548   -0.2815    0.7372 C   0  0  0  0  0  0  0  0  0  0  0  0
   -1.0225    0.8655    0.8375 C   0  0  0  0  0  0  0  0  0  0  0  0
    0.0962    1.0691    0.0350 C   0  0  0  0  0  0  0  0  0  0  0  0
    0.5129    0.1321   -0.8889 C   0  0  0  0  0  0  0  0  0  0  0  0
    1.6731    0.3110   -1.7405 C   0  0  0  0  0  0  0  0  0  0  0  0
    1.9702   -0.6024   -2.5527 O   0  0  0  0  0  0  0  0  0  0  0  0
    2.5120    1.4441   -1.7345 N   0  0  0  0  0  0  0  0  0  0  0  0
    3.6424    1.5875   -2.5834 C   0  0  0  0  0  0  0  0  0  0  0  0
    3.5941    2.1589   -3.8372 C   0  0  0  0  0  0  0  0  0  0  0  0
    4.7036    2.2853   -4.6383 C   0  0  0  0  0  0  0  0  0  0  0  0
    5.9156    1.8261   -4.1795 C   0  0  0  0  0  0  0  0  0  0  0  0
    7.3707    1.9546   -5.1469 Cl  0  0  0  0  0  0  0  0  0  0  0  0
    6.0078    1.2420   -2.9180 C   0  0  0  0  0  0  0  0  0  0  0  0
    4.8558    1.1317   -2.1329 C   0  0  0  0  0  0  0  0  0  0  0  0
    4.9641    0.5208   -0.8207 C   0  0  0  0  0  0  0  0  0  0  0  0
    3.9073    0.4275   -0.1203 O   0  0  0  0  0  0  0  0  0  0  0  0
    6.1309    0.0122   -0.2302 N   0  0  0  0  0  0  0  0  0  0  0  0
    6.1709   -0.5782    1.0673 C   0  0  0  0  0  0  0  0  0  0  0  0
    5.9720   -1.9290    1.2524 C   0  0  0  0  0  0  0  0  0  0  0  0
    6.0127   -2.4957    2.5199 C   0  0  0  0  0  0  0  0  0  0  0  0
    6.2553   -1.7096    3.6287 C   0  0  0  0  0  0  0  0  0  0  0  0
    6.3160   -2.3841    5.2539 Cl  0  0  0  0  0  0  0  0  0  0  0  0
    6.4505   -0.3541    3.4000 C   0  0  0  0  0  0  0  0  0  0  0  0
    6.4066    0.1790    2.1537 N   0  0  0  0  0  0  0  0  0  0  0  0
   -0.2475   -1.0157   -0.9663 C   0  0  0  0  0  0  0  0  0  0  0  0
   -1.3586   -1.2346   -0.1797 C   0  0  0  0  0  0  0  0  0  0  0  0
   -5.1883   -1.0381    0.6233 C   0  0  0  0  0  0  0  0  0  0  0  0
   -4.7896   -2.2355    0.2710 N   0  0  0  0  0  0  0  0  0  0  0  0
   -6.5959   -0.7457    0.6765 C   0  0  0  0  0  0  0  0  0  0  0  0
   -7.4822   -1.3793   -0.1454 C   0  0  0  0  0  0  0  0  0  0  0  0
   -8.8453   -1.1021   -0.1005 C   0  0  0  0  0  0  0  0  0  0  0  0
   -9.3086   -0.1602    0.8014 C   0  0  0  0  0  0  0  0  0  0  0  0
   -8.4314    0.4894    1.6385 C   0  0  0  0  0  0  0  0  0  0  0  0
   -7.0665    0.1914    1.5721 C   0  0  0  0  0  0  0  0  0  0  0  0
   -4.4175    1.8533    1.5471 H   0  0  0  0  0  0  0  0  0  0  0  0
   -3.6416    1.6887   -0.1048 H   0  0  0  0  0  0  0  0  0  0  0  0
   -5.3821    1.4302    0.1033 H   0  0  0  0  0  0  0  0  0  0  0  0
   -2.8710   -0.1391    2.5802 H   0  0  0  0  0  0  0  0  0  0  0  0
   -3.0288   -1.6632    1.6950 H   0  0  0  0  0  0  0  0  0  0  0  0
   -1.3507    1.6063    1.5669 H   0  0  0  0  0  0  0  0  0  0  0  0
    0.6513    2.0016    0.1499 H   0  0  0  0  0  0  0  0  0  0  0  0
    2.2691    2.2135   -1.0564 H   0  0  0  0  0  0  0  0  0  0  0  0
    2.6411    2.5145   -4.1855 H   0  0  0  0  0  0  0  0  0  0  0  0
    4.6770    2.7305   -5.6203 H   0  0  0  0  0  0  0  0  0  0  0  0
    6.9774    0.8922   -2.5902 H   0  0  0  0  0  0  0  0  0  0  0  0
    7.0212    0.0661   -0.7647 H   0  0  0  0  0  0  0  0  0  0  0  0
    5.7836   -2.5178    0.3586 H   0  0  0  0  0  0  0  0  0  0  0  0
    5.8546   -3.5500    2.6373 H   0  0  0  0  0  0  0  0  0  0  0  0
    6.6410    0.2610    4.2733 H   0  0  0  0  0  0  0  0  0  0  0  0
    0.0706   -1.7714   -1.6966 H   0  0  0  0  0  0  0  0  0  0  0  0
   -1.9034   -2.1774   -0.3094 H   0  0  0  0  0  0  0  0  0  0  0  0
   -5.4851   -2.9634    0.0334 H   0  0  0  0  0  0  0  0  0  0  0  0
   -7.1285   -2.1151   -0.8515 H   0  0  0  0  0  0  0  0  0  0  0  0
   -9.5701   -1.5856   -0.7365 H   0  0  0  0  0  0  0  0  0  0  0  0
  -10.3616    0.0716    0.8545 H   0  0  0  0  0  0  0  0  0  0  0  0
   -8.8318    1.2166    2.3271 H   0  0  0  0  0  0  0  0  0  0  0  0
   -6.4373    0.7381    2.2570 H   0  0  0  0  0  0  0  0  0  0  0  0
  1  2  1  0
  2  3  1  0
  3  4  1  0
  4  5  2  0
  5  6  1  0
  6  7  2  0
  7  8  1  0
  8  9  2  0
  8 10  1  0
 10 11  1  0
 11 12  2  0
 12 13  1  0
 13 14  2  0
 14 15  1  0
 14 16  1  0
 16 17  2  0
 17 18  1  0
 18 19  2  0
 18 20  1  0
 20 21  1  0
 21 22  2  0
 22 23  1  0
 23 24  2  0
 24 25  1  0
 24 26  1  0
 26 27  2  0
  7 28  1  0
 28 29  2  0
  2 30  1  0
 30 31  2  3
 30 32  1  0
 32 33  2  0
 33 34  1  0
 34 35  2  0
 35 36  1  0
 36 37  2  0
 29  4  1  0
 37 32  1  0
 17 11  1  0
 27 21  1  0
  1 38  1  0
  1 39  1  0
  1 40  1  0
  3 41  1  0
  3 42  1  0
  5 43  1  0
  6 44  1  0
 10 45  1  0
 12 46  1  0
 13 47  1  0
 16 48  1  0
 20 49  1  0
 22 50  1  0
 23 51  1  0
 26 52  1  0
 28 53  1  0
 29 54  1  0
 31 55  1  0
 33 56  1  0
 34 57  1  0
 35 58  1  0
 36 59  1  0
 37 60  1  0
M  END
$$$$
