@<TRIPOS>MOLECULE
*****
 65 69 0 0 0
SMALL
GASTEIGER

@<TRIPOS>ATOM
      1 N         -11.3529   -0.3036   -0.8131 N.pl3   1  UNL1       -0.3431
      2 C         -10.0758   -0.7707   -0.4209 C.ar    1  UNL1        0.1162
      3 C          -9.8176   -0.9454    0.9299 C.ar    1  UNL1       -0.0202
      4 C          -8.6196   -1.3897    1.3943 C.ar    1  UNL1       -0.0303
      5 C          -7.6173   -1.6793    0.4821 C.ar    1  UNL1        0.1266
      6 S          -6.0692   -2.2825    0.9705 S.O2    1  UNL1        0.0738
      7 O          -6.2874   -3.3048    2.0793 O.2     1  UNL1       -0.1499
      8 O          -5.3808   -2.9835   -0.2048 O.2     1  UNL1       -0.1499
      9 N          -4.9761   -1.1117    1.5393 N.pl3   1  UNL1       -0.2162
     10 C          -4.5151   -0.0548    0.7509 C.ar    1  UNL1        0.0486
     11 C          -5.3293    0.7894    0.0549 C.ar    1  UNL1       -0.0393
     12 C          -4.7464    1.8280   -0.6881 C.ar    1  UNL1       -0.0594
     13 C          -3.3801    2.0070   -0.7246 C.ar    1  UNL1       -0.0539
     14 C          -2.5710    1.1649   -0.0295 C.ar    1  UNL1       -0.0161
     15 C          -1.1109    1.3329   -0.0506 C.ar    1  UNL1       -0.0178
     16 C          -0.5234    2.5713   -0.1708 C.ar    1  UNL1       -0.0538
     17 C           0.8630    2.7030   -0.1857 C.ar    1  UNL1       -0.0577
     18 C           1.6937    1.6073   -0.0812 C.ar    1  UNL1       -0.0427
     19 C           3.1827    1.7423   -0.0963 C.3     1  UNL1        0.0010
     20 C           3.9029    0.9768    0.9533 C.3     1  UNL1       -0.0287
     21 C           4.0535    0.6537   -0.5358 C.3     1  UNL1        0.0153
     22 N           5.3684    0.9147   -1.0384 N.3     1  UNL1       -0.3099
     23 C           6.0812   -0.2867   -1.4213 C.3     1  UNL1        0.0080
     24 C           6.2390   -1.2191   -0.2521 C.3     1  UNL1       -0.0361
     25 C           7.6639   -1.4383    0.1564 C.3     1  UNL1       -0.0363
     26 C           8.4077   -0.1646    0.4251 C.3     1  UNL1        0.0049
     27 N           8.1462    0.2413    1.7772 N.3     1  UNL1       -0.3272
     28 C           8.0456    0.8821   -0.5868 C.3     1  UNL1       -0.0363
     29 C           7.4902    0.1613   -1.8128 C.3     1  UNL1       -0.0361
     30 C           1.0837    0.3765    0.0382 C.ar    1  UNL1       -0.0577
     31 C          -0.2880    0.2284    0.0544 C.ar    1  UNL1       -0.0538
     32 C          -3.1409    0.1559    0.6914 C.ar    1  UNL1       -0.0316
     33 C          -7.9049   -1.4949   -0.8600 C.ar    1  UNL1        0.0563
     34 N          -9.0945   -1.0551   -1.2984 N.ar    1  UNL1       -0.2388
     35 H         -11.4349    0.3249   -1.6569 H       1  UNL1        0.1437
     36 H         -12.2178   -0.5720   -0.2790 H       1  UNL1        0.1437
     37 H         -10.6149   -0.7135    1.6331 H       1  UNL1        0.0652
     38 H          -8.3861   -1.5372    2.4477 H       1  UNL1        0.0639
     39 H          -4.6179   -1.1640    2.5217 H       1  UNL1        0.1737
     40 H          -6.3949    0.6746    0.0814 H       1  UNL1        0.0636
     41 H          -5.3907    2.5016   -1.2435 H       1  UNL1        0.0618
     42 H          -2.9386    2.8155   -1.3032 H       1  UNL1        0.0624
     43 H          -1.1623    3.4399   -0.2534 H       1  UNL1        0.0624
     44 H           1.3375    3.6624   -0.2792 H       1  UNL1        0.0621
     45 H           3.5614    2.7785   -0.2430 H       1  UNL1        0.0364
     46 H           4.7414    1.4467    1.4839 H       1  UNL1        0.0287
     47 H           3.3608    0.2317    1.5840 H       1  UNL1        0.0287
     48 H           3.6526   -0.3551   -0.8138 H       1  UNL1        0.0466
     49 H           5.4214    1.6196   -1.7881 H       1  UNL1        0.1225
     50 H           5.6376   -0.7851   -2.3055 H       1  UNL1        0.0460
     51 H           5.8332   -2.2279   -0.5506 H       1  UNL1        0.0281
     52 H           5.6516   -0.9182    0.6372 H       1  UNL1        0.0281
     53 H           7.6320   -2.0016    1.1289 H       1  UNL1        0.0281
     54 H           8.2240   -2.0895   -0.5419 H       1  UNL1        0.0281
     55 H           9.5007   -0.3914    0.2815 H       1  UNL1        0.0458
     56 H           7.3598    0.8886    1.8970 H       1  UNL1        0.1185
     57 H           8.9758    0.4213    2.3513 H       1  UNL1        0.1185
     58 H           7.1916    1.4744   -0.1530 H       1  UNL1        0.0281
     59 H           8.8525    1.5784   -0.8332 H       1  UNL1        0.0281
     60 H           8.1230   -0.6950   -2.0955 H       1  UNL1        0.0281
     61 H           7.3746    0.8718   -2.6568 H       1  UNL1        0.0281
     62 H           1.6798   -0.5178    0.1238 H       1  UNL1        0.0621
     63 H          -0.7657   -0.7425    0.1490 H       1  UNL1        0.0624
     64 H          -2.4978   -0.5021    1.2356 H       1  UNL1        0.0642
     65 H          -7.1104   -1.7238   -1.5855 H       1  UNL1        0.0850
@<TRIPOS>BOND
     1     1     2    1
     2     2     3   ar
     3     3     4   ar
     4     4     5   ar
     5     5     6    1
     6     6     7    2
     7     6     8    2
     8     6     9    1
     9     9    10    1
    10    10    11   ar
    11    11    12   ar
    12    12    13   ar
    13    13    14   ar
    14    14    15    1
    15    15    16   ar
    16    16    17   ar
    17    17    18   ar
    18    18    19    1
    19    19    20    1
    20    20    21    1
    21    21    22    1
    22    22    23    1
    23    23    24    1
    24    24    25    1
    25    25    26    1
    26    26    27    1
    27    26    28    1
    28    28    29    1
    29    18    30   ar
    30    30    31   ar
    31    14    32   ar
    32     5    33   ar
    33    33    34   ar
    34    34     2   ar
    35    32    10   ar
    36    31    15   ar
    37    21    19    1
    38    29    23    1
    39     1    35    1
    40     1    36    1
    41     3    37    1
    42     4    38    1
    43     9    39    1
    44    11    40    1
    45    12    41    1
    46    13    42    1
    47    16    43    1
    48    17    44    1
    49    19    45    1
    50    20    46    1
    51    20    47    1
    52    21    48    1
    53    22    49    1
    54    23    50    1
    55    24    51    1
    56    24    52    1
    57    25    53    1
    58    25    54    1
    59    26    55    1
    60    27    56    1
    61    27    57    1
    62    28    58    1
    63    28    59    1
    64    29    60    1
    65    29    61    1
    66    30    62    1
    67    31    63    1
    68    32    64    1
    69    33    65    1
