
     RDKit          3D

 65 69  0  0  0  0  0  0  0  0999 V2000
  -11.3529   -0.3036   -0.8131 N   0  0  0  0  0  0  0  0  0  0  0  0
  -10.0758   -0.7707   -0.4209 C   0  0  0  0  0  0  0  0  0  0  0  0
   -9.8176   -0.9454    0.9299 C   0  0  0  0  0  0  0  0  0  0  0  0
   -8.6196   -1.3897    1.3943 C   0  0  0  0  0  0  0  0  0  0  0  0
   -7.6173   -1.6793    0.4821 C   0  0  0  0  0  0  0  0  0  0  0  0
   -6.0692   -2.2825    0.9705 S   0  0  0  0  0  6  0  0  0  0  0  0
   -6.2874   -3.3048    2.0793 O   0  0  0  0  0  0  0  0  0  0  0  0
   -5.3808   -2.9835   -0.2048 O   0  0  0  0  0  0  0  0  0  0  0  0
   -4.9761   -1.1117    1.5393 N   0  0  0  0  0  0  0  0  0  0  0  0
   -4.5151   -0.0548    0.7509 C   0  0  0  0  0  0  0  0  0  0  0  0
   -5.3293    0.7894    0.0549 C   0  0  0  0  0  0  0  0  0  0  0  0
   -4.7464    1.8280   -0.6881 C   0  0  0  0  0  0  0  0  0  0  0  0
   -3.3801    2.0070   -0.7246 C   0  0  0  0  0  0  0  0  0  0  0  0
   -2.5710    1.1649   -0.0295 C   0  0  0  0  0  0  0  0  0  0  0  0
   -1.1109    1.3329   -0.0506 C   0  0  0  0  0  0  0  0  0  0  0  0
   -0.5234    2.5713   -0.1708 C   0  0  0  0  0  0  0  0  0  0  0  0
    0.8630    2.7030   -0.1857 C   0  0  0  0  0  0  0  0  0  0  0  0
    1.6937    1.6073   -0.0812 C   0  0  0  0  0  0  0  0  0  0  0  0
    3.1827    1.7423   -0.0963 C   0  0  1  0  0  0  0  0  0  0  0  0
    3.9029    0.9768    0.9533 C   0  0  0  0  0  0  0  0  0  0  0  0
    4.0535    0.6537   -0.5358 C   0  0  0  0  0  0  0  0  0  0  0  0
    5.3684    0.9147   -1.0384 N   0  0  0  0  0  0  0  0  0  0  0  0
    6.0812   -0.2867   -1.4213 C   0  0  0  0  0  0  0  0  0  0  0  0
    6.2390   -1.2191   -0.2521 C   0  0  0  0  0  0  0  0  0  0  0  0
    7.6639   -1.4383    0.1564 C   0  0  0  0  0  0  0  0  0  0  0  0
    8.4077   -0.1646    0.4251 C   0  0  0  0  0  0  0  0  0  0  0  0
    8.1462    0.2413    1.7772 N   0  0  0  0  0  0  0  0  0  0  0  0
    8.0456    0.8821   -0.5868 C   0  0  0  0  0  0  0  0  0  0  0  0
    7.4902    0.1613   -1.8128 C   0  0  0  0  0  0  0  0  0  0  0  0
    1.0837    0.3765    0.0382 C   0  0  0  0  0  0  0  0  0  0  0  0
   -0.2880    0.2284    0.0544 C   0  0  0  0  0  0  0  0  0  0  0  0
   -3.1409    0.1559    0.6914 C   0  0  0  0  0  0  0  0  0  0  0  0
   -7.9049   -1.4949   -0.8600 C   0  0  0  0  0  0  0  0  0  0  0  0
   -9.0945   -1.0551   -1.2984 N   0  0  0  0  0  0  0  0  0  0  0  0
  -11.4349    0.3249   -1.6569 H   0  0  0  0  0  0  0  0  0  0  0  0
  -12.2178   -0.5720   -0.2790 H   0  0  0  0  0  0  0  0  0  0  0  0
  -10.6149   -0.7135    1.6331 H   0  0  0  0  0  0  0  0  0  0  0  0
   -8.3861   -1.5372    2.4477 H   0  0  0  0  0  0  0  0  0  0  0  0
   -4.6179   -1.1640    2.5217 H   0  0  0  0  0  0  0  0  0  0  0  0
   -6.3949    0.6746    0.0814 H   0  0  0  0  0  0  0  0  0  0  0  0
   -5.3907    2.5016   -1.2435 H   0  0  0  0  0  0  0  0  0  0  0  0
   -2.9386    2.8155   -1.3032 H   0  0  0  0  0  0  0  0  0  0  0  0
   -1.1623    3.4399   -0.2534 H   0  0  0  0  0  0  0  0  0  0  0  0
    1.3375    3.6624   -0.2792 H   0  0  0  0  0  0  0  0  0  0  0  0
    3.5614    2.7785   -0.2430 H   0  0  0  0  0  0  0  0  0  0  0  0
    4.7414    1.4467    1.4839 H   0  0  0  0  0  0  0  0  0  0  0  0
    3.3608    0.2317    1.5840 H   0  0  0  0  0  0  0  0  0  0  0  0
    3.6526   -0.3551   -0.8138 H   0  0  0  0  0  0  0  0  0  0  0  0
    5.4214    1.6196   -1.7881 H   0  0  0  0  0  0  0  0  0  0  0  0
    5.6376   -0.7851   -2.3055 H   0  0  0  0  0  0  0  0  0  0  0  0
    5.8332   -2.2279   -0.5506 H   0  0  0  0  0  0  0  0  0  0  0  0
    5.6516   -0.9182    0.6372 H   0  0  0  0  0  0  0  0  0  0  0  0
    7.6320   -2.0016    1.1289 H   0  0  0  0  0  0  0  0  0  0  0  0
    8.2240   -2.0895   -0.5419 H   0  0  0  0  0  0  0  0  0  0  0  0
    9.5007   -0.3914    0.2815 H   0  0  0  0  0  0  0  0  0  0  0  0
    7.3598    0.8886    1.8970 H   0  0  0  0  0  0  0  0  0  0  0  0
    8.9758    0.4213    2.3513 H   0  0  0  0  0  0  0  0  0  0  0  0
    7.1916    1.4744   -0.1530 H   0  0  0  0  0  0  0  0  0  0  0  0
    8.8525    1.5784   -0.8332 H   0  0  0  0  0  0  0  0  0  0  0  0
    8.1230   -0.6950   -2.0955 H   0  0  0  0  0  0  0  0  0  0  0  0
    7.3746    0.8718   -2.6568 H   0  0  0  0  0  0  0  0  0  0  0  0
    1.6798   -0.5178    0.1238 H   0  0  0  0  0  0  0  0  0  0  0  0
   -0.7657   -0.7425    0.1490 H   0  0  0  0  0  0  0  0  0  0  0  0
   -2.4978   -0.5021    1.2356 H   0  0  0  0  0  0  0  0  0  0  0  0
   -7.1104   -1.7238   -1.5855 H   0  0  0  0  0  0  0  0  0  0  0  0
  1  2  1  0
  2  3  2  0
  3  4  1  0
  4  5  2  0
  5  6  1  0
  6  7  2  0
  6  8  2  0
  6  9  1  0
  9 10  1  0
 10 11  2  0
 11 12  1  0
 12 13  2  0
 13 14  1  0
 14 15  1  0
 15 16  2  0
 16 17  1  0
 17 18  2  0
 18 19  1  0
 19 20  1  0
 20 21  1  0
 21 22  1  0
 22 23  1  0
 23 24  1  0
 24 25  1  0
 25 26  1  0
 26 27  1  0
 26 28  1  0
 28 29  1  0
 18 30  1  0
 30 31  2  0
 14 32  2  0
  5 33  1  0
 33 34  2  0
 34  2  1  0
 32 10  1  0
 31 15  1  0
 21 19  1  0
 29 23  1  0
  1 35  1  0
  1 36  1  0
  3 37  1  0
  4 38  1  0
  9 39  1  0
 11 40  1  0
 12 41  1  0
 13 42  1  0
 16 43  1  0
 17 44  1  0
 19 45  1  6
 20 46  1  0
 20 47  1  0
 21 48  1  0
 22 49  1  0
 23 50  1  0
 24 51  1  0
 24 52  1  0
 25 53  1  0
 25 54  1  0
 26 55  1  0
 27 56  1  0
 27 57  1  0
 28 58  1  0
 28 59  1  0
 29 60  1  0
 29 61  1  0
 30 62  1  0
 31 63  1  0
 32 64  1  0
 33 65  1  0
M  END
$$$$
