@<TRIPOS>MOLECULE
*****
 61 64 0 0 0
SMALL
GASTEIGER

@<TRIPOS>ATOM
      1 O          -6.2661    2.1215   -0.0523 O.3     1  UNL1       -0.3929
      2 C          -6.4444    0.9961   -0.8189 C.3     1  UNL1        0.0675
      3 C          -5.8828   -0.2647   -0.1871 C.3     1  UNL1        0.0871
      4 C          -6.4920   -0.5944    1.1300 C.3     1  UNL1        0.1067
      5 O          -7.0376   -1.8995    1.1474 O.3     1  UNL1       -0.3870
      6 C          -5.5840   -0.4941    2.3089 C.3     1  UNL1        0.1158
      7 O          -5.0094   -1.7180    2.6560 O.3     1  UNL1       -0.3861
      8 C          -4.4548    0.4879    2.1283 C.3     1  UNL1        0.1409
      9 O          -3.5941    0.2988    3.2352 O.3     1  UNL1       -0.3814
     10 C          -3.7188    0.1221    0.9021 C.ar    1  UNL1        0.1417
     11 N          -2.4082    0.0589    0.6071 N.ar    1  UNL1       -0.2345
     12 C          -2.2675   -0.3337   -0.6607 C.ar    1  UNL1        0.0595
     13 C          -1.0201   -0.5523   -1.4491 C.3     1  UNL1       -0.0086
     14 C          -0.6775    0.7628   -2.1158 C.3     1  UNL1       -0.0436
     15 C           0.5790    0.6616   -2.9487 C.3     1  UNL1       -0.0273
     16 C           1.7110    0.2653   -2.0476 C.ar    1  UNL1       -0.0473
     17 C           2.4812    1.2048   -1.4087 C.ar    1  UNL1       -0.0583
     18 C           3.5388    0.9022   -0.5652 C.ar    1  UNL1       -0.0581
     19 C           3.8374   -0.4084   -0.3536 C.ar    1  UNL1       -0.0443
     20 C           4.9498   -0.8547    0.5102 C.3     1  UNL1       -0.0158
     21 C           5.0883   -0.1375    1.7967 C.3     1  UNL1       -0.0462
     22 C           6.1031    0.9404    1.8805 C.3     1  UNL1       -0.0525
     23 C           7.3369    0.6594    1.0976 C.3     1  UNL1       -0.0530
     24 C           6.9381    0.3162   -0.3371 C.3     1  UNL1       -0.0525
     25 C           6.2123   -0.9787   -0.2934 C.3     1  UNL1       -0.0462
     26 C           3.0767   -1.3918   -0.9856 C.ar    1  UNL1       -0.0581
     27 C           2.0257   -1.0574   -1.8229 C.ar    1  UNL1       -0.0583
     28 C          -3.5301   -0.5143   -1.1505 C.ar    1  UNL1        0.0280
     29 N          -4.4355   -0.2362   -0.1956 N.ar    1  UNL1       -0.3241
     30 H          -6.0001    2.8776   -0.6639 H       1  UNL1        0.2095
     31 H          -5.9385    1.0832   -1.8186 H       1  UNL1        0.0579
     32 H          -7.5224    0.8770   -1.0488 H       1  UNL1        0.0579
     33 H          -6.1720   -1.0947   -0.8975 H       1  UNL1        0.0577
     34 H          -7.3908    0.0755    1.2509 H       1  UNL1        0.0642
     35 H          -6.8428   -2.3112    0.2666 H       1  UNL1        0.2100
     36 H          -6.1826   -0.1744    3.1893 H       1  UNL1        0.0650
     37 H          -4.4012   -2.0403    1.9418 H       1  UNL1        0.2100
     38 H          -4.7645    1.5388    2.1737 H       1  UNL1        0.0702
     39 H          -4.0552   -0.1001    3.9949 H       1  UNL1        0.2105
     40 H          -0.2378   -0.9098   -0.7809 H       1  UNL1        0.0329
     41 H          -1.2124   -1.3154   -2.2065 H       1  UNL1        0.0329
     42 H          -1.5314    1.0869   -2.7432 H       1  UNL1        0.0272
     43 H          -0.5358    1.5334   -1.3309 H       1  UNL1        0.0272
     44 H           0.7938    1.6419   -3.3789 H       1  UNL1        0.0313
     45 H           0.4765   -0.0793   -3.7475 H       1  UNL1        0.0313
     46 H           2.2713    2.2504   -1.5550 H       1  UNL1        0.0620
     47 H           4.1139    1.6669   -0.0785 H       1  UNL1        0.0620
     48 H           4.6963   -1.9403    0.7764 H       1  UNL1        0.0349
     49 H           4.0824    0.2250    2.1097 H       1  UNL1        0.0271
     50 H           5.3655   -0.8961    2.5925 H       1  UNL1        0.0271
     51 H           6.4125    1.0428    2.9599 H       1  UNL1        0.0265
     52 H           5.7565    1.9580    1.6079 H       1  UNL1        0.0265
     53 H           7.9234   -0.1665    1.5378 H       1  UNL1        0.0265
     54 H           7.9385    1.5987    1.0207 H       1  UNL1        0.0265
     55 H           6.3002    1.1000   -0.7424 H       1  UNL1        0.0265
     56 H           7.8748    0.2589   -0.9586 H       1  UNL1        0.0265
     57 H           6.8706   -1.7788    0.1397 H       1  UNL1        0.0271
     58 H           5.9156   -1.2722   -1.3242 H       1  UNL1        0.0271
     59 H           3.2884   -2.4419   -0.8379 H       1  UNL1        0.0620
     60 H           1.4480   -1.8252   -2.3034 H       1  UNL1        0.0620
     61 H          -3.7960   -0.8310   -2.1462 H       1  UNL1        0.0828
@<TRIPOS>BOND
     1     1     2    1
     2     2     3    1
     3     3     4    1
     4     4     5    1
     5     4     6    1
     6     6     7    1
     7     6     8    1
     8     8     9    1
     9     8    10    1
    10    10    11   ar
    11    11    12   ar
    12    12    13    1
    13    13    14    1
    14    14    15    1
    15    15    16    1
    16    16    17   ar
    17    17    18   ar
    18    18    19   ar
    19    19    20    1
    20    20    21    1
    21    21    22    1
    22    22    23    1
    23    23    24    1
    24    24    25    1
    25    19    26   ar
    26    26    27   ar
    27    12    28   ar
    28    28    29   ar
    29    29     3    1
    30    29    10   ar
    31    27    16   ar
    32    25    20    1
    33     1    30    1
    34     2    31    1
    35     2    32    1
    36     3    33    1
    37     4    34    1
    38     5    35    1
    39     6    36    1
    40     7    37    1
    41     8    38    1
    42     9    39    1
    43    13    40    1
    44    13    41    1
    45    14    42    1
    46    14    43    1
    47    15    44    1
    48    15    45    1
    49    17    46    1
    50    18    47    1
    51    20    48    1
    52    21    49    1
    53    21    50    1
    54    22    51    1
    55    22    52    1
    56    23    53    1
    57    23    54    1
    58    24    55    1
    59    24    56    1
    60    25    57    1
    61    25    58    1
    62    26    59    1
    63    27    60    1
    64    28    61    1
