@<TRIPOS>MOLECULE
*****
 66 69 0 0 0
SMALL
GASTEIGER

@<TRIPOS>ATOM
      1 C           4.2789    3.2810    3.0228 C.3     1  UNL1       -0.0612
      2 C           4.3856    1.8563    3.5206 C.3     1  UNL1       -0.0285
      3 C           4.4411    0.9572    2.3097 C.ar    1  UNL1       -0.0223
      4 C           5.5373    0.3453    1.7959 C.ar    1  UNL1        0.0090
      5 N           5.1953   -0.3870    0.6911 N.ar    1  UNL1       -0.3433
      6 C           3.8725   -0.2389    0.5020 C.ar    1  UNL1        0.0723
      7 C           2.9912   -0.7532   -0.4601 C.ar    1  UNL1        0.0753
      8 C           1.6366   -0.4125   -0.3873 C.ar    1  UNL1       -0.0249
      9 C           1.1513    0.4170    0.6071 C.ar    1  UNL1        0.0392
     10 C          -0.2466    0.7806    0.6957 C.2     1  UNL1        0.2445
     11 O          -0.5903    1.5736    1.6142 O.2     1  UNL1       -0.2702
     12 N          -1.2403    0.2927   -0.1938 N.am    1  UNL1       -0.3057
     13 C          -2.6458    0.6993   -0.0620 C.3     1  UNL1        0.0545
     14 C          -3.3207    1.0465   -1.3043 C.3     1  UNL1       -0.0067
     15 C          -4.7051    1.5068   -1.0681 C.ar    1  UNL1       -0.0455
     16 C          -5.8231    0.7534   -1.2613 C.ar    1  UNL1       -0.0585
     17 C          -7.1060    1.2261   -0.9927 C.ar    1  UNL1       -0.0615
     18 C          -7.2557    2.5039   -0.5152 C.ar    1  UNL1       -0.0617
     19 C          -6.1489    3.2792   -0.3143 C.ar    1  UNL1       -0.0615
     20 C          -4.9065    2.7964   -0.5828 C.ar    1  UNL1       -0.0585
     21 C          -3.3100   -0.4282    0.7123 C.3     1  UNL1        0.0862
     22 O          -2.6257   -0.3287    1.9921 O.3     1  UNL1       -0.3887
     23 C          -2.8888   -1.7790    0.2110 C.3     1  UNL1        0.0234
     24 N          -3.4631   -2.2569   -0.9953 N.3     1  UNL1       -0.3165
     25 C          -4.8619   -2.6614   -0.8110 C.3     1  UNL1       -0.0157
     26 C           2.0389    0.9070    1.5359 C.ar    1  UNL1       -0.0401
     27 C           3.3905    0.5910    1.4969 C.ar    1  UNL1        0.0056
     28 N           3.2714   -1.5995   -1.5621 N.pl3   1  UNL1       -0.2083
     29 C           2.1501   -2.0873   -2.3348 C.3     1  UNL1        0.0232
     30 S           4.8418   -2.1041   -2.0812 S.O2    1  UNL1        0.0470
     31 O           5.4856   -0.9044   -2.7495 O.2     1  UNL1       -0.1549
     32 O           4.8056   -3.2967   -2.9586 O.2     1  UNL1       -0.1549
     33 C           5.7964   -2.3961   -0.5965 C.3     1  UNL1        0.1028
     34 C           6.2464   -1.1072    0.0254 C.3     1  UNL1        0.0445
     35 H           3.8226    3.2410    1.9945 H       1  UNL1        0.0233
     36 H           3.7022    3.9344    3.7066 H       1  UNL1        0.0233
     37 H           5.3125    3.7002    2.8500 H       1  UNL1        0.0233
     38 H           5.2814    1.7169    4.1484 H       1  UNL1        0.0311
     39 H           3.4484    1.6388    4.0850 H       1  UNL1        0.0311
     40 H           6.5265    0.4601    2.2461 H       1  UNL1        0.0812
     41 H           1.0014   -0.8309   -1.1390 H       1  UNL1        0.0645
     42 H          -0.9372   -0.3515   -0.9483 H       1  UNL1        0.1494
     43 H          -2.6857    1.5717    0.6800 H       1  UNL1        0.0527
     44 H          -2.8293    1.8636   -1.8906 H       1  UNL1        0.0332
     45 H          -3.3671    0.1885   -2.0235 H       1  UNL1        0.0332
     46 H          -5.7586   -0.2378   -1.6610 H       1  UNL1        0.0620
     47 H          -7.9553    0.5903   -1.1626 H       1  UNL1        0.0618
     48 H          -8.2361    2.8765   -0.3071 H       1  UNL1        0.0618
     49 H          -6.2554    4.2839    0.0593 H       1  UNL1        0.0618
     50 H          -4.0420    3.4030   -0.4250 H       1  UNL1        0.0620
     51 H          -4.3386   -0.2534    0.8949 H       1  UNL1        0.0624
     52 H          -2.6264   -1.2153    2.4061 H       1  UNL1        0.2099
     53 H          -3.0538   -2.5059    1.0627 H       1  UNL1        0.0450
     54 H          -1.7687   -1.8047    0.0779 H       1  UNL1        0.0450
     55 H          -2.9494   -3.1198   -1.2797 H       1  UNL1        0.1217
     56 H          -5.3649   -1.9854   -0.1075 H       1  UNL1        0.0388
     57 H          -5.3713   -2.5947   -1.7885 H       1  UNL1        0.0388
     58 H          -4.8990   -3.7225   -0.4698 H       1  UNL1        0.0388
     59 H           1.7178    1.5697    2.3492 H       1  UNL1        0.0632
     60 H           2.5648   -2.7828   -3.1330 H       1  UNL1        0.0446
     61 H           1.4351   -2.6981   -1.7836 H       1  UNL1        0.0446
     62 H           1.6752   -1.2773   -2.9663 H       1  UNL1        0.0446
     63 H           6.7149   -2.9764   -0.8341 H       1  UNL1        0.0536
     64 H           5.1262   -2.9393    0.0991 H       1  UNL1        0.0536
     65 H           7.0355   -1.3672    0.7388 H       1  UNL1        0.0508
     66 H           6.6961   -0.4477   -0.7540 H       1  UNL1        0.0508
@<TRIPOS>BOND
     1     1     2    1
     2     2     3    1
     3     3     4   ar
     4     4     5   ar
     5     5     6   ar
     6     6     7   ar
     7     7     8   ar
     8     8     9   ar
     9     9    10    1
    10    10    11    2
    11    10    12   am
    12    12    13    1
    13    13    14    1
    14    14    15    1
    15    15    16   ar
    16    16    17   ar
    17    17    18   ar
    18    18    19   ar
    19    19    20   ar
    20    13    21    1
    21    21    22    1
    22    21    23    1
    23    23    24    1
    24    24    25    1
    25     9    26   ar
    26    26    27   ar
    27     7    28    1
    28    28    29    1
    29    28    30    1
    30    30    31    2
    31    30    32    2
    32    30    33    1
    33    33    34    1
    34    27     3   ar
    35    34     5    1
    36    27     6   ar
    37    20    15   ar
    38     1    35    1
    39     1    36    1
    40     1    37    1
    41     2    38    1
    42     2    39    1
    43     4    40    1
    44     8    41    1
    45    12    42    1
    46    13    43    1
    47    14    44    1
    48    14    45    1
    49    16    46    1
    50    17    47    1
    51    18    48    1
    52    19    49    1
    53    20    50    1
    54    21    51    1
    55    22    52    1
    56    23    53    1
    57    23    54    1
    58    24    55    1
    59    25    56    1
    60    25    57    1
    61    25    58    1
    62    26    59    1
    63    29    60    1
    64    29    61    1
    65    29    62    1
    66    33    63    1
    67    33    64    1
    68    34    65    1
    69    34    66    1
