
     RDKit          3D

 66 69  0  0  0  0  0  0  0  0999 V2000
    4.2789    3.2810    3.0228 C   0  0  0  0  0  0  0  0  0  0  0  0
    4.3856    1.8563    3.5206 C   0  0  0  0  0  0  0  0  0  0  0  0
    4.4411    0.9572    2.3097 C   0  0  0  0  0  0  0  0  0  0  0  0
    5.5373    0.3453    1.7959 C   0  0  0  0  0  0  0  0  0  0  0  0
    5.1953   -0.3870    0.6911 N   0  0  0  0  0  0  0  0  0  0  0  0
    3.8725   -0.2389    0.5020 C   0  0  0  0  0  0  0  0  0  0  0  0
    2.9912   -0.7532   -0.4601 C   0  0  0  0  0  0  0  0  0  0  0  0
    1.6366   -0.4125   -0.3873 C   0  0  0  0  0  0  0  0  0  0  0  0
    1.1513    0.4170    0.6071 C   0  0  0  0  0  0  0  0  0  0  0  0
   -0.2466    0.7806    0.6957 C   0  0  0  0  0  0  0  0  0  0  0  0
   -0.5903    1.5736    1.6142 O   0  0  0  0  0  0  0  0  0  0  0  0
   -1.2403    0.2927   -0.1938 N   0  0  0  0  0  0  0  0  0  0  0  0
   -2.6458    0.6993   -0.0620 C   0  0  1  0  0  0  0  0  0  0  0  0
   -3.3207    1.0465   -1.3043 C   0  0  0  0  0  0  0  0  0  0  0  0
   -4.7051    1.5068   -1.0681 C   0  0  0  0  0  0  0  0  0  0  0  0
   -5.8231    0.7534   -1.2613 C   0  0  0  0  0  0  0  0  0  0  0  0
   -7.1060    1.2261   -0.9927 C   0  0  0  0  0  0  0  0  0  0  0  0
   -7.2557    2.5039   -0.5152 C   0  0  0  0  0  0  0  0  0  0  0  0
   -6.1489    3.2792   -0.3143 C   0  0  0  0  0  0  0  0  0  0  0  0
   -4.9065    2.7964   -0.5828 C   0  0  0  0  0  0  0  0  0  0  0  0
   -3.3100   -0.4282    0.7123 C   0  0  2  0  0  0  0  0  0  0  0  0
   -2.6257   -0.3287    1.9921 O   0  0  0  0  0  0  0  0  0  0  0  0
   -2.8888   -1.7790    0.2110 C   0  0  0  0  0  0  0  0  0  0  0  0
   -3.4631   -2.2569   -0.9953 N   0  0  0  0  0  0  0  0  0  0  0  0
   -4.8619   -2.6614   -0.8110 C   0  0  0  0  0  0  0  0  0  0  0  0
    2.0389    0.9070    1.5359 C   0  0  0  0  0  0  0  0  0  0  0  0
    3.3905    0.5910    1.4969 C   0  0  0  0  0  0  0  0  0  0  0  0
    3.2714   -1.5995   -1.5621 N   0  0  0  0  0  0  0  0  0  0  0  0
    2.1501   -2.0873   -2.3348 C   0  0  0  0  0  0  0  0  0  0  0  0
    4.8418   -2.1041   -2.0812 S   0  0  0  0  0  6  0  0  0  0  0  0
    5.4856   -0.9044   -2.7495 O   0  0  0  0  0  0  0  0  0  0  0  0
    4.8056   -3.2967   -2.9586 O   0  0  0  0  0  0  0  0  0  0  0  0
    5.7964   -2.3961   -0.5965 C   0  0  0  0  0  0  0  0  0  0  0  0
    6.2464   -1.1072    0.0254 C   0  0  0  0  0  0  0  0  0  0  0  0
    3.8226    3.2410    1.9945 H   0  0  0  0  0  0  0  0  0  0  0  0
    3.7022    3.9344    3.7066 H   0  0  0  0  0  0  0  0  0  0  0  0
    5.3125    3.7002    2.8500 H   0  0  0  0  0  0  0  0  0  0  0  0
    5.2814    1.7169    4.1484 H   0  0  0  0  0  0  0  0  0  0  0  0
    3.4484    1.6388    4.0850 H   0  0  0  0  0  0  0  0  0  0  0  0
    6.5265    0.4601    2.2461 H   0  0  0  0  0  0  0  0  0  0  0  0
    1.0014   -0.8309   -1.1390 H   0  0  0  0  0  0  0  0  0  0  0  0
   -0.9372   -0.3515   -0.9483 H   0  0  0  0  0  0  0  0  0  0  0  0
   -2.6857    1.5717    0.6800 H   0  0  0  0  0  0  0  0  0  0  0  0
   -2.8293    1.8636   -1.8906 H   0  0  0  0  0  0  0  0  0  0  0  0
   -3.3671    0.1885   -2.0235 H   0  0  0  0  0  0  0  0  0  0  0  0
   -5.7586   -0.2378   -1.6610 H   0  0  0  0  0  0  0  0  0  0  0  0
   -7.9553    0.5903   -1.1626 H   0  0  0  0  0  0  0  0  0  0  0  0
   -8.2361    2.8765   -0.3071 H   0  0  0  0  0  0  0  0  0  0  0  0
   -6.2554    4.2839    0.0593 H   0  0  0  0  0  0  0  0  0  0  0  0
   -4.0420    3.4030   -0.4250 H   0  0  0  0  0  0  0  0  0  0  0  0
   -4.3386   -0.2534    0.8949 H   0  0  0  0  0  0  0  0  0  0  0  0
   -2.6264   -1.2153    2.4061 H   0  0  0  0  0  0  0  0  0  0  0  0
   -3.0538   -2.5059    1.0627 H   0  0  0  0  0  0  0  0  0  0  0  0
   -1.7687   -1.8047    0.0779 H   0  0  0  0  0  0  0  0  0  0  0  0
   -2.9494   -3.1198   -1.2797 H   0  0  0  0  0  0  0  0  0  0  0  0
   -5.3649   -1.9854   -0.1075 H   0  0  0  0  0  0  0  0  0  0  0  0
   -5.3713   -2.5947   -1.7885 H   0  0  0  0  0  0  0  0  0  0  0  0
   -4.8990   -3.7225   -0.4698 H   0  0  0  0  0  0  0  0  0  0  0  0
    1.7178    1.5697    2.3492 H   0  0  0  0  0  0  0  0  0  0  0  0
    2.5648   -2.7828   -3.1330 H   0  0  0  0  0  0  0  0  0  0  0  0
    1.4351   -2.6981   -1.7836 H   0  0  0  0  0  0  0  0  0  0  0  0
    1.6752   -1.2773   -2.9663 H   0  0  0  0  0  0  0  0  0  0  0  0
    6.7149   -2.9764   -0.8341 H   0  0  0  0  0  0  0  0  0  0  0  0
    5.1262   -2.9393    0.0991 H   0  0  0  0  0  0  0  0  0  0  0  0
    7.0355   -1.3672    0.7388 H   0  0  0  0  0  0  0  0  0  0  0  0
    6.6961   -0.4477   -0.7540 H   0  0  0  0  0  0  0  0  0  0  0  0
  1  2  1  0
  2  3  1  0
  3  4  2  0
  4  5  1  0
  5  6  1  0
  6  7  2  0
  7  8  1  0
  8  9  2  0
  9 10  1  0
 10 11  2  0
 10 12  1  0
 12 13  1  0
 13 14  1  0
 14 15  1  0
 15 16  2  0
 16 17  1  0
 17 18  2  0
 18 19  1  0
 19 20  2  0
 13 21  1  0
 21 22  1  0
 21 23  1  0
 23 24  1  0
 24 25  1  0
  9 26  1  0
 26 27  2  0
  7 28  1  0
 28 29  1  0
 28 30  1  0
 30 31  2  0
 30 32  2  0
 30 33  1  0
 33 34  1  0
 27  3  1  0
 34  5  1  0
 27  6  1  0
 20 15  1  0
  1 35  1  0
  1 36  1  0
  1 37  1  0
  2 38  1  0
  2 39  1  0
  4 40  1  0
  8 41  1  0
 12 42  1  0
 13 43  1  1
 14 44  1  0
 14 45  1  0
 16 46  1  0
 17 47  1  0
 18 48  1  0
 19 49  1  0
 20 50  1  0
 21 51  1  1
 22 52  1  0
 23 53  1  0
 23 54  1  0
 24 55  1  0
 25 56  1  0
 25 57  1  0
 25 58  1  0
 26 59  1  0
 29 60  1  0
 29 61  1  0
 29 62  1  0
 33 63  1  0
 33 64  1  0
 34 65  1  0
 34 66  1  0
M  END
$$$$
