@<TRIPOS>MOLECULE
*****
 41 44 0 0 0
SMALL
GASTEIGER

@<TRIPOS>ATOM
      1 C           6.0557   -0.4107    2.2393 C.3     1  UNL1        0.0788
      2 O           5.4544   -0.8365    1.0597 O.3     1  UNL1       -0.4951
      3 C           4.2809   -0.2739    0.5864 C.ar    1  UNL1        0.1202
      4 C           3.6703    0.7322    1.2798 C.ar    1  UNL1       -0.0182
      5 C           2.4820    1.2939    0.7837 C.ar    1  UNL1       -0.0371
      6 C           1.9254    0.8365   -0.3999 C.ar    1  UNL1        0.0326
      7 N           0.7171    1.4333   -0.9437 N.pl3   1  UNL1       -0.2992
      8 C           0.2255    0.8351   -2.1321 C.ar    1  UNL1        0.1311
      9 N           0.8407    0.8809   -3.3547 N.ar    1  UNL1       -0.2613
     10 N           0.1078    0.2360   -4.2389 N.ar    1  UNL1       -0.1519
     11 C          -0.9858   -0.2317   -3.5984 C.ar    1  UNL1        0.1877
     12 N          -2.0076   -0.9280   -4.0702 N.ar    1  UNL1       -0.2142
     13 C          -3.0100   -1.2839   -3.2413 C.ar    1  UNL1        0.1205
     14 N          -2.9547   -0.9286   -1.9570 N.ar    1  UNL1       -0.2198
     15 C          -1.9749   -0.2312   -1.3816 C.ar    1  UNL1        0.1388
     16 N          -1.9316    0.1431   -0.0342 N.pl3   1  UNL1       -0.2987
     17 C          -2.9960   -0.0733    0.8566 C.ar    1  UNL1        0.0338
     18 C          -2.9686    0.5986    2.0911 C.ar    1  UNL1       -0.0404
     19 C          -3.9404    0.4717    3.0455 C.ar    1  UNL1       -0.0586
     20 C          -5.0250   -0.3465    2.8360 C.ar    1  UNL1       -0.0433
     21 C          -5.0845   -1.0154    1.6491 C.ar    1  UNL1        0.0427
     22 CL         -6.4403   -2.0682    1.3230 Cl      1  UNL1       -0.0835
     23 C          -4.0826   -0.8860    0.6605 C.ar    1  UNL1       -0.0222
     24 C          -0.9381    0.1330   -2.2599 C.ar    1  UNL1        0.1002
     25 C           2.5652   -0.1824   -1.0788 C.ar    1  UNL1       -0.0371
     26 C           3.7328   -0.7391   -0.5981 C.ar    1  UNL1       -0.0182
     27 H           7.1131   -0.8138    2.2467 H       1  UNL1        0.0660
     28 H           6.0649    0.6890    2.3677 H       1  UNL1        0.0660
     29 H           5.4992   -0.8431    3.0924 H       1  UNL1        0.0660
     30 H           4.0663    1.1262    2.2134 H       1  UNL1        0.0655
     31 H           1.9662    2.0901    1.3010 H       1  UNL1        0.0637
     32 H           0.3243    2.2395   -0.4446 H       1  UNL1        0.1536
     33 H           1.7462    1.3599   -3.5091 H       1  UNL1        0.1903
     34 H          -3.8263   -1.8476   -3.6468 H       1  UNL1        0.1048
     35 H          -1.0587    0.5941    0.3496 H       1  UNL1        0.1536
     36 H          -2.1205    1.2546    2.2762 H       1  UNL1        0.0636
     37 H          -3.8986    0.9995    3.9887 H       1  UNL1        0.0619
     38 H          -5.8197   -0.4668    3.5828 H       1  UNL1        0.0632
     39 H          -4.1914   -1.4495   -0.2512 H       1  UNL1        0.0651
     40 H           2.1440   -0.5533   -2.0089 H       1  UNL1        0.0637
     41 H           4.2730   -1.5378   -1.0979 H       1  UNL1        0.0655
@<TRIPOS>BOND
     1     1     2    1
     2     2     3    1
     3     3     4   ar
     4     4     5   ar
     5     5     6   ar
     6     6     7    1
     7     7     8    1
     8     8     9   ar
     9     9    10   ar
    10    10    11   ar
    11    11    12   ar
    12    12    13   ar
    13    13    14   ar
    14    14    15   ar
    15    15    16    1
    16    16    17    1
    17    17    18   ar
    18    18    19   ar
    19    19    20   ar
    20    20    21   ar
    21    21    22    1
    22    21    23   ar
    23    15    24   ar
    24     6    25   ar
    25    25    26   ar
    26    26     3   ar
    27    24     8   ar
    28    24    11   ar
    29    23    17   ar
    30     1    27    1
    31     1    28    1
    32     1    29    1
    33     4    30    1
    34     5    31    1
    35     7    32    1
    36     9    33    1
    37    13    34    1
    38    16    35    1
    39    18    36    1
    40    19    37    1
    41    20    38    1
    42    23    39    1
    43    25    40    1
    44    26    41    1
