@<TRIPOS>MOLECULE
*****
 37 39 0 0 0
SMALL
GASTEIGER

@<TRIPOS>ATOM
      1 F          -4.5474    1.4128    2.5836 F       1  UNL1       -0.1658
      2 C          -4.5967    1.5956    1.2110 C.3     1  UNL1        0.4192
      3 F          -3.9408    2.6973    0.7603 F       1  UNL1       -0.1658
      4 F          -5.9606    1.9284    1.0134 F       1  UNL1       -0.1658
      5 C          -4.4037    0.3591    0.4502 C.ar    1  UNL1        0.0811
      6 C          -5.3640   -0.1288   -0.4484 C.ar    1  UNL1       -0.0482
      7 C          -5.2845   -1.2801   -1.2006 C.ar    1  UNL1       -0.0611
      8 C          -4.1398   -2.0335   -1.0556 C.ar    1  UNL1       -0.0599
      9 C          -3.1740   -1.5845   -0.1812 C.ar    1  UNL1       -0.0347
     10 C          -3.2428   -0.4147    0.5898 C.ar    1  UNL1        0.1184
     11 S          -1.9375    0.0338    1.6392 S.O2    1  UNL1        0.0741
     12 O          -0.9402   -1.0954    1.6145 O.2     1  UNL1       -0.1517
     13 O          -2.3656    0.1171    3.0815 O.2     1  UNL1       -0.1517
     14 N          -1.1146    1.4578    1.2248 N.3     1  UNL1       -0.1076
     15 N           0.2162    1.1088    0.8544 N.am    1  UNL1       -0.2253
     16 C           0.7602    0.7654   -0.4183 C.2     1  UNL1        0.2941
     17 O           0.1126    0.7105   -1.4934 O.2     1  UNL1       -0.2655
     18 C           2.1858    0.4584   -0.4427 C.ar    1  UNL1        0.1918
     19 C           2.8626    0.1108   -1.5786 C.ar    1  UNL1       -0.0034
     20 C           4.1956   -0.1192   -1.2833 C.ar    1  UNL1        0.0223
     21 C           5.3450   -0.4846   -1.9601 C.ar    1  UNL1       -0.0326
     22 C           6.5090   -0.6021   -1.2374 C.ar    1  UNL1        0.0418
     23 CL          7.9381   -1.0688   -2.1476 Cl      1  UNL1       -0.0835
     24 C           6.6056   -0.3790    0.1200 C.ar    1  UNL1       -0.0399
     25 C           5.4445   -0.0125    0.7889 C.ar    1  UNL1       -0.0174
     26 C           4.2579    0.1122    0.0800 C.ar    1  UNL1        0.1360
     27 O           3.0639    0.4428    0.5098 O.2     1  UNL1       -0.4502
     28 H          -6.2829    0.4692   -0.5694 H       1  UNL1        0.0624
     29 H          -6.0748   -1.5600   -1.8557 H       1  UNL1        0.0618
     30 H          -3.9855   -2.9520   -1.6024 H       1  UNL1        0.0618
     31 H          -2.2676   -2.2045   -0.0826 H       1  UNL1        0.0637
     32 H          -1.4561    1.9614    0.3764 H       1  UNL1        0.1716
     33 H           0.7998    1.1398    1.7203 H       1  UNL1        0.1710
     34 H           2.4689    0.0125   -2.5923 H       1  UNL1        0.0663
     35 H           5.2621   -0.6579   -3.0235 H       1  UNL1        0.0639
     36 H           7.5358   -0.4790    0.6638 H       1  UNL1        0.0633
     37 H           5.5153    0.1629    1.8505 H       1  UNL1        0.0655
@<TRIPOS>BOND
     1     1     2    1
     2     2     3    1
     3     2     4    1
     4     2     5    1
     5     5     6   ar
     6     6     7   ar
     7     7     8   ar
     8     8     9   ar
     9     9    10   ar
    10    10    11    1
    11    11    12    2
    12    11    13    2
    13    11    14    1
    14    14    15    1
    15    15    16   am
    16    16    17    2
    17    16    18    1
    18    18    19   ar
    19    19    20   ar
    20    20    21   ar
    21    21    22   ar
    22    22    23    1
    23    22    24   ar
    24    24    25   ar
    25    25    26   ar
    26    26    27   ar
    27    10     5   ar
    28    27    18   ar
    29    26    20   ar
    30     6    28    1
    31     7    29    1
    32     8    30    1
    33     9    31    1
    34    14    32    1
    35    15    33    1
    36    19    34    1
    37    21    35    1
    38    24    36    1
    39    25    37    1
