@<TRIPOS>MOLECULE
*****
 33 34 0 0 0
SMALL
GASTEIGER

@<TRIPOS>ATOM
      1 O          -5.0910    2.9733    0.0028 O.2     1  UNL1       -0.1531
      2 N          -5.2042    1.7753    0.1876 N.am    1  UNL1        0.0392
      3 C          -4.2563    0.8210    0.0128 C.2     1  UNL1        0.2902
      4 O          -3.0184    1.1583   -0.1208 O.2     1  UNL1       -0.2690
      5 C          -4.5783   -0.6801    0.0381 C.3     1  UNL1        0.0988
      6 N          -3.4350   -1.2491   -0.4730 N.3     1  UNL1       -0.1810
      7 S          -2.6926   -2.2401    0.7017 S.O2    1  UNL1        0.0588
      8 O          -2.4890   -3.5492    0.6970 O.2     1  UNL1       -0.1530
      9 O          -3.1206   -1.6084    2.1012 O.2     1  UNL1       -0.1530
     10 C          -1.0262   -1.3457    0.5559 C.ar    1  UNL1        0.1053
     11 C          -0.5323   -0.2342    1.2629 C.ar    1  UNL1       -0.0348
     12 C           0.5585    0.2891    0.9307 C.ar    1  UNL1       -0.0522
     13 C           1.4283   -0.0781    0.0274 C.ar    1  UNL1       -0.0178
     14 C           1.0284   -1.2068   -0.7674 C.ar    1  UNL1       -0.0522
     15 C          -0.2068   -1.7333   -0.4746 C.ar    1  UNL1       -0.0348
     16 C           2.7815    0.5959   -0.1270 C.ar    1  UNL1       -0.0179
     17 C           2.8054    1.8157   -0.3695 C.ar    1  UNL1       -0.0540
     18 C           4.0639    2.4102   -0.6130 C.ar    1  UNL1       -0.0612
     19 C           5.1714    1.5594   -0.5186 C.ar    1  UNL1       -0.0617
     20 C           5.0874    0.2174   -0.2007 C.ar    1  UNL1       -0.0612
     21 C           3.7609   -0.2720    0.0006 C.ar    1  UNL1       -0.0540
     22 H          -5.3771   -0.6395   -0.9041 H       1  UNL1        0.0538
     23 H          -5.0845   -0.9670    0.8350 H       1  UNL1        0.0538
     24 H          -3.1196   -1.3170   -1.4071 H       1  UNL1        0.1485
     25 H          -1.1422   -0.0021    2.1555 H       1  UNL1        0.0637
     26 H           0.6965    1.4027    1.2700 H       1  UNL1        0.0624
     27 H           1.7139   -1.6707   -1.4518 H       1  UNL1        0.0624
     28 H          -0.6529   -2.4145   -1.2735 H       1  UNL1        0.0637
     29 H           1.9540    2.4678   -0.4133 H       1  UNL1        0.0624
     30 H           4.1363    3.4275   -0.8506 H       1  UNL1        0.0618
     31 H           6.1223    1.9221   -1.0360 H       1  UNL1        0.0618
     32 H           5.9961   -0.2951    0.0065 H       1  UNL1        0.0618
     33 H           3.7224   -1.3328    0.1860 H       1  UNL1        0.0624
@<TRIPOS>BOND
     1     1     2    2
     2     2     3    1
     3     3     4    2
     4     3     5    1
     5     5     6    1
     6     6     7    1
     7     7     8    2
     8     7     9    2
     9     7    10    1
    10    10    11   ar
    11    11    12   ar
    12    12    13   ar
    13    13    14   ar
    14    14    15   ar
    15    13    16    1
    16    16    17   ar
    17    17    18   ar
    18    18    19   ar
    19    19    20   ar
    20    20    21   ar
    21    15    10   ar
    22    21    16   ar
    23     5    22    1
    24     5    23    1
    25     6    24    1
    26    11    25    1
    27    12    26    1
    28    14    27    1
    29    15    28    1
    30    17    29    1
    31    18    30    1
    32    19    31    1
    33    20    32    1
    34    21    33    1
