@<TRIPOS>MOLECULE
*****
 26 28 0 0 0
SMALL
GASTEIGER

@<TRIPOS>ATOM
      1 C          -4.2682   -0.1976   -0.3098 C.3     1  UNL1        0.0167
      2 C          -3.3844    0.9938   -0.1016 C.3     1  UNL1        0.0234
      3 N          -1.9964    0.5537   -0.1917 N.pl3   1  UNL1       -0.3070
      4 C          -0.6511    0.7706   -0.7501 C.3     1  UNL1        0.0405
      5 C           0.1448    0.4523    0.4792 C.3     1  UNL1        0.0939
      6 N          -0.5771   -0.6912    0.9884 N.2     1  UNL1       -0.2537
      7 C          -1.7819   -0.6125    0.5981 C.2     1  UNL1        0.1526
      8 S          -3.3827   -1.4656    0.6838 S.3     1  UNL1       -0.0892
      9 C           1.5383    0.0574    0.2085 C.ar    1  UNL1       -0.0216
     10 C           2.3056    0.3381   -0.8867 C.ar    1  UNL1       -0.0565
     11 C           3.6119   -0.1223   -0.9692 C.ar    1  UNL1       -0.0614
     12 C           4.1902   -0.8738    0.0343 C.ar    1  UNL1       -0.0617
     13 C           3.3990   -1.1555    1.1489 C.ar    1  UNL1       -0.0614
     14 C           2.0862   -0.7016    1.2486 C.ar    1  UNL1       -0.0565
     15 H          -4.4146   -0.4964   -1.3435 H       1  UNL1        0.0396
     16 H          -5.2118    0.0048    0.2611 H       1  UNL1        0.0396
     17 H          -3.5529    1.6832   -0.9632 H       1  UNL1        0.0472
     18 H          -3.6130    1.5566    0.8018 H       1  UNL1        0.0472
     19 H          -0.5221    1.8094   -1.1008 H       1  UNL1        0.0489
     20 H          -0.4927    0.0532   -1.5727 H       1  UNL1        0.0489
     21 H           0.0621    1.3151    1.1685 H       1  UNL1        0.0611
     22 H           1.7898    0.9234   -1.6204 H       1  UNL1        0.0621
     23 H           4.1167    0.1598   -1.8747 H       1  UNL1        0.0618
     24 H           5.1997   -1.2098   -0.0669 H       1  UNL1        0.0618
     25 H           3.8408   -1.7506    1.9556 H       1  UNL1        0.0618
     26 H           1.5639   -0.9878    2.1747 H       1  UNL1        0.0621
@<TRIPOS>BOND
     1     1     2    1
     2     2     3    1
     3     3     4    1
     4     4     5    1
     5     5     6    1
     6     6     7    2
     7     7     8    1
     8     5     9    1
     9     9    10   ar
    10    10    11   ar
    11    11    12   ar
    12    12    13   ar
    13    13    14   ar
    14     8     1    1
    15    14     9   ar
    16     7     3    1
    17     1    15    1
    18     1    16    1
    19     2    17    1
    20     2    18    1
    21     4    19    1
    22     4    20    1
    23     5    21    1
    24    10    22    1
    25    11    23    1
    26    12    24    1
    27    13    25    1
    28    14    26    1
