@<TRIPOS>MOLECULE
*****
 64 67 0 0 0
SMALL
GASTEIGER

@<TRIPOS>ATOM
      1 C          -6.3400   -0.9462    0.6855 C.1     1  UNL1       -0.1186
      2 C          -5.6167    0.0125    0.8566 C.1     1  UNL1       -0.0992
      3 C          -4.7716    1.1286    1.0344 C.3     1  UNL1        0.0300
      4 C          -4.2793    1.1685    2.5090 C.3     1  UNL1       -0.0487
      5 C          -5.7695    2.3666    1.0895 C.3     1  UNL1       -0.0487
      6 C          -3.7781    1.5283    0.0835 C.3     1  UNL1        0.0076
      7 C          -2.6158    0.7364   -0.3579 C.3     1  UNL1        0.1428
      8 C          -2.8506   -0.5507   -1.0096 C.ar    1  UNL1       -0.0041
      9 C          -2.8335   -1.7743   -0.4042 C.ar    1  UNL1       -0.0548
     10 C          -3.0546   -2.9134   -1.1474 C.ar    1  UNL1       -0.0614
     11 C          -3.2941   -2.8693   -2.5006 C.ar    1  UNL1       -0.0617
     12 C          -3.3144   -1.6508   -3.1358 C.ar    1  UNL1       -0.0614
     13 C          -3.0918   -0.5182   -2.3689 C.ar    1  UNL1       -0.0548
     14 C          -1.6504    0.5152    0.7822 C.3     1  UNL1        0.0075
     15 C          -0.2356    0.2286    0.3043 C.3     1  UNL1        0.0224
     16 N           0.1928    1.5103   -0.2882 N.am    1  UNL1       -0.2605
     17 C           1.3511    2.1976    0.2090 C.3     1  UNL1        0.0515
     18 C           1.1203    2.5883    1.6734 C.3     1  UNL1       -0.0421
     19 C           2.5154    1.2870    0.2026 C.ar    1  UNL1       -0.0271
     20 C           3.4546    1.2286    1.2408 C.ar    1  UNL1       -0.0562
     21 C           4.5061    0.3348    1.1735 C.ar    1  UNL1       -0.0537
     22 C           4.6800   -0.5153    0.1213 C.ar    1  UNL1       -0.0165
     23 C           5.7805   -1.4766    0.0132 C.ar    1  UNL1       -0.0017
     24 C           5.5917   -2.6625   -0.6503 C.ar    1  UNL1       -0.0475
     25 C           6.6342   -3.5539   -0.7519 C.ar    1  UNL1        0.0034
     26 C           7.8645   -3.2574   -0.1891 C.ar    1  UNL1        0.2487
     27 O           8.8545   -4.0667   -0.2688 O.2     1  UNL1       -0.2679
     28 N           7.9939   -2.0857    0.4477 N.ar    1  UNL1       -0.3285
     29 C           7.0023   -1.2005    0.5633 C.ar    1  UNL1        0.0126
     30 C           3.7634   -0.4791   -0.9251 C.ar    1  UNL1       -0.0537
     31 C           2.7248    0.4178   -0.8369 C.ar    1  UNL1       -0.0562
     32 C          -0.6443    1.9501   -1.3448 C.2     1  UNL1        0.4042
     33 O          -0.1659    2.6186   -2.2777 O.2     1  UNL1       -0.2262
     34 O          -1.9536    1.6199   -1.2986 O.3     1  UNL1       -0.4388
     35 H          -6.9942   -1.8225    0.5430 H       1  UNL1        0.1228
     36 H          -3.6668    2.0863    2.5901 H       1  UNL1        0.0244
     37 H          -5.2170    1.2945    3.1354 H       1  UNL1        0.0244
     38 H          -3.7486    0.2702    2.7958 H       1  UNL1        0.0244
     39 H          -5.2251    3.1680    1.5857 H       1  UNL1        0.0244
     40 H          -6.1148    2.5753    0.0648 H       1  UNL1        0.0244
     41 H          -6.5768    2.0045    1.7503 H       1  UNL1        0.0244
     42 H          -3.3258    2.5109    0.4825 H       1  UNL1        0.0322
     43 H          -4.3290    1.9590   -0.8335 H       1  UNL1        0.0322
     44 H          -2.6507   -1.8927    0.6353 H       1  UNL1        0.0622
     45 H          -3.0485   -3.9127   -0.6649 H       1  UNL1        0.0618
     46 H          -3.4684   -3.7676   -3.0821 H       1  UNL1        0.0618
     47 H          -3.4982   -1.6006   -4.2063 H       1  UNL1        0.0618
     48 H          -3.1249    0.4101   -2.9402 H       1  UNL1        0.0622
     49 H          -1.9230   -0.2614    1.4826 H       1  UNL1        0.0322
     50 H          -1.5933    1.4717    1.3979 H       1  UNL1        0.0322
     51 H          -0.2428   -0.5888   -0.4118 H       1  UNL1        0.0467
     52 H           0.3875    0.0581    1.1891 H       1  UNL1        0.0467
     53 H           1.5111    3.1116   -0.3768 H       1  UNL1        0.0549
     54 H           1.9018    3.3665    1.8902 H       1  UNL1        0.0251
     55 H           0.1487    3.0626    1.8305 H       1  UNL1        0.0251
     56 H           1.2864    1.6818    2.2736 H       1  UNL1        0.0251
     57 H           3.2950    1.9111    2.0613 H       1  UNL1        0.0621
     58 H           5.2097    0.3158    1.9826 H       1  UNL1        0.0624
     59 H           4.6331   -2.9301   -1.1083 H       1  UNL1        0.0626
     60 H           6.5378   -4.5103   -1.2697 H       1  UNL1        0.0672
     61 H           8.9552   -1.9106    0.8575 H       1  UNL1        0.1683
     62 H           7.2060   -0.2770    1.0944 H       1  UNL1        0.0814
     63 H           3.9040   -1.1464   -1.7503 H       1  UNL1        0.0624
     64 H           2.0012    0.4456   -1.6523 H       1  UNL1        0.0621
@<TRIPOS>BOND
     1     1     2    3
     2     2     3    1
     3     3     4    1
     4     3     5    1
     5     3     6    1
     6     7     6    1
     7     7     8    1
     8     8     9   ar
     9     9    10   ar
    10    10    11   ar
    11    11    12   ar
    12    12    13   ar
    13     7    14    1
    14    14    15    1
    15    15    16    1
    16    16    17    1
    17    17    18    1
    18    17    19    1
    19    19    20   ar
    20    20    21   ar
    21    21    22   ar
    22    22    23    1
    23    23    24   ar
    24    24    25   ar
    25    25    26   ar
    26    26    27    2
    27    26    28   ar
    28    28    29   ar
    29    22    30   ar
    30    30    31   ar
    31    16    32   am
    32    32    33    2
    33    32    34    1
    34    34     7    1
    35    13     8   ar
    36    31    19   ar
    37    29    23   ar
    38     1    35    1
    39     4    36    1
    40     4    37    1
    41     4    38    1
    42     5    39    1
    43     5    40    1
    44     5    41    1
    45     6    42    1
    46     6    43    1
    47     9    44    1
    48    10    45    1
    49    11    46    1
    50    12    47    1
    51    13    48    1
    52    14    49    1
    53    14    50    1
    54    15    51    1
    55    15    52    1
    56    17    53    1
    57    18    54    1
    58    18    55    1
    59    18    56    1
    60    20    57    1
    61    21    58    1
    62    24    59    1
    63    25    60    1
    64    28    61    1
    65    29    62    1
    66    30    63    1
    67    31    64    1
