
     RDKit          3D

 16 17  0  0  0  0  0  0  0  0999 V2000
   -2.9943    0.2479    0.1518 N   0  0  0  0  0  0  0  0  0  0  0  0
   -1.5784    0.3042    0.1250 C   0  0  0  0  0  0  0  0  0  0  0  0
   -1.0200    1.4445    0.5642 N   0  0  0  0  0  0  0  0  0  0  0  0
    0.3202    1.5511    0.5602 C   0  0  0  0  0  0  0  0  0  0  0  0
    0.9973    2.5421    0.9352 O   0  0  0  0  0  0  0  0  0  0  0  0
    0.9873    0.4376    0.0888 C   0  0  0  0  0  0  0  0  0  0  0  0
    0.3842   -0.7403   -0.3640 C   0  0  0  0  0  0  0  0  0  0  0  0
   -0.9597   -0.7938   -0.3385 N   0  0  0  0  0  0  0  0  0  0  0  0
    1.3386   -1.6082   -0.7466 N   0  0  0  0  0  0  0  0  0  0  0  0
    2.5559   -1.0360   -0.5590 C   0  0  0  0  0  0  0  0  0  0  0  0
    2.3196    0.1886   -0.0580 N   0  0  0  0  0  0  0  0  0  0  0  0
   -3.4532   -0.5420    0.6932 H   0  0  0  0  0  0  0  0  0  0  0  0
   -4.0209    0.2072    0.1712 H   0  0  0  0  0  0  0  0  0  0  0  0
   -1.4891   -1.6287   -0.6558 H   0  0  0  0  0  0  0  0  0  0  0  0
    3.5403   -1.4435   -0.7574 H   0  0  0  0  0  0  0  0  0  0  0  0
    3.0722    0.8693    0.1895 H   0  0  0  0  0  0  0  0  0  0  0  0
  1  2  1  0
  2  3  2  0
  3  4  1  0
  4  5  2  0
  4  6  1  0
  6  7  2  0
  7  8  1  0
  7  9  1  0
  9 10  2  0
 10 11  1  0
  8  2  1  0
 11  6  1  0
  1 12  1  0
  1 13  1  0
  8 14  1  0
 10 15  1  0
 11 16  1  0
M  END
$$$$
