@<TRIPOS>MOLECULE
*****
 16 17 0 0 0
SMALL
GASTEIGER

@<TRIPOS>ATOM
      1 N          -2.9943    0.2479    0.1518 N.pl3   1  UNL1       -0.3289
      2 C          -1.5784    0.3042    0.1250 C.ar    1  UNL1        0.1953
      3 N          -1.0200    1.4445    0.5642 N.ar    1  UNL1       -0.1757
      4 C           0.3202    1.5511    0.5602 C.ar    1  UNL1        0.3001
      5 O           0.9973    2.5421    0.9352 O.2     1  UNL1       -0.2634
      6 C           0.9873    0.4376    0.0888 C.ar    1  UNL1        0.1503
      7 C           0.3842   -0.7403   -0.3640 C.ar    1  UNL1        0.1640
      8 N          -0.9597   -0.7938   -0.3385 N.ar    1  UNL1       -0.3109
      9 N           1.3386   -1.6082   -0.7466 N.ar    1  UNL1       -0.2182
     10 C           2.5559   -1.0360   -0.5590 C.ar    1  UNL1        0.0963
     11 N           2.3196    0.1886   -0.0580 N.ar    1  UNL1       -0.3389
     12 H          -3.4532   -0.5420    0.6932 H       1  UNL1        0.1451
     13 H          -4.0209    0.2072    0.1712 H       1  UNL1        0.1451
     14 H          -1.4891   -1.6287   -0.6558 H       1  UNL1        0.1701
     15 H           3.5403   -1.4435   -0.7574 H       1  UNL1        0.1027
     16 H           3.0722    0.8693    0.1895 H       1  UNL1        0.1670
@<TRIPOS>BOND
     1     1     2    1
     2     2     3   ar
     3     3     4   ar
     4     4     5    2
     5     4     6   ar
     6     6     7   ar
     7     7     8   ar
     8     7     9   ar
     9     9    10   ar
    10    10    11   ar
    11     8     2   ar
    12    11     6   ar
    13     1    12    1
    14     1    13    1
    15     8    14    1
    16    10    15    1
    17    11    16    1
