@<TRIPOS>MOLECULE
*****
 24 25 0 0 0
SMALL
GASTEIGER

@<TRIPOS>ATOM
      1 O          -2.7968    2.5584   -0.5757 O.3     1  UNL1       -0.4783
      2 C          -2.7312    1.9149    0.6423 C.2     1  UNL1        0.3427
      3 O          -3.4876    2.2255    1.5843 O.2     1  UNL1       -0.2472
      4 C          -1.7682    0.8065    0.9459 C.3     1  UNL1        0.1858
      5 O          -1.0067    0.5871   -0.1986 O.3     1  UNL1       -0.4788
      6 C           0.0035   -0.3617   -0.3368 C.ar    1  UNL1        0.1516
      7 C          -0.4183   -1.5732   -0.8001 C.ar    1  UNL1        0.1402
      8 S           1.1377   -2.5439   -0.8526 S.2     1  UNL1       -0.0585
      9 C           2.1788   -1.2299   -0.2521 C.ar    1  UNL1        0.1125
     10 N           3.5051   -1.2386   -0.0319 N.ar    1  UNL1       -0.2477
     11 C           4.1315   -0.1423    0.4283 C.ar    1  UNL1        0.0289
     12 C           3.2899    0.9307    0.6341 C.ar    1  UNL1       -0.0428
     13 C           1.9320    0.9630    0.4163 C.ar    1  UNL1       -0.0471
     14 C           1.3353   -0.1897   -0.0572 C.ar    1  UNL1        0.0502
     15 C          -1.6529   -2.1467   -1.1989 C.2     1  UNL1        0.3472
     16 O          -1.7690   -3.4428   -1.6323 O.3     1  UNL1       -0.4767
     17 O          -2.6696   -1.4149   -1.1437 O.2     1  UNL1       -0.2444
     18 H          -3.4702    3.3157   -0.7322 H       1  UNL1        0.2952
     19 H          -2.3720   -0.0700    1.2194 H       1  UNL1        0.0815
     20 H          -1.1156    1.1432    1.7955 H       1  UNL1        0.0815
     21 H           5.1901   -0.0855    0.6246 H       1  UNL1        0.0830
     22 H           3.7590    1.8552    1.0123 H       1  UNL1        0.0633
     23 H           1.3905    1.8981    0.6279 H       1  UNL1        0.0626
     24 H          -2.5951   -3.7591   -2.1189 H       1  UNL1        0.2954
@<TRIPOS>BOND
     1     1     2    1
     2     2     3    2
     3     2     4    1
     4     4     5    1
     5     5     6    1
     6     6     7   ar
     7     7     8   ar
     8     8     9   ar
     9     9    10   ar
    10    10    11   ar
    11    11    12   ar
    12    12    13   ar
    13    13    14   ar
    14     7    15    1
    15    15    16    1
    16    15    17    2
    17    14     6   ar
    18    14     9   ar
    19     1    18    1
    20     4    19    1
    21     4    20    1
    22    11    21    1
    23    12    22    1
    24    13    23    1
    25    16    24    1
