@<TRIPOS>MOLECULE
*****
 40 42 0 0 0
SMALL
GASTEIGER

@<TRIPOS>ATOM
      1 C           1.5138   -2.8834    1.1542 C.3     1  UNL1       -0.0470
      2 C           1.7189   -2.2590   -0.1847 C.3     1  UNL1        0.0218
      3 N           2.1826   -0.8859   -0.1346 N.ar    1  UNL1       -0.3311
      4 C           3.5024   -0.6080   -0.1158 C.ar    1  UNL1        0.0242
      5 C           3.9125    0.7086   -0.0681 C.ar    1  UNL1        0.1221
      6 C           5.3561    0.9182   -0.0505 C.2     1  UNL1        0.3420
      7 O           5.9988    2.1440   -0.0042 O.3     1  UNL1       -0.4770
      8 O           6.2166   -0.0132   -0.0760 O.2     1  UNL1       -0.2449
      9 C           3.0186    1.7603   -0.0387 C.ar    1  UNL1        0.2050
     10 O           3.4259    2.9492    0.0046 O.2     1  UNL1       -0.2862
     11 C           1.6859    1.3993   -0.0605 C.ar    1  UNL1        0.0678
     12 C           0.7283    2.3924   -0.0336 C.ar    1  UNL1       -0.0087
     13 C          -0.6038    2.0299   -0.0554 C.ar    1  UNL1        0.1639
     14 F          -1.4995    3.0177   -0.0282 F       1  UNL1       -0.2019
     15 C          -1.0410    0.7265   -0.1028 C.ar    1  UNL1        0.1592
     16 N          -0.0415   -0.1972   -0.1271 N.ar    1  UNL1       -0.2113
     17 C           1.2521    0.0912   -0.1081 C.ar    1  UNL1        0.1467
     18 N          -2.4065    0.3366   -0.1256 N.pl3   1  UNL1       -0.3104
     19 C          -2.7176   -1.0857   -0.1765 C.3     1  UNL1        0.0261
     20 C          -4.0977   -1.3977   -0.6268 C.3     1  UNL1        0.0117
     21 N          -4.8084   -0.2616   -1.1692 N.3     1  UNL1       -0.3130
     22 C          -4.8152    0.7681   -0.1573 C.3     1  UNL1        0.0117
     23 C          -3.4178    1.3463   -0.0980 C.3     1  UNL1        0.0261
     24 H           1.8321   -3.9469    1.1201 H       1  UNL1        0.0247
     25 H           2.1416   -2.4036    1.9324 H       1  UNL1        0.0247
     26 H           0.4327   -2.9225    1.4465 H       1  UNL1        0.0247
     27 H           0.7689   -2.3112   -0.7639 H       1  UNL1        0.0489
     28 H           2.4850   -2.8428   -0.7369 H       1  UNL1        0.0489
     29 H           4.1992   -1.4330   -0.1388 H       1  UNL1        0.0819
     30 H           6.8475    2.3590   -0.5469 H       1  UNL1        0.2954
     31 H           1.0198    3.4432    0.0042 H       1  UNL1        0.0655
     32 H          -1.9172   -1.5554   -0.8185 H       1  UNL1        0.0477
     33 H          -2.5141   -1.5087    0.8483 H       1  UNL1        0.0477
     34 H          -4.0417   -2.1627   -1.4367 H       1  UNL1        0.0439
     35 H          -4.7427   -1.7906    0.2075 H       1  UNL1        0.0439
     36 H          -4.2124    0.0942   -1.9614 H       1  UNL1        0.1220
     37 H          -5.1508    0.3400    0.8038 H       1  UNL1        0.0439
     38 H          -5.4975    1.6092   -0.4704 H       1  UNL1        0.0439
     39 H          -3.3788    2.0077    0.8133 H       1  UNL1        0.0477
     40 H          -3.3349    2.0273   -0.9827 H       1  UNL1        0.0477
@<TRIPOS>BOND
     1     1     2    1
     2     2     3    1
     3     3     4   ar
     4     4     5   ar
     5     5     6    1
     6     6     7    1
     7     6     8    2
     8     5     9   ar
     9     9    10    2
    10     9    11   ar
    11    11    12   ar
    12    12    13   ar
    13    13    14    1
    14    13    15   ar
    15    15    16   ar
    16    16    17   ar
    17    15    18    1
    18    18    19    1
    19    19    20    1
    20    20    21    1
    21    21    22    1
    22    22    23    1
    23    17     3   ar
    24    23    18    1
    25    17    11   ar
    26     1    24    1
    27     1    25    1
    28     1    26    1
    29     2    27    1
    30     2    28    1
    31     4    29    1
    32     7    30    1
    33    12    31    1
    34    19    32    1
    35    19    33    1
    36    20    34    1
    37    20    35    1
    38    21    36    1
    39    22    37    1
    40    22    38    1
    41    23    39    1
    42    23    40    1
