
     RDKit          3D

 40 42  0  0  0  0  0  0  0  0999 V2000
    1.5138   -2.8834    1.1542 C   0  0  0  0  0  0  0  0  0  0  0  0
    1.7189   -2.2590   -0.1847 C   0  0  0  0  0  0  0  0  0  0  0  0
    2.1826   -0.8859   -0.1346 N   0  0  0  0  0  0  0  0  0  0  0  0
    3.5024   -0.6080   -0.1158 C   0  0  0  0  0  0  0  0  0  0  0  0
    3.9125    0.7086   -0.0681 C   0  0  0  0  0  0  0  0  0  0  0  0
    5.3561    0.9182   -0.0505 C   0  0  0  0  0  0  0  0  0  0  0  0
    5.9988    2.1440   -0.0042 O   0  0  0  0  0  0  0  0  0  0  0  0
    6.2166   -0.0132   -0.0760 O   0  0  0  0  0  0  0  0  0  0  0  0
    3.0186    1.7603   -0.0387 C   0  0  0  0  0  0  0  0  0  0  0  0
    3.4259    2.9492    0.0046 O   0  0  0  0  0  0  0  0  0  0  0  0
    1.6859    1.3993   -0.0605 C   0  0  0  0  0  0  0  0  0  0  0  0
    0.7283    2.3924   -0.0336 C   0  0  0  0  0  0  0  0  0  0  0  0
   -0.6038    2.0299   -0.0554 C   0  0  0  0  0  0  0  0  0  0  0  0
   -1.4995    3.0177   -0.0282 F   0  0  0  0  0  0  0  0  0  0  0  0
   -1.0410    0.7265   -0.1028 C   0  0  0  0  0  0  0  0  0  0  0  0
   -0.0415   -0.1972   -0.1271 N   0  0  0  0  0  0  0  0  0  0  0  0
    1.2521    0.0912   -0.1081 C   0  0  0  0  0  0  0  0  0  0  0  0
   -2.4065    0.3366   -0.1256 N   0  0  0  0  0  0  0  0  0  0  0  0
   -2.7176   -1.0857   -0.1765 C   0  0  0  0  0  0  0  0  0  0  0  0
   -4.0977   -1.3977   -0.6268 C   0  0  0  0  0  0  0  0  0  0  0  0
   -4.8084   -0.2616   -1.1692 N   0  0  0  0  0  0  0  0  0  0  0  0
   -4.8152    0.7681   -0.1573 C   0  0  0  0  0  0  0  0  0  0  0  0
   -3.4178    1.3463   -0.0980 C   0  0  0  0  0  0  0  0  0  0  0  0
    1.8321   -3.9469    1.1201 H   0  0  0  0  0  0  0  0  0  0  0  0
    2.1416   -2.4036    1.9324 H   0  0  0  0  0  0  0  0  0  0  0  0
    0.4327   -2.9225    1.4465 H   0  0  0  0  0  0  0  0  0  0  0  0
    0.7689   -2.3112   -0.7639 H   0  0  0  0  0  0  0  0  0  0  0  0
    2.4850   -2.8428   -0.7369 H   0  0  0  0  0  0  0  0  0  0  0  0
    4.1992   -1.4330   -0.1388 H   0  0  0  0  0  0  0  0  0  0  0  0
    6.8475    2.3590   -0.5469 H   0  0  0  0  0  0  0  0  0  0  0  0
    1.0198    3.4432    0.0042 H   0  0  0  0  0  0  0  0  0  0  0  0
   -1.9172   -1.5554   -0.8185 H   0  0  0  0  0  0  0  0  0  0  0  0
   -2.5141   -1.5087    0.8483 H   0  0  0  0  0  0  0  0  0  0  0  0
   -4.0417   -2.1627   -1.4367 H   0  0  0  0  0  0  0  0  0  0  0  0
   -4.7427   -1.7906    0.2075 H   0  0  0  0  0  0  0  0  0  0  0  0
   -4.2124    0.0942   -1.9614 H   0  0  0  0  0  0  0  0  0  0  0  0
   -5.1508    0.3400    0.8038 H   0  0  0  0  0  0  0  0  0  0  0  0
   -5.4975    1.6092   -0.4704 H   0  0  0  0  0  0  0  0  0  0  0  0
   -3.3788    2.0077    0.8133 H   0  0  0  0  0  0  0  0  0  0  0  0
   -3.3349    2.0273   -0.9827 H   0  0  0  0  0  0  0  0  0  0  0  0
  1  2  1  0
  2  3  1  0
  3  4  1  0
  4  5  2  0
  5  6  1  0
  6  7  1  0
  6  8  2  0
  5  9  1  0
  9 10  2  0
  9 11  1  0
 11 12  2  0
 12 13  1  0
 13 14  1  0
 13 15  2  0
 15 16  1  0
 16 17  2  0
 15 18  1  0
 18 19  1  0
 19 20  1  0
 20 21  1  0
 21 22  1  0
 22 23  1  0
 17  3  1  0
 23 18  1  0
 17 11  1  0
  1 24  1  0
  1 25  1  0
  1 26  1  0
  2 27  1  0
  2 28  1  0
  4 29  1  0
  7 30  1  0
 12 31  1  0
 19 32  1  0
 19 33  1  0
 20 34  1  0
 20 35  1  0
 21 36  1  0
 22 37  1  0
 22 38  1  0
 23 39  1  0
 23 40  1  0
M  END
$$$$
