@<TRIPOS>MOLECULE
*****
 69 71 0 0 0
SMALL
GASTEIGER

@<TRIPOS>ATOM
      1 C          -4.7107    0.4806    1.6580 C.3     1  UNL1       -0.0554
      2 C          -4.4023    0.6375    0.2098 C.3     1  UNL1        0.0182
      3 C          -4.3242   -0.6062   -0.5920 C.3     1  UNL1       -0.0183
      4 C          -3.3243   -1.6334   -0.2435 C.3     1  UNL1        0.0821
      5 C          -3.4750   -2.7626   -1.2793 C.3     1  UNL1       -0.0396
      6 C          -1.9385   -1.1880   -0.0613 C.3     1  UNL1        0.1053
      7 S          -0.7450   -2.4389    0.2938 S.O2    1  UNL1        0.0339
      8 O          -1.0280   -3.2992    1.4474 O.2     1  UNL1       -0.1580
      9 O          -0.6132   -3.3120   -0.9359 O.2     1  UNL1       -0.1580
     10 N           0.8279   -1.6973    0.4779 N.3     1  UNL1       -0.1810
     11 C           1.2470   -1.0414   -0.7142 C.3     1  UNL1        0.0204
     12 C           1.2643    0.4615   -0.5998 C.3     1  UNL1       -0.0357
     13 C           2.2748    0.8816    0.4425 C.3     1  UNL1       -0.0383
     14 C           3.6815    0.8480   -0.1302 C.3     1  UNL1       -0.0447
     15 C           4.7012    1.2686    0.9021 C.3     1  UNL1       -0.0087
     16 C           6.0733    1.2539    0.3999 C.ar    1  UNL1        0.0595
     17 N           6.7040    2.4221    0.0771 N.ar    1  UNL1       -0.2579
     18 C           7.9664    2.4195   -0.3870 C.ar    1  UNL1        0.0396
     19 C           8.6577    1.2391   -0.5496 C.ar    1  UNL1        0.0742
     20 C          10.0677    1.2337   -1.0675 C.3     1  UNL1        0.4189
     21 F          10.9049    1.5424   -0.0371 F       1  UNL1       -0.1658
     22 F          10.1542    2.2876   -1.9863 F       1  UNL1       -0.1658
     23 F          10.3401    0.0462   -1.6865 F       1  UNL1       -0.1658
     24 C           8.0417    0.0523   -0.2308 C.ar    1  UNL1       -0.0285
     25 C           6.7391    0.0577    0.2480 C.ar    1  UNL1        0.0627
     26 CL          5.9088   -1.4088    0.6680 Cl      1  UNL1       -0.0817
     27 C           2.1106    0.0234    1.6556 C.3     1  UNL1       -0.0357
     28 C           0.8416   -0.8135    1.6013 C.3     1  UNL1        0.0204
     29 N          -3.7866   -2.2723    1.0052 N.am    1  UNL1       -0.1788
     30 O          -3.1191   -2.1154    2.1641 O.3     1  UNL1       -0.2921
     31 C          -4.9624   -3.0563    1.0337 C.2     1  UNL1        0.2256
     32 O          -5.6327   -3.2318   -0.0020 O.2     1  UNL1       -0.2772
     33 C          -5.5386    1.4339   -0.3731 C.ar    1  UNL1        0.1320
     34 N          -5.3018    2.6395   -0.8986 N.ar    1  UNL1       -0.2372
     35 C          -6.2468    3.4282   -1.4441 C.ar    1  UNL1        0.0663
     36 C          -7.5376    2.9713   -1.4652 C.ar    1  UNL1        0.1594
     37 F          -8.5151    3.7352   -2.0050 F       1  UNL1       -0.2023
     38 C          -7.7783    1.7217   -0.9196 C.ar    1  UNL1        0.0663
     39 N          -6.7891    0.9644   -0.3808 N.ar    1  UNL1       -0.2372
     40 H          -5.3956   -0.3714    1.8000 H       1  UNL1        0.0236
     41 H          -5.3195    1.3661    2.0483 H       1  UNL1        0.0236
     42 H          -3.8276    0.4833    2.3176 H       1  UNL1        0.0236
     43 H          -3.4930    1.2999    0.0483 H       1  UNL1        0.0377
     44 H          -5.3713   -1.0320   -0.6055 H       1  UNL1        0.0294
     45 H          -4.2103   -0.2673   -1.6723 H       1  UNL1        0.0294
     46 H          -3.5100   -3.7583   -0.8158 H       1  UNL1        0.0252
     47 H          -2.6352   -2.7216   -2.0067 H       1  UNL1        0.0252
     48 H          -4.3957   -2.6403   -1.8822 H       1  UNL1        0.0252
     49 H          -1.8815   -0.4657    0.8095 H       1  UNL1        0.0538
     50 H          -1.5164   -0.6084   -0.9102 H       1  UNL1        0.0538
     51 H           2.3038   -1.3532   -0.9138 H       1  UNL1        0.0444
     52 H           0.6653   -1.3720   -1.6172 H       1  UNL1        0.0444
     53 H           0.2674    0.9039   -0.4184 H       1  UNL1        0.0281
     54 H           1.6448    0.8751   -1.5769 H       1  UNL1        0.0281
     55 H           2.0000    1.9519    0.6883 H       1  UNL1        0.0302
     56 H           3.8989   -0.2238   -0.3568 H       1  UNL1        0.0272
     57 H           3.6984    1.5022   -1.0013 H       1  UNL1        0.0272
     58 H           4.5903    0.6414    1.8183 H       1  UNL1        0.0329
     59 H           4.4482    2.3061    1.2024 H       1  UNL1        0.0329
     60 H           8.4962    3.3292   -0.6527 H       1  UNL1        0.0835
     61 H           8.5301   -0.9165   -0.3353 H       1  UNL1        0.0639
     62 H           2.9422   -0.6936    1.8028 H       1  UNL1        0.0281
     63 H           2.0107    0.6762    2.5444 H       1  UNL1        0.0281
     64 H           0.8286   -1.4144    2.5346 H       1  UNL1        0.0444
     65 H          -0.0582   -0.1502    1.6576 H       1  UNL1        0.0444
     66 H          -3.3469   -2.7945    2.8288 H       1  UNL1        0.2417
     67 H          -5.2875   -3.5070    1.9486 H       1  UNL1        0.1274
     68 H          -6.0229    4.4085   -1.8657 H       1  UNL1        0.0860
     69 H          -8.7908    1.3737   -0.9409 H       1  UNL1        0.0860
@<TRIPOS>BOND
     1     1     2    1
     2     2     3    1
     3     3     4    1
     4     4     5    1
     5     4     6    1
     6     6     7    1
     7     7     8    2
     8     7     9    2
     9     7    10    1
    10    10    11    1
    11    11    12    1
    12    12    13    1
    13    13    14    1
    14    14    15    1
    15    15    16    1
    16    16    17   ar
    17    17    18   ar
    18    18    19   ar
    19    19    20    1
    20    20    21    1
    21    20    22    1
    22    20    23    1
    23    19    24   ar
    24    24    25   ar
    25    25    26    1
    26    13    27    1
    27    27    28    1
    28     4    29    1
    29    29    30    1
    30    29    31   am
    31    31    32    2
    32     2    33    1
    33    33    34   ar
    34    34    35   ar
    35    35    36   ar
    36    36    37    1
    37    36    38   ar
    38    38    39   ar
    39    28    10    1
    40    39    33   ar
    41    25    16   ar
    42     1    40    1
    43     1    41    1
    44     1    42    1
    45     2    43    1
    46     3    44    1
    47     3    45    1
    48     5    46    1
    49     5    47    1
    50     5    48    1
    51     6    49    1
    52     6    50    1
    53    11    51    1
    54    11    52    1
    55    12    53    1
    56    12    54    1
    57    13    55    1
    58    14    56    1
    59    14    57    1
    60    15    58    1
    61    15    59    1
    62    18    60    1
    63    24    61    1
    64    27    62    1
    65    27    63    1
    66    28    64    1
    67    28    65    1
    68    30    66    1
    69    31    67    1
    70    35    68    1
    71    38    69    1
