
     RDKit          3D

 69 71  0  0  0  0  0  0  0  0999 V2000
   -4.7107    0.4806    1.6580 C   0  0  0  0  0  0  0  0  0  0  0  0
   -4.4023    0.6375    0.2098 C   0  0  1  0  0  0  0  0  0  0  0  0
   -4.3242   -0.6062   -0.5920 C   0  0  0  0  0  0  0  0  0  0  0  0
   -3.3243   -1.6334   -0.2435 C   0  0  1  0  0  0  0  0  0  0  0  0
   -3.4750   -2.7626   -1.2793 C   0  0  0  0  0  0  0  0  0  0  0  0
   -1.9385   -1.1880   -0.0613 C   0  0  0  0  0  0  0  0  0  0  0  0
   -0.7450   -2.4389    0.2938 S   0  0  0  0  0  6  0  0  0  0  0  0
   -1.0280   -3.2992    1.4474 O   0  0  0  0  0  0  0  0  0  0  0  0
   -0.6132   -3.3120   -0.9359 O   0  0  0  0  0  0  0  0  0  0  0  0
    0.8279   -1.6973    0.4779 N   0  0  0  0  0  0  0  0  0  0  0  0
    1.2470   -1.0414   -0.7142 C   0  0  0  0  0  0  0  0  0  0  0  0
    1.2643    0.4615   -0.5998 C   0  0  0  0  0  0  0  0  0  0  0  0
    2.2748    0.8816    0.4425 C   0  0  0  0  0  0  0  0  0  0  0  0
    3.6815    0.8480   -0.1302 C   0  0  0  0  0  0  0  0  0  0  0  0
    4.7012    1.2686    0.9021 C   0  0  0  0  0  0  0  0  0  0  0  0
    6.0733    1.2539    0.3999 C   0  0  0  0  0  0  0  0  0  0  0  0
    6.7040    2.4221    0.0771 N   0  0  0  0  0  0  0  0  0  0  0  0
    7.9664    2.4195   -0.3870 C   0  0  0  0  0  0  0  0  0  0  0  0
    8.6577    1.2391   -0.5496 C   0  0  0  0  0  0  0  0  0  0  0  0
   10.0677    1.2337   -1.0675 C   0  0  0  0  0  0  0  0  0  0  0  0
   10.9049    1.5424   -0.0371 F   0  0  0  0  0  0  0  0  0  0  0  0
   10.1542    2.2876   -1.9863 F   0  0  0  0  0  0  0  0  0  0  0  0
   10.3401    0.0462   -1.6865 F   0  0  0  0  0  0  0  0  0  0  0  0
    8.0417    0.0523   -0.2308 C   0  0  0  0  0  0  0  0  0  0  0  0
    6.7391    0.0577    0.2480 C   0  0  0  0  0  0  0  0  0  0  0  0
    5.9088   -1.4088    0.6680 Cl  0  0  0  0  0  0  0  0  0  0  0  0
    2.1106    0.0234    1.6556 C   0  0  0  0  0  0  0  0  0  0  0  0
    0.8416   -0.8135    1.6013 C   0  0  0  0  0  0  0  0  0  0  0  0
   -3.7866   -2.2723    1.0052 N   0  0  0  0  0  0  0  0  0  0  0  0
   -3.1191   -2.1154    2.1641 O   0  0  0  0  0  0  0  0  0  0  0  0
   -4.9624   -3.0563    1.0337 C   0  0  0  0  0  0  0  0  0  0  0  0
   -5.6327   -3.2318   -0.0020 O   0  0  0  0  0  0  0  0  0  0  0  0
   -5.5386    1.4339   -0.3731 C   0  0  0  0  0  0  0  0  0  0  0  0
   -5.3018    2.6395   -0.8986 N   0  0  0  0  0  0  0  0  0  0  0  0
   -6.2468    3.4282   -1.4441 C   0  0  0  0  0  0  0  0  0  0  0  0
   -7.5376    2.9713   -1.4652 C   0  0  0  0  0  0  0  0  0  0  0  0
   -8.5151    3.7352   -2.0050 F   0  0  0  0  0  0  0  0  0  0  0  0
   -7.7783    1.7217   -0.9196 C   0  0  0  0  0  0  0  0  0  0  0  0
   -6.7891    0.9644   -0.3808 N   0  0  0  0  0  0  0  0  0  0  0  0
   -5.3956   -0.3714    1.8000 H   0  0  0  0  0  0  0  0  0  0  0  0
   -5.3195    1.3661    2.0483 H   0  0  0  0  0  0  0  0  0  0  0  0
   -3.8276    0.4833    2.3176 H   0  0  0  0  0  0  0  0  0  0  0  0
   -3.4930    1.2999    0.0483 H   0  0  0  0  0  0  0  0  0  0  0  0
   -5.3713   -1.0320   -0.6055 H   0  0  0  0  0  0  0  0  0  0  0  0
   -4.2103   -0.2673   -1.6723 H   0  0  0  0  0  0  0  0  0  0  0  0
   -3.5100   -3.7583   -0.8158 H   0  0  0  0  0  0  0  0  0  0  0  0
   -2.6352   -2.7216   -2.0067 H   0  0  0  0  0  0  0  0  0  0  0  0
   -4.3957   -2.6403   -1.8822 H   0  0  0  0  0  0  0  0  0  0  0  0
   -1.8815   -0.4657    0.8095 H   0  0  0  0  0  0  0  0  0  0  0  0
   -1.5164   -0.6084   -0.9102 H   0  0  0  0  0  0  0  0  0  0  0  0
    2.3038   -1.3532   -0.9138 H   0  0  0  0  0  0  0  0  0  0  0  0
    0.6653   -1.3720   -1.6172 H   0  0  0  0  0  0  0  0  0  0  0  0
    0.2674    0.9039   -0.4184 H   0  0  0  0  0  0  0  0  0  0  0  0
    1.6448    0.8751   -1.5769 H   0  0  0  0  0  0  0  0  0  0  0  0
    2.0000    1.9519    0.6883 H   0  0  0  0  0  0  0  0  0  0  0  0
    3.8989   -0.2238   -0.3568 H   0  0  0  0  0  0  0  0  0  0  0  0
    3.6984    1.5022   -1.0013 H   0  0  0  0  0  0  0  0  0  0  0  0
    4.5903    0.6414    1.8183 H   0  0  0  0  0  0  0  0  0  0  0  0
    4.4482    2.3061    1.2024 H   0  0  0  0  0  0  0  0  0  0  0  0
    8.4962    3.3292   -0.6527 H   0  0  0  0  0  0  0  0  0  0  0  0
    8.5301   -0.9165   -0.3353 H   0  0  0  0  0  0  0  0  0  0  0  0
    2.9422   -0.6936    1.8028 H   0  0  0  0  0  0  0  0  0  0  0  0
    2.0107    0.6762    2.5444 H   0  0  0  0  0  0  0  0  0  0  0  0
    0.8286   -1.4144    2.5346 H   0  0  0  0  0  0  0  0  0  0  0  0
   -0.0582   -0.1502    1.6576 H   0  0  0  0  0  0  0  0  0  0  0  0
   -3.3469   -2.7945    2.8288 H   0  0  0  0  0  0  0  0  0  0  0  0
   -5.2875   -3.5070    1.9486 H   0  0  0  0  0  0  0  0  0  0  0  0
   -6.0229    4.4085   -1.8657 H   0  0  0  0  0  0  0  0  0  0  0  0
   -8.7908    1.3737   -0.9409 H   0  0  0  0  0  0  0  0  0  0  0  0
  1  2  1  0
  2  3  1  0
  3  4  1  0
  4  5  1  0
  4  6  1  0
  6  7  1  0
  7  8  2  0
  7  9  2  0
  7 10  1  0
 10 11  1  0
 11 12  1  0
 12 13  1  0
 13 14  1  0
 14 15  1  0
 15 16  1  0
 16 17  2  0
 17 18  1  0
 18 19  2  0
 19 20  1  0
 20 21  1  0
 20 22  1  0
 20 23  1  0
 19 24  1  0
 24 25  2  0
 25 26  1  0
 13 27  1  0
 27 28  1  0
  4 29  1  1
 29 30  1  0
 29 31  1  0
 31 32  2  0
  2 33  1  0
 33 34  2  0
 34 35  1  0
 35 36  2  0
 36 37  1  0
 36 38  1  0
 38 39  2  0
 28 10  1  0
 39 33  1  0
 25 16  1  0
  1 40  1  0
  1 41  1  0
  1 42  1  0
  2 43  1  1
  3 44  1  0
  3 45  1  0
  5 46  1  0
  5 47  1  0
  5 48  1  0
  6 49  1  0
  6 50  1  0
 11 51  1  0
 11 52  1  0
 12 53  1  0
 12 54  1  0
 13 55  1  0
 14 56  1  0
 14 57  1  0
 15 58  1  0
 15 59  1  0
 18 60  1  0
 24 61  1  0
 27 62  1  0
 27 63  1  0
 28 64  1  0
 28 65  1  0
 30 66  1  0
 31 67  1  0
 35 68  1  0
 38 69  1  0
M  END
$$$$
