
     RDKit          3D

 59 64  0  0  0  0  0  0  0  0999 V2000
   10.1287   -0.8630    0.8119 C   0  0  0  0  0  0  0  0  0  0  0  0
    9.3143   -0.4451   -0.2401 O   0  0  0  0  0  0  0  0  0  0  0  0
    7.9524   -0.3734   -0.2341 C   0  0  0  0  0  0  0  0  0  0  0  0
    7.1543   -0.7127    0.8425 C   0  0  0  0  0  0  0  0  0  0  0  0
    5.7649   -0.6149    0.7790 C   0  0  0  0  0  0  0  0  0  0  0  0
    5.1746   -0.1773   -0.3624 C   0  0  0  0  0  0  0  0  0  0  0  0
    3.7083   -0.0491   -0.4995 C   0  0  0  0  0  0  0  0  0  0  0  0
    3.0147   -0.3593    0.4797 O   0  0  0  0  0  0  0  0  0  0  0  0
    3.1043    0.4054   -1.6872 N   0  0  0  0  0  0  0  0  0  0  0  0
    1.7153    0.5659   -1.9268 C   0  0  0  0  0  0  0  0  0  0  0  0
    1.3592    1.0345   -3.1983 C   0  0  0  0  0  0  0  0  0  0  0  0
    0.0427    1.2306   -3.5483 C   0  0  0  0  0  0  0  0  0  0  0  0
   -0.9650    0.9670   -2.6451 C   0  0  0  0  0  0  0  0  0  0  0  0
   -0.6680    0.5081   -1.3953 C   0  0  0  0  0  0  0  0  0  0  0  0
    0.7008    0.3184   -1.0689 C   0  0  0  0  0  0  0  0  0  0  0  0
   -1.6515    0.1704   -0.3367 C   0  0  0  0  0  0  0  0  0  0  0  0
   -1.5662   -1.3181   -0.1235 C   0  0  0  0  0  0  0  0  0  0  0  0
   -0.9962   -1.7409    1.1716 C   0  0  0  0  0  0  0  0  0  0  0  0
   -1.4378   -0.8960    2.2107 O   0  0  0  0  0  0  0  0  0  0  0  0
   -1.2551    0.4732    2.0258 C   0  0  0  0  0  0  0  0  0  0  0  0
   -0.9663    1.2633    3.1706 N   0  0  0  0  0  0  0  0  0  0  0  0
   -1.3543    0.9623    0.8436 N   0  0  0  0  0  0  0  0  0  0  0  0
   -3.0328    0.4374   -0.8012 C   0  0  0  0  0  0  0  0  0  0  0  0
   -4.0993    0.1862    0.0986 C   0  0  0  0  0  0  0  0  0  0  0  0
   -5.4049    0.3889   -0.2492 C   0  0  0  0  0  0  0  0  0  0  0  0
   -6.5152    0.1364    0.6622 C   0  0  0  0  0  0  0  0  0  0  0  0
   -6.2965   -0.3240    1.9321 C   0  0  0  0  0  0  0  0  0  0  0  0
   -7.4057   -0.5459    2.7565 C   0  0  0  0  0  0  0  0  0  0  0  0
   -8.6543   -0.3168    2.3238 N   0  0  0  0  0  0  0  0  0  0  0  0
   -8.8856    0.1342    1.0828 C   0  0  0  0  0  0  0  0  0  0  0  0
  -10.1275    0.3795    0.6030 F   0  0  0  0  0  0  0  0  0  0  0  0
   -7.8121    0.3571    0.2619 C   0  0  0  0  0  0  0  0  0  0  0  0
   -5.6423    0.8488   -1.5143 N   0  0  0  0  0  0  0  0  0  0  0  0
   -4.6531    1.0946   -2.3843 C   0  0  0  0  0  0  0  0  0  0  0  0
   -4.8844    1.5517   -3.6421 F   0  0  0  0  0  0  0  0  0  0  0  0
   -3.3050    0.8926   -2.0449 C   0  0  0  0  0  0  0  0  0  0  0  0
   -2.3035    1.1592   -2.9682 O   0  0  0  0  0  0  0  0  0  0  0  0
    5.9578    0.1513   -1.4064 N   0  0  0  0  0  0  0  0  0  0  0  0
    7.3014    0.0655   -1.3698 C   0  0  0  0  0  0  0  0  0  0  0  0
   10.2165   -0.0317    1.5367 H   0  0  0  0  0  0  0  0  0  0  0  0
    9.7888   -1.7952    1.3049 H   0  0  0  0  0  0  0  0  0  0  0  0
   11.1337   -1.1104    0.3699 H   0  0  0  0  0  0  0  0  0  0  0  0
    7.6496   -1.0558    1.7323 H   0  0  0  0  0  0  0  0  0  0  0  0
    5.1720   -0.8833    1.6247 H   0  0  0  0  0  0  0  0  0  0  0  0
    3.8123    0.6408   -2.4582 H   0  0  0  0  0  0  0  0  0  0  0  0
    2.1396    1.2483   -3.9257 H   0  0  0  0  0  0  0  0  0  0  0  0
   -0.2600    1.5902   -4.5193 H   0  0  0  0  0  0  0  0  0  0  0  0
    0.9420   -0.0324   -0.0895 H   0  0  0  0  0  0  0  0  0  0  0  0
   -1.0412   -1.7695   -1.0060 H   0  0  0  0  0  0  0  0  0  0  0  0
   -2.6377   -1.7170   -0.1264 H   0  0  0  0  0  0  0  0  0  0  0  0
    0.1118   -1.7867    1.2071 H   0  0  0  0  0  0  0  0  0  0  0  0
   -1.3559   -2.8047    1.3590 H   0  0  0  0  0  0  0  0  0  0  0  0
    0.0125    1.3408    3.5048 H   0  0  0  0  0  0  0  0  0  0  0  0
   -1.7064    1.7697    3.6883 H   0  0  0  0  0  0  0  0  0  0  0  0
   -3.8277   -0.1761    1.0805 H   0  0  0  0  0  0  0  0  0  0  0  0
   -5.3313   -0.5285    2.3445 H   0  0  0  0  0  0  0  0  0  0  0  0
   -7.2737   -0.9072    3.7597 H   0  0  0  0  0  0  0  0  0  0  0  0
   -7.9540    0.7232   -0.7535 H   0  0  0  0  0  0  0  0  0  0  0  0
    7.8977    0.3398   -2.2327 H   0  0  0  0  0  0  0  0  0  0  0  0
  1  2  1  0
  2  3  1  0
  3  4  2  0
  4  5  1  0
  5  6  2  0
  6  7  1  0
  7  8  2  0
  7  9  1  0
  9 10  1  0
 10 11  2  0
 11 12  1  0
 12 13  2  0
 13 14  1  0
 14 15  2  0
 14 16  1  0
 16 17  1  0
 17 18  1  0
 18 19  1  0
 19 20  1  0
 20 21  1  0
 20 22  2  0
 16 23  1  0
 23 24  2  0
 24 25  1  0
 25 26  1  0
 26 27  2  0
 27 28  1  0
 28 29  2  0
 29 30  1  0
 30 31  1  0
 30 32  2  0
 25 33  2  0
 33 34  1  0
 34 35  1  0
 34 36  2  0
 36 37  1  0
  6 38  1  0
 38 39  2  0
 39  3  1  0
 15 10  1  0
 22 16  1  0
 36 23  1  0
 37 13  1  0
 32 26  1  0
  1 40  1  0
  1 41  1  0
  1 42  1  0
  4 43  1  0
  5 44  1  0
  9 45  1  0
 11 46  1  0
 12 47  1  0
 15 48  1  0
 17 49  1  0
 17 50  1  0
 18 51  1  0
 18 52  1  0
 21 53  1  0
 21 54  1  0
 24 55  1  0
 27 56  1  0
 28 57  1  0
 32 58  1  0
 39 59  1  0
M  END
$$$$
