@<TRIPOS>MOLECULE
*****
 59 64 0 0 0
SMALL
GASTEIGER

@<TRIPOS>ATOM
      1 C          10.1287   -0.8630    0.8119 C.3     1  UNL1        0.0789
      2 O           9.3143   -0.4451   -0.2401 O.3     1  UNL1       -0.4936
      3 C           7.9524   -0.3734   -0.2341 C.ar    1  UNL1        0.1381
      4 C           7.1543   -0.7127    0.8425 C.ar    1  UNL1       -0.0163
      5 C           5.7649   -0.6149    0.7790 C.ar    1  UNL1       -0.0277
      6 C           5.1746   -0.1773   -0.3624 C.ar    1  UNL1        0.1259
      7 C           3.7083   -0.0491   -0.4995 C.2     1  UNL1        0.2666
      8 O           3.0147   -0.3593    0.4797 O.2     1  UNL1       -0.2682
      9 N           3.1043    0.4054   -1.6872 N.am    1  UNL1       -0.2802
     10 C           1.7153    0.5659   -1.9268 C.ar    1  UNL1        0.0343
     11 C           1.3592    1.0345   -3.1983 C.ar    1  UNL1       -0.0370
     12 C           0.0427    1.2306   -3.5483 C.ar    1  UNL1       -0.0172
     13 C          -0.9650    0.9670   -2.6451 C.ar    1  UNL1        0.1346
     14 C          -0.6680    0.5081   -1.3953 C.ar    1  UNL1        0.0287
     15 C           0.7008    0.3184   -1.0689 C.ar    1  UNL1       -0.0312
     16 C          -1.6515    0.1704   -0.3367 C.3     1  UNL1        0.1265
     17 C          -1.5662   -1.3181   -0.1235 C.3     1  UNL1        0.0155
     18 C          -0.9962   -1.7409    1.1716 C.3     1  UNL1        0.0953
     19 O          -1.4378   -0.8960    2.2107 O.2     1  UNL1       -0.4658
     20 C          -1.2551    0.4732    2.0258 C.2     1  UNL1        0.2763
     21 N          -0.9663    1.2633    3.1706 N.pl3   1  UNL1       -0.3134
     22 N          -1.3543    0.9623    0.8436 N.2     1  UNL1       -0.2205
     23 C          -3.0328    0.4374   -0.8012 C.ar    1  UNL1        0.0334
     24 C          -4.0993    0.1862    0.0986 C.ar    1  UNL1       -0.0262
     25 C          -5.4049    0.3889   -0.2492 C.ar    1  UNL1        0.0748
     26 C          -6.5152    0.1364    0.6622 C.ar    1  UNL1        0.0061
     27 C          -6.2965   -0.3240    1.9321 C.ar    1  UNL1       -0.0342
     28 C          -7.4057   -0.5459    2.7565 C.ar    1  UNL1        0.0313
     29 N          -8.6543   -0.3168    2.3238 N.ar    1  UNL1       -0.2276
     30 C          -8.8856    0.1342    1.0828 C.ar    1  UNL1        0.2138
     31 F         -10.1275    0.3795    0.6030 F       1  UNL1       -0.1839
     32 C          -7.8121    0.3571    0.2619 C.ar    1  UNL1        0.0019
     33 N          -5.6423    0.8488   -1.5143 N.ar    1  UNL1       -0.2161
     34 C          -4.6531    1.0946   -2.3843 C.ar    1  UNL1        0.2567
     35 F          -4.8844    1.5517   -3.6421 F       1  UNL1       -0.1799
     36 C          -3.3050    0.8926   -2.0449 C.ar    1  UNL1        0.1883
     37 O          -2.3035    1.1592   -2.9682 O.3     1  UNL1       -0.4508
     38 N           5.9578    0.1513   -1.4064 N.ar    1  UNL1       -0.2467
     39 C           7.3014    0.0655   -1.3698 C.ar    1  UNL1        0.0700
     40 H          10.2165   -0.0317    1.5367 H       1  UNL1        0.0660
     41 H           9.7888   -1.7952    1.3049 H       1  UNL1        0.0660
     42 H          11.1337   -1.1104    0.3699 H       1  UNL1        0.0660
     43 H           7.6496   -1.0558    1.7323 H       1  UNL1        0.0655
     44 H           5.1720   -0.8833    1.6247 H       1  UNL1        0.0641
     45 H           3.8123    0.6408   -2.4582 H       1  UNL1        0.1552
     46 H           2.1396    1.2483   -3.9257 H       1  UNL1        0.0637
     47 H          -0.2600    1.5902   -4.5193 H       1  UNL1        0.0655
     48 H           0.9420   -0.0324   -0.0895 H       1  UNL1        0.0641
     49 H          -1.0412   -1.7695   -1.0060 H       1  UNL1        0.0328
     50 H          -2.6377   -1.7170   -0.1264 H       1  UNL1        0.0328
     51 H           0.1118   -1.7867    1.2071 H       1  UNL1        0.0698
     52 H          -1.3559   -2.8047    1.3590 H       1  UNL1        0.0698
     53 H           0.0125    1.3408    3.5048 H       1  UNL1        0.1466
     54 H          -1.7064    1.7697    3.6883 H       1  UNL1        0.1466
     55 H          -3.8277   -0.1761    1.0805 H       1  UNL1        0.0644
     56 H          -5.3313   -0.5285    2.3445 H       1  UNL1        0.0639
     57 H          -7.2737   -0.9072    3.7597 H       1  UNL1        0.0831
     58 H          -7.9540    0.7232   -0.7535 H       1  UNL1        0.0669
     59 H           7.8977    0.3398   -2.2327 H       1  UNL1        0.0867
@<TRIPOS>BOND
     1     1     2    1
     2     2     3    1
     3     3     4   ar
     4     4     5   ar
     5     5     6   ar
     6     6     7    1
     7     7     8    2
     8     7     9   am
     9     9    10    1
    10    10    11   ar
    11    11    12   ar
    12    12    13   ar
    13    13    14   ar
    14    14    15   ar
    15    14    16    1
    16    16    17    1
    17    17    18    1
    18    18    19    1
    19    19    20    1
    20    20    21    1
    21    20    22    2
    22    16    23    1
    23    23    24   ar
    24    24    25   ar
    25    25    26    1
    26    26    27   ar
    27    27    28   ar
    28    28    29   ar
    29    29    30   ar
    30    30    31    1
    31    30    32   ar
    32    25    33   ar
    33    33    34   ar
    34    34    35    1
    35    34    36   ar
    36    36    37    1
    37     6    38   ar
    38    38    39   ar
    39    39     3   ar
    40    15    10   ar
    41    22    16    1
    42    36    23   ar
    43    37    13    1
    44    32    26   ar
    45     1    40    1
    46     1    41    1
    47     1    42    1
    48     4    43    1
    49     5    44    1
    50     9    45    1
    51    11    46    1
    52    12    47    1
    53    15    48    1
    54    17    49    1
    55    17    50    1
    56    18    51    1
    57    18    52    1
    58    21    53    1
    59    21    54    1
    60    24    55    1
    61    27    56    1
    62    28    57    1
    63    32    58    1
    64    39    59    1
