
     RDKit          3D

 63 67  0  0  0  0  0  0  0  0999 V2000
   -0.2022   -2.3037    4.3135 C   0  0  0  0  0  0  0  0  0  0  0  0
    0.1034   -2.1998    2.8111 C   0  0  0  0  0  0  0  0  0  0  0  0
    0.1022   -0.7559    2.4519 C   0  0  0  0  0  0  0  0  0  0  0  0
    0.3719   -0.4421    1.0833 N   0  0  0  0  0  0  0  0  0  0  0  0
    1.6606   -0.2434    0.6754 C   0  0  0  0  0  0  0  0  0  0  0  0
    1.6697    0.0475   -0.6544 N   0  0  0  0  0  0  0  0  0  0  0  0
    0.3909    0.0381   -1.1103 C   0  0  0  0  0  0  0  0  0  0  0  0
   -0.3858   -0.2675   -0.0129 C   0  0  0  0  0  0  0  0  0  0  0  0
   -1.8377   -0.3896    0.0105 C   0  0  0  0  0  0  0  0  0  0  0  0
   -2.4943   -1.5896    0.1768 C   0  0  0  0  0  0  0  0  0  0  0  0
   -3.8710   -1.5401    0.1822 C   0  0  0  0  0  0  0  0  0  0  0  0
   -4.5243   -0.3833    0.0332 N   0  0  0  0  0  0  0  0  0  0  0  0
   -3.9038    0.7923   -0.1294 C   0  0  0  0  0  0  0  0  0  0  0  0
   -4.5623    2.0414   -0.2900 N   0  0  0  0  0  0  0  0  0  0  0  0
   -5.9839    2.2755   -0.3137 C   0  0  0  0  0  0  0  0  0  0  0  0
   -6.8265    1.8844    0.8494 C   0  0  0  0  0  0  0  0  0  0  0  0
   -6.9927    1.2308   -0.5028 C   0  0  0  0  0  0  0  0  0  0  0  0
   -2.5731    0.7229   -0.1319 N   0  0  0  0  0  0  0  0  0  0  0  0
   -0.0203    0.3053   -2.4843 C   0  0  0  0  0  0  0  0  0  0  0  0
   -0.7987    1.3798   -2.8639 C   0  0  0  0  0  0  0  0  0  0  0  0
   -1.1975    1.6489   -4.1507 C   0  0  0  0  0  0  0  0  0  0  0  0
   -0.8013    0.7924   -5.1580 C   0  0  0  0  0  0  0  0  0  0  0  0
   -1.3046    1.1272   -6.7993 Cl  0  0  0  0  0  0  0  0  0  0  0  0
   -0.0148   -0.3078   -4.8299 C   0  0  0  0  0  0  0  0  0  0  0  0
    0.4375   -1.3354   -6.1702 Cl  0  0  0  0  0  0  0  0  0  0  0  0
    0.3687   -0.5473   -3.5186 C   0  0  0  0  0  0  0  0  0  0  0  0
    2.9727   -0.2892    1.4027 C   0  0  0  0  0  0  0  0  0  0  0  0
    3.8028   -1.3852    0.7523 C   0  0  0  0  0  0  0  0  0  0  0  0
    4.7670   -0.8492   -0.2615 C   0  0  0  0  0  0  0  0  0  0  0  0
    5.7374   -0.0206    0.3858 N   0  0  0  0  0  0  0  0  0  0  0  0
    6.5611    0.6992   -0.5412 C   0  0  0  0  0  0  0  0  0  0  0  0
    5.1848    0.7772    1.4495 C   0  0  0  0  0  0  0  0  0  0  0  0
    3.7119    1.0138    1.3353 C   0  0  0  0  0  0  0  0  0  0  0  0
    0.1288   -3.2638    4.7252 H   0  0  0  0  0  0  0  0  0  0  0  0
    0.3377   -1.4628    4.8311 H   0  0  0  0  0  0  0  0  0  0  0  0
   -1.2877   -2.0958    4.4904 H   0  0  0  0  0  0  0  0  0  0  0  0
    1.0483   -2.7210    2.5883 H   0  0  0  0  0  0  0  0  0  0  0  0
   -0.7350   -2.7471    2.3360 H   0  0  0  0  0  0  0  0  0  0  0  0
   -0.8954   -0.3481    2.7928 H   0  0  0  0  0  0  0  0  0  0  0  0
    0.8231   -0.2298    3.1435 H   0  0  0  0  0  0  0  0  0  0  0  0
   -1.9322   -2.5028    0.2913 H   0  0  0  0  0  0  0  0  0  0  0  0
   -4.4160   -2.4627    0.3104 H   0  0  0  0  0  0  0  0  0  0  0  0
   -3.9254    2.8877   -0.4027 H   0  0  0  0  0  0  0  0  0  0  0  0
   -6.2620    3.2638   -0.7871 H   0  0  0  0  0  0  0  0  0  0  0  0
   -6.4045    1.2770    1.6830 H   0  0  0  0  0  0  0  0  0  0  0  0
   -7.6273    2.5693    1.1840 H   0  0  0  0  0  0  0  0  0  0  0  0
   -7.9398    1.4700   -1.0372 H   0  0  0  0  0  0  0  0  0  0  0  0
   -6.6811    0.1827   -0.6603 H   0  0  0  0  0  0  0  0  0  0  0  0
   -1.1301    2.0764   -2.1050 H   0  0  0  0  0  0  0  0  0  0  0  0
   -1.8090    2.5083   -4.3924 H   0  0  0  0  0  0  0  0  0  0  0  0
    0.9749   -1.4151   -3.3430 H   0  0  0  0  0  0  0  0  0  0  0  0
    2.7763   -0.5260    2.4598 H   0  0  0  0  0  0  0  0  0  0  0  0
    3.1595   -2.1437    0.2533 H   0  0  0  0  0  0  0  0  0  0  0  0
    4.3909   -1.9538    1.5217 H   0  0  0  0  0  0  0  0  0  0  0  0
    4.2306   -0.2885   -1.0529 H   0  0  0  0  0  0  0  0  0  0  0  0
    5.2581   -1.7289   -0.7296 H   0  0  0  0  0  0  0  0  0  0  0  0
    6.4506    1.7979   -0.5028 H   0  0  0  0  0  0  0  0  0  0  0  0
    7.6388    0.4535   -0.4375 H   0  0  0  0  0  0  0  0  0  0  0  0
    6.2695    0.3690   -1.5601 H   0  0  0  0  0  0  0  0  0  0  0  0
    5.7403    1.7489    1.4658 H   0  0  0  0  0  0  0  0  0  0  0  0
    5.3884    0.2495    2.4093 H   0  0  0  0  0  0  0  0  0  0  0  0
    3.4815    1.4726    0.3505 H   0  0  0  0  0  0  0  0  0  0  0  0
    3.4005    1.6363    2.1843 H   0  0  0  0  0  0  0  0  0  0  0  0
  1  2  1  0
  2  3  1  0
  3  4  1  0
  4  5  1  0
  5  6  2  0
  6  7  1  0
  7  8  2  0
  8  9  1  0
  9 10  2  0
 10 11  1  0
 11 12  2  0
 12 13  1  0
 13 14  1  0
 14 15  1  0
 15 16  1  0
 16 17  1  0
 13 18  2  0
  7 19  1  0
 19 20  2  0
 20 21  1  0
 21 22  2  0
 22 23  1  0
 22 24  1  0
 24 25  1  0
 24 26  2  0
  5 27  1  0
 27 28  1  0
 28 29  1  0
 29 30  1  0
 30 31  1  0
 30 32  1  0
 32 33  1  0
  8  4  1  0
 18  9  1  0
 26 19  1  0
 33 27  1  0
 17 15  1  0
  1 34  1  0
  1 35  1  0
  1 36  1  0
  2 37  1  0
  2 38  1  0
  3 39  1  0
  3 40  1  0
 10 41  1  0
 11 42  1  0
 14 43  1  0
 15 44  1  0
 16 45  1  0
 16 46  1  0
 17 47  1  0
 17 48  1  0
 20 49  1  0
 21 50  1  0
 26 51  1  0
 27 52  1  0
 28 53  1  0
 28 54  1  0
 29 55  1  0
 29 56  1  0
 31 57  1  0
 31 58  1  0
 31 59  1  0
 32 60  1  0
 32 61  1  0
 33 62  1  0
 33 63  1  0
M  END
$$$$
