
     RDKit          3D

 37 39  0  0  0  0  0  0  0  0999 V2000
   -0.9348    0.0897   -0.7879 C   0  0  2  0  0  0  0  0  0  0  0  0
    0.3269   -0.5099   -1.1090 N   0  0  0  0  0  0  0  0  0  0  0  0
    1.0299    0.1301   -2.1696 C   0  0  0  0  0  0  0  0  0  0  0  0
    2.4787   -0.2968   -2.2634 C   0  0  0  0  0  0  0  0  0  0  0  0
    3.0490    0.0703   -0.9222 C   0  0  0  0  0  0  0  0  0  0  0  0
    2.3203   -0.3301    0.2012 C   0  0  0  0  0  0  0  0  0  0  0  0
    1.0662   -1.0823   -0.0596 C   0  0  0  0  0  0  0  0  0  0  0  0
    2.8290   -0.0001    1.4120 C   0  0  0  0  0  0  0  0  0  0  0  0
    4.0778    0.7351    1.4152 C   0  0  0  0  0  0  0  0  0  0  0  0
    4.4422    0.9026   -0.4332 S   0  0  0  0  0  0  0  0  0  0  0  0
   -0.6680    1.3733   -0.1196 C   0  0  0  0  0  0  0  0  0  0  0  0
    0.4874    1.7879    0.1370 O   0  0  0  0  0  0  0  0  0  0  0  0
   -1.0135    2.5628    0.4770 O   0  0  0  0  0  0  0  0  0  0  0  0
   -0.0735    3.4560    0.9704 C   0  0  0  0  0  0  0  0  0  0  0  0
   -1.9117   -0.7653   -0.1294 C   0  0  0  0  0  0  0  0  0  0  0  0
   -1.8037   -2.1241    0.0780 C   0  0  0  0  0  0  0  0  0  0  0  0
   -2.7297   -2.9368    0.6965 C   0  0  0  0  0  0  0  0  0  0  0  0
   -3.8898   -2.3613    1.1643 C   0  0  0  0  0  0  0  0  0  0  0  0
   -4.0532   -0.9991    0.9830 C   0  0  0  0  0  0  0  0  0  0  0  0
   -3.0882   -0.2410    0.3555 C   0  0  0  0  0  0  0  0  0  0  0  0
   -3.5432    1.4436    0.2329 Cl  0  0  0  0  0  0  0  0  0  0  0  0
   -1.4060    0.3400   -1.8036 H   0  0  0  0  0  0  0  0  0  0  0  0
    0.4886   -0.0535   -3.1261 H   0  0  0  0  0  0  0  0  0  0  0  0
    1.0107    1.2213   -2.0126 H   0  0  0  0  0  0  0  0  0  0  0  0
    2.9660    0.2948   -3.0635 H   0  0  0  0  0  0  0  0  0  0  0  0
    2.5000   -1.3718   -2.4554 H   0  0  0  0  0  0  0  0  0  0  0  0
    0.3919   -1.0742    0.8507 H   0  0  0  0  0  0  0  0  0  0  0  0
    1.3686   -2.1422   -0.2112 H   0  0  0  0  0  0  0  0  0  0  0  0
    2.4066   -0.2245    2.3810 H   0  0  0  0  0  0  0  0  0  0  0  0
    4.5971    1.0656    2.3887 H   0  0  0  0  0  0  0  0  0  0  0  0
   -0.6692    4.3342    1.3656 H   0  0  0  0  0  0  0  0  0  0  0  0
    0.5520    3.9016    0.1544 H   0  0  0  0  0  0  0  0  0  0  0  0
    0.5297    3.0782    1.8118 H   0  0  0  0  0  0  0  0  0  0  0  0
   -0.9316   -2.6578   -0.2702 H   0  0  0  0  0  0  0  0  0  0  0  0
   -2.5831   -4.0000    0.8282 H   0  0  0  0  0  0  0  0  0  0  0  0
   -4.6242   -2.9844    1.6510 H   0  0  0  0  0  0  0  0  0  0  0  0
   -4.9952   -0.6316    1.3819 H   0  0  0  0  0  0  0  0  0  0  0  0
  1  2  1  0
  2  3  1  0
  3  4  1  0
  4  5  1  0
  5  6  2  0
  6  7  1  0
  6  8  1  0
  8  9  2  0
  9 10  1  0
  1 11  1  0
 11 12  2  0
 11 13  1  0
 13 14  1  0
  1 15  1  0
 15 16  2  0
 16 17  1  0
 17 18  2  0
 18 19  1  0
 19 20  2  0
 20 21  1  0
  7  2  1  0
 20 15  1  0
 10  5  1  0
  1 22  1  6
  3 23  1  0
  3 24  1  0
  4 25  1  0
  4 26  1  0
  7 27  1  0
  7 28  1  0
  8 29  1  0
  9 30  1  0
 14 31  1  0
 14 32  1  0
 14 33  1  0
 16 34  1  0
 17 35  1  0
 18 36  1  0
 19 37  1  0
M  END
$$$$
