@<TRIPOS>MOLECULE
*****
 22 23 0 0 0
SMALL
GASTEIGER

@<TRIPOS>ATOM
      1 C           3.2783   -0.8272    0.3689 C.3     1  UNL1       -0.0064
      2 C           1.9468   -0.1473    0.1912 C.ar    1  UNL1        0.1068
      3 N           0.8528   -0.8911    0.4994 N.ar    1  UNL1       -0.2386
      4 C          -0.3974   -0.3725    0.3743 C.ar    1  UNL1        0.0531
      5 C          -0.5231    0.9265   -0.0731 C.ar    1  UNL1        0.0479
      6 C          -1.9073    1.5067   -0.2137 C.3     1  UNL1        0.0257
      7 S          -2.8619    0.3124   -1.2225 S.3     1  UNL1       -0.1555
      8 C          -2.3735   -1.3401   -0.6243 C.3     1  UNL1       -0.0006
      9 C          -1.6363   -1.1334    0.6950 C.3     1  UNL1       -0.0008
     10 C           0.6050    1.6923   -0.3905 C.ar    1  UNL1        0.2557
     11 O           0.4791    2.8614   -0.7926 O.2     1  UNL1       -0.2675
     12 N           1.8222    1.1208   -0.2455 N.ar    1  UNL1       -0.3108
     13 H           3.5468   -0.9029    1.4426 H       1  UNL1        0.0307
     14 H           4.0614   -0.3160   -0.2226 H       1  UNL1        0.0307
     15 H           3.2349   -1.8715   -0.0070 H       1  UNL1        0.0307
     16 H          -2.3588    1.6617    0.7797 H       1  UNL1        0.0427
     17 H          -1.8920    2.4572   -0.7479 H       1  UNL1        0.0427
     18 H          -3.2495   -1.9991   -0.5303 H       1  UNL1        0.0380
     19 H          -1.6996   -1.7877   -1.3576 H       1  UNL1        0.0380
     20 H          -2.2405   -0.5020    1.3782 H       1  UNL1        0.0336
     21 H          -1.3930   -2.1063    1.1704 H       1  UNL1        0.0336
     22 H           2.7057    1.6581   -0.4723 H       1  UNL1        0.1700
@<TRIPOS>BOND
     1     1     2    1
     2     2     3   ar
     3     3     4   ar
     4     4     5   ar
     5     5     6    1
     6     6     7    1
     7     7     8    1
     8     8     9    1
     9     5    10   ar
    10    10    11    2
    11    10    12   ar
    12    12     2   ar
    13     9     4    1
    14     1    13    1
    15     1    14    1
    16     1    15    1
    17     6    16    1
    18     6    17    1
    19     8    18    1
    20     8    19    1
    21     9    20    1
    22     9    21    1
    23    12    22    1
