
     RDKit          3D

 22 23  0  0  0  0  0  0  0  0999 V2000
    3.2783   -0.8272    0.3689 C   0  0  0  0  0  0  0  0  0  0  0  0
    1.9468   -0.1473    0.1912 C   0  0  0  0  0  0  0  0  0  0  0  0
    0.8528   -0.8911    0.4994 N   0  0  0  0  0  0  0  0  0  0  0  0
   -0.3974   -0.3725    0.3743 C   0  0  0  0  0  0  0  0  0  0  0  0
   -0.5231    0.9265   -0.0731 C   0  0  0  0  0  0  0  0  0  0  0  0
   -1.9073    1.5067   -0.2137 C   0  0  0  0  0  0  0  0  0  0  0  0
   -2.8619    0.3124   -1.2225 S   0  0  0  0  0  0  0  0  0  0  0  0
   -2.3735   -1.3401   -0.6243 C   0  0  0  0  0  0  0  0  0  0  0  0
   -1.6363   -1.1334    0.6950 C   0  0  0  0  0  0  0  0  0  0  0  0
    0.6050    1.6923   -0.3905 C   0  0  0  0  0  0  0  0  0  0  0  0
    0.4791    2.8614   -0.7926 O   0  0  0  0  0  0  0  0  0  0  0  0
    1.8222    1.1208   -0.2455 N   0  0  0  0  0  0  0  0  0  0  0  0
    3.5468   -0.9029    1.4426 H   0  0  0  0  0  0  0  0  0  0  0  0
    4.0614   -0.3160   -0.2226 H   0  0  0  0  0  0  0  0  0  0  0  0
    3.2349   -1.8715   -0.0070 H   0  0  0  0  0  0  0  0  0  0  0  0
   -2.3588    1.6617    0.7797 H   0  0  0  0  0  0  0  0  0  0  0  0
   -1.8920    2.4572   -0.7479 H   0  0  0  0  0  0  0  0  0  0  0  0
   -3.2495   -1.9991   -0.5303 H   0  0  0  0  0  0  0  0  0  0  0  0
   -1.6996   -1.7877   -1.3576 H   0  0  0  0  0  0  0  0  0  0  0  0
   -2.2405   -0.5020    1.3782 H   0  0  0  0  0  0  0  0  0  0  0  0
   -1.3930   -2.1063    1.1704 H   0  0  0  0  0  0  0  0  0  0  0  0
    2.7057    1.6581   -0.4723 H   0  0  0  0  0  0  0  0  0  0  0  0
  1  2  1  0
  2  3  2  0
  3  4  1  0
  4  5  2  0
  5  6  1  0
  6  7  1  0
  7  8  1  0
  8  9  1  0
  5 10  1  0
 10 11  2  0
 10 12  1  0
 12  2  1  0
  9  4  1  0
  1 13  1  0
  1 14  1  0
  1 15  1  0
  6 16  1  0
  6 17  1  0
  8 18  1  0
  8 19  1  0
  9 20  1  0
  9 21  1  0
 12 22  1  0
M  END
$$$$
