
     RDKit          3D

 75 78  0  0  0  0  0  0  0  0999 V2000
    1.4285    0.5162   -3.7211 C   0  0  0  0  0  0  0  0  0  0  0  0
    0.8502   -0.8737   -3.6722 C   0  0  0  0  0  0  0  0  0  0  0  0
    0.8928   -1.4670   -2.4369 O   0  0  0  0  0  0  0  0  0  0  0  0
    0.2026   -0.7711   -1.4734 C   0  0  1  0  0  0  0  0  0  0  0  0
   -0.7859   -1.6362   -0.7228 C   0  0  0  0  0  0  0  0  0  0  0  0
   -0.9414   -1.0049    0.5329 N   0  0  0  0  0  0  0  0  0  0  0  0
   -2.2412   -0.5547    0.8630 C   0  0  1  0  0  0  0  0  0  0  0  0
   -2.7605    0.4565   -0.1236 C   0  0  0  0  0  0  0  0  0  0  0  0
   -4.1740    0.8906    0.1436 C   0  0  0  0  0  0  0  0  0  0  0  0
   -4.9283   -0.0633    1.0241 C   0  0  1  0  0  0  0  0  0  0  0  0
   -4.5941    0.1766    2.3556 O   0  0  0  0  0  0  0  0  0  0  0  0
   -6.3810    0.1405    0.7962 C   0  0  0  0  0  0  0  0  0  0  0  0
   -7.1185    1.0481    1.5361 C   0  0  0  0  0  0  0  0  0  0  0  0
   -8.4489    1.1997    1.2909 C   0  0  0  0  0  0  0  0  0  0  0  0
   -9.1282    0.5013    0.3406 C   0  0  0  0  0  0  0  0  0  0  0  0
  -10.5768    0.6679    0.0751 C   0  0  0  0  0  0  0  0  0  0  0  0
   -8.4166   -0.4074   -0.4084 C   0  0  0  0  0  0  0  0  0  0  0  0
   -7.0472   -0.5761   -0.1693 C   0  0  0  0  0  0  0  0  0  0  0  0
   -4.5652   -1.4526    0.6086 C   0  0  0  0  0  0  0  0  0  0  0  0
   -3.1395   -1.7616    1.0096 C   0  0  0  0  0  0  0  0  0  0  0  0
    0.1248   -0.0971    0.7705 C   0  0  0  0  0  0  0  0  0  0  0  0
    1.1260   -0.3517   -0.3480 C   0  0  2  0  0  0  0  0  0  0  0  0
    1.9244    0.7875   -0.6458 N   0  0  0  0  0  0  0  0  0  0  0  0
    3.3417    0.6985   -0.5990 C   0  0  0  0  0  0  0  0  0  0  0  0
    3.9318   -0.3827   -0.2952 O   0  0  0  0  0  0  0  0  0  0  0  0
    4.1377    1.9086   -0.9160 C   0  0  0  0  0  0  0  0  0  0  0  0
    5.5520    1.5643   -0.7969 N   0  0  0  0  0  0  0  0  0  0  0  0
    6.0929    1.1071    0.4283 C   0  0  0  0  0  0  0  0  0  0  0  0
    5.3494    0.9946    1.4329 O   0  0  0  0  0  0  0  0  0  0  0  0
    7.4973    0.7591    0.5648 C   0  0  0  0  0  0  0  0  0  0  0  0
    8.3908    0.8494   -0.4782 C   0  0  0  0  0  0  0  0  0  0  0  0
    9.6994    0.5025   -0.2693 C   0  0  0  0  0  0  0  0  0  0  0  0
   10.1606    0.0599    0.9649 C   0  0  0  0  0  0  0  0  0  0  0  0
    9.2681   -0.0314    2.0109 C   0  0  0  0  0  0  0  0  0  0  0  0
    9.7804   -0.5064    3.3215 C   0  0  0  0  0  0  0  0  0  0  0  0
    9.2549    0.3372    4.3065 F   0  0  0  0  0  0  0  0  0  0  0  0
   11.1455   -0.4598    3.3657 F   0  0  0  0  0  0  0  0  0  0  0  0
    9.2923   -1.7782    3.5757 F   0  0  0  0  0  0  0  0  0  0  0  0
    7.9651    0.3165    1.7939 C   0  0  0  0  0  0  0  0  0  0  0  0
    0.8542    1.2694   -3.1857 H   0  0  0  0  0  0  0  0  0  0  0  0
    2.4686    0.5240   -3.3780 H   0  0  0  0  0  0  0  0  0  0  0  0
    1.4219    0.8119   -4.8098 H   0  0  0  0  0  0  0  0  0  0  0  0
   -0.1636   -0.9227   -4.1181 H   0  0  0  0  0  0  0  0  0  0  0  0
    1.4962   -1.4991   -4.3558 H   0  0  0  0  0  0  0  0  0  0  0  0
   -0.2752    0.1621   -1.8543 H   0  0  0  0  0  0  0  0  0  0  0  0
   -1.6945   -1.8485   -1.2781 H   0  0  0  0  0  0  0  0  0  0  0  0
   -0.2716   -2.6227   -0.5600 H   0  0  0  0  0  0  0  0  0  0  0  0
   -2.2010   -0.0516    1.8538 H   0  0  0  0  0  0  0  0  0  0  0  0
   -2.1189    1.3576   -0.0271 H   0  0  0  0  0  0  0  0  0  0  0  0
   -2.6990    0.1312   -1.1684 H   0  0  0  0  0  0  0  0  0  0  0  0
   -4.2179    1.8969    0.6412 H   0  0  0  0  0  0  0  0  0  0  0  0
   -4.7719    1.0094   -0.7947 H   0  0  0  0  0  0  0  0  0  0  0  0
   -4.9728   -0.5275    2.9272 H   0  0  0  0  0  0  0  0  0  0  0  0
   -6.5699    1.6050    2.2959 H   0  0  0  0  0  0  0  0  0  0  0  0
   -9.0045    1.9243    1.8917 H   0  0  0  0  0  0  0  0  0  0  0  0
  -10.8113    1.7574    0.0664 H   0  0  0  0  0  0  0  0  0  0  0  0
  -11.1626    0.1991    0.8918 H   0  0  0  0  0  0  0  0  0  0  0  0
  -10.8519    0.2939   -0.9316 H   0  0  0  0  0  0  0  0  0  0  0  0
   -8.9208   -0.9841   -1.1757 H   0  0  0  0  0  0  0  0  0  0  0  0
   -6.5736   -1.3096   -0.8045 H   0  0  0  0  0  0  0  0  0  0  0  0
   -4.5924   -1.5335   -0.4988 H   0  0  0  0  0  0  0  0  0  0  0  0
   -5.2253   -2.2304    1.0399 H   0  0  0  0  0  0  0  0  0  0  0  0
   -2.7528   -2.5850    0.3842 H   0  0  0  0  0  0  0  0  0  0  0  0
   -3.1201   -2.0988    2.0631 H   0  0  0  0  0  0  0  0  0  0  0  0
    0.6419   -0.3851    1.7104 H   0  0  0  0  0  0  0  0  0  0  0  0
   -0.1670    0.9604    0.8327 H   0  0  0  0  0  0  0  0  0  0  0  0
    1.7310   -1.2484   -0.0938 H   0  0  0  0  0  0  0  0  0  0  0  0
    1.5065    1.7019   -0.9015 H   0  0  0  0  0  0  0  0  0  0  0  0
    3.8824    2.1917   -1.9562 H   0  0  0  0  0  0  0  0  0  0  0  0
    3.9046    2.7313   -0.2094 H   0  0  0  0  0  0  0  0  0  0  0  0
    6.1339    1.6716   -1.6503 H   0  0  0  0  0  0  0  0  0  0  0  0
    8.0714    1.1893   -1.4542 H   0  0  0  0  0  0  0  0  0  0  0  0
   10.3867    0.5844   -1.1167 H   0  0  0  0  0  0  0  0  0  0  0  0
   11.2132   -0.1962    1.0496 H   0  0  0  0  0  0  0  0  0  0  0  0
    7.2642    0.2381    2.6392 H   0  0  0  0  0  0  0  0  0  0  0  0
  1  2  1  0
  2  3  1  0
  3  4  1  0
  4  5  1  0
  5  6  1  0
  6  7  1  0
  7  8  1  0
  8  9  1  0
  9 10  1  0
 10 11  1  1
 10 12  1  0
 12 13  2  0
 13 14  1  0
 14 15  2  0
 15 16  1  0
 15 17  1  0
 17 18  2  0
 10 19  1  0
 19 20  1  0
  6 21  1  0
 21 22  1  0
 22 23  1  0
 23 24  1  0
 24 25  2  0
 24 26  1  0
 26 27  1  0
 27 28  1  0
 28 29  2  0
 28 30  1  0
 30 31  2  0
 31 32  1  0
 32 33  2  0
 33 34  1  0
 34 35  1  0
 35 36  1  0
 35 37  1  0
 35 38  1  0
 34 39  2  0
 22  4  1  0
 39 30  1  0
 20  7  1  0
 18 12  1  0
  1 40  1  0
  1 41  1  0
  1 42  1  0
  2 43  1  0
  2 44  1  0
  4 45  1  6
  5 46  1  0
  5 47  1  0
  7 48  1  1
  8 49  1  0
  8 50  1  0
  9 51  1  0
  9 52  1  0
 11 53  1  0
 13 54  1  0
 14 55  1  0
 16 56  1  0
 16 57  1  0
 16 58  1  0
 17 59  1  0
 18 60  1  0
 19 61  1  0
 19 62  1  0
 20 63  1  0
 20 64  1  0
 21 65  1  0
 21 66  1  0
 22 67  1  1
 23 68  1  0
 26 69  1  0
 26 70  1  0
 27 71  1  0
 31 72  1  0
 32 73  1  0
 33 74  1  0
 39 75  1  0
M  END
$$$$
