@<TRIPOS>MOLECULE
*****
 75 78 0 0 0
SMALL
GASTEIGER

@<TRIPOS>ATOM
      1 C           1.4285    0.5162   -3.7211 C.3     1  UNL1       -0.0416
      2 C           0.8502   -0.8737   -3.6722 C.3     1  UNL1        0.0453
      3 O           0.8928   -1.4670   -2.4369 O.3     1  UNL1       -0.3737
      4 C           0.2026   -0.7711   -1.4734 C.3     1  UNL1        0.0908
      5 C          -0.7859   -1.6362   -0.7228 C.3     1  UNL1        0.0273
      6 N          -0.9414   -1.0049    0.5329 N.3     1  UNL1       -0.2951
      7 C          -2.2412   -0.5547    0.8630 C.3     1  UNL1        0.0108
      8 C          -2.7605    0.4565   -0.1236 C.3     1  UNL1       -0.0344
      9 C          -4.1740    0.8906    0.1436 C.3     1  UNL1       -0.0184
     10 C          -4.9283   -0.0633    1.0241 C.3     1  UNL1        0.0910
     11 O          -4.5941    0.1766    2.3556 O.3     1  UNL1       -0.3840
     12 C          -6.3810    0.1405    0.7962 C.ar    1  UNL1       -0.0161
     13 C          -7.1185    1.0481    1.5361 C.ar    1  UNL1       -0.0556
     14 C          -8.4489    1.1997    1.2909 C.ar    1  UNL1       -0.0585
     15 C          -9.1282    0.5013    0.3406 C.ar    1  UNL1       -0.0504
     16 C         -10.5768    0.6679    0.0751 C.3     1  UNL1       -0.0397
     17 C          -8.4166   -0.4074   -0.4084 C.ar    1  UNL1       -0.0585
     18 C          -7.0472   -0.5761   -0.1693 C.ar    1  UNL1       -0.0556
     19 C          -4.5652   -1.4526    0.6086 C.3     1  UNL1       -0.0184
     20 C          -3.1395   -1.7616    1.0096 C.3     1  UNL1       -0.0344
     21 C           0.1248   -0.0971    0.7705 C.3     1  UNL1        0.0202
     22 C           1.1260   -0.3517   -0.3480 C.3     1  UNL1        0.0632
     23 N           1.9244    0.7875   -0.6458 N.am    1  UNL1       -0.3074
     24 C           3.3417    0.6985   -0.5990 C.2     1  UNL1        0.2305
     25 O           3.9318   -0.3827   -0.2952 O.2     1  UNL1       -0.2741
     26 C           4.1377    1.9086   -0.9160 C.3     1  UNL1        0.0884
     27 N           5.5520    1.5643   -0.7969 N.am    1  UNL1       -0.3028
     28 C           6.0929    1.1071    0.4283 C.2     1  UNL1        0.2445
     29 O           5.3494    0.9946    1.4329 O.2     1  UNL1       -0.2702
     30 C           7.4973    0.7591    0.5648 C.ar    1  UNL1        0.0372
     31 C           8.3908    0.8494   -0.4782 C.ar    1  UNL1       -0.0496
     32 C           9.6994    0.5025   -0.2693 C.ar    1  UNL1       -0.0605
     33 C          10.1606    0.0599    0.9649 C.ar    1  UNL1       -0.0501
     34 C           9.2681   -0.0314    2.0109 C.ar    1  UNL1        0.0555
     35 C           9.7804   -0.5064    3.3215 C.3     1  UNL1        0.4174
     36 F           9.2549    0.3372    4.3065 F       1  UNL1       -0.1659
     37 F          11.1455   -0.4598    3.3657 F       1  UNL1       -0.1659
     38 F           9.2923   -1.7782    3.5757 F       1  UNL1       -0.1659
     39 C           7.9651    0.3165    1.7939 C.ar    1  UNL1       -0.0380
     40 H           0.8542    1.2694   -3.1857 H       1  UNL1        0.0252
     41 H           2.4686    0.5240   -3.3780 H       1  UNL1        0.0252
     42 H           1.4219    0.8119   -4.8098 H       1  UNL1        0.0252
     43 H          -0.1636   -0.9227   -4.1181 H       1  UNL1        0.0557
     44 H           1.4962   -1.4991   -4.3558 H       1  UNL1        0.0557
     45 H          -0.2752    0.1621   -1.8543 H       1  UNL1        0.0628
     46 H          -1.6945   -1.8485   -1.2781 H       1  UNL1        0.0453
     47 H          -0.2716   -2.6227   -0.5600 H       1  UNL1        0.0453
     48 H          -2.2010   -0.0516    1.8538 H       1  UNL1        0.0462
     49 H          -2.1189    1.3576   -0.0271 H       1  UNL1        0.0281
     50 H          -2.6990    0.1312   -1.1684 H       1  UNL1        0.0281
     51 H          -4.2179    1.8969    0.6412 H       1  UNL1        0.0297
     52 H          -4.7719    1.0094   -0.7947 H       1  UNL1        0.0297
     53 H          -4.9728   -0.5275    2.9272 H       1  UNL1        0.2106
     54 H          -6.5699    1.6050    2.2959 H       1  UNL1        0.0621
     55 H          -9.0045    1.9243    1.8917 H       1  UNL1        0.0620
     56 H         -10.8113    1.7574    0.0664 H       1  UNL1        0.0278
     57 H         -11.1626    0.1991    0.8918 H       1  UNL1        0.0278
     58 H         -10.8519    0.2939   -0.9316 H       1  UNL1        0.0278
     59 H          -8.9208   -0.9841   -1.1757 H       1  UNL1        0.0620
     60 H          -6.5736   -1.3096   -0.8045 H       1  UNL1        0.0621
     61 H          -4.5924   -1.5335   -0.4988 H       1  UNL1        0.0297
     62 H          -5.2253   -2.2304    1.0399 H       1  UNL1        0.0297
     63 H          -2.7528   -2.5850    0.3842 H       1  UNL1        0.0281
     64 H          -3.1201   -2.0988    2.0631 H       1  UNL1        0.0281
     65 H           0.6419   -0.3851    1.7104 H       1  UNL1        0.0446
     66 H          -0.1670    0.9604    0.8327 H       1  UNL1        0.0446
     67 H           1.7310   -1.2484   -0.0938 H       1  UNL1        0.0537
     68 H           1.5065    1.7019   -0.9015 H       1  UNL1        0.1492
     69 H           3.8824    2.1917   -1.9562 H       1  UNL1        0.0558
     70 H           3.9046    2.7313   -0.2094 H       1  UNL1        0.0558
     71 H           6.1339    1.6716   -1.6503 H       1  UNL1        0.1495
     72 H           8.0714    1.1893   -1.4542 H       1  UNL1        0.0625
     73 H          10.3867    0.5844   -1.1167 H       1  UNL1        0.0618
     74 H          11.2132   -0.1962    1.0496 H       1  UNL1        0.0623
     75 H           7.2642    0.2381    2.6392 H       1  UNL1        0.0631
@<TRIPOS>BOND
     1     1     2    1
     2     2     3    1
     3     3     4    1
     4     4     5    1
     5     5     6    1
     6     6     7    1
     7     7     8    1
     8     8     9    1
     9     9    10    1
    10    10    11    1
    11    10    12    1
    12    12    13   ar
    13    13    14   ar
    14    14    15   ar
    15    15    16    1
    16    15    17   ar
    17    17    18   ar
    18    10    19    1
    19    19    20    1
    20     6    21    1
    21    21    22    1
    22    22    23    1
    23    23    24   am
    24    24    25    2
    25    24    26    1
    26    26    27    1
    27    27    28   am
    28    28    29    2
    29    28    30    1
    30    30    31   ar
    31    31    32   ar
    32    32    33   ar
    33    33    34   ar
    34    34    35    1
    35    35    36    1
    36    35    37    1
    37    35    38    1
    38    34    39   ar
    39    22     4    1
    40    39    30   ar
    41    20     7    1
    42    18    12   ar
    43     1    40    1
    44     1    41    1
    45     1    42    1
    46     2    43    1
    47     2    44    1
    48     4    45    1
    49     5    46    1
    50     5    47    1
    51     7    48    1
    52     8    49    1
    53     8    50    1
    54     9    51    1
    55     9    52    1
    56    11    53    1
    57    13    54    1
    58    14    55    1
    59    16    56    1
    60    16    57    1
    61    16    58    1
    62    17    59    1
    63    18    60    1
    64    19    61    1
    65    19    62    1
    66    20    63    1
    67    20    64    1
    68    21    65    1
    69    21    66    1
    70    22    67    1
    71    23    68    1
    72    26    69    1
    73    26    70    1
    74    27    71    1
    75    31    72    1
    76    32    73    1
    77    33    74    1
    78    39    75    1
