
     RDKit          3D

 31 34  0  0  0  0  0  0  0  0999 V2000
    5.0716   -0.3128   -0.8046 F   0  0  0  0  0  0  0  0  0  0  0  0
    4.0734    0.3525   -0.1391 C   0  0  0  0  0  0  0  0  0  0  0  0
    4.4608    1.1402    0.9085 C   0  0  0  0  0  0  0  0  0  0  0  0
    3.5387    1.8215    1.6066 N   0  0  0  0  0  0  0  0  0  0  0  0
    2.2523    1.7007    1.2427 C   0  0  0  0  0  0  0  0  0  0  0  0
    1.8013    0.9244    0.1988 C   0  0  0  0  0  0  0  0  0  0  0  0
    0.3685    0.8535   -0.1271 C   0  0  0  0  0  0  0  0  0  0  0  0
   -0.3380    1.7427   -0.8469 N   0  0  0  0  0  0  0  0  0  0  0  0
   -1.6257    1.3683   -0.9519 C   0  0  0  0  0  0  0  0  0  0  0  0
   -2.7592    1.8774   -1.5518 C   0  0  0  0  0  0  0  0  0  0  0  0
   -3.9849    1.2531   -1.4896 C   0  0  0  0  0  0  0  0  0  0  0  0
   -5.0990    1.7538   -2.0793 F   0  0  0  0  0  0  0  0  0  0  0  0
   -4.0802    0.0672   -0.7967 C   0  0  0  0  0  0  0  0  0  0  0  0
   -5.3001   -0.5547   -0.7345 F   0  0  0  0  0  0  0  0  0  0  0  0
   -2.9659   -0.4526   -0.1953 C   0  0  0  0  0  0  0  0  0  0  0  0
   -1.7409    0.1627   -0.2522 C   0  0  0  0  0  0  0  0  0  0  0  0
   -0.5057   -0.1039    0.2271 N   0  0  0  0  0  0  0  0  0  0  0  0
   -0.1665   -1.2610    1.0144 C   0  0  0  0  0  0  0  0  0  0  0  0
    0.8123   -2.2712    0.5169 C   0  0  0  0  0  0  0  0  0  0  0  0
   -0.6659   -2.6104    0.6876 C   0  0  0  0  0  0  0  0  0  0  0  0
    2.7503    0.2189   -0.5251 C   0  0  0  0  0  0  0  0  0  0  0  0
    5.4951    1.2620    1.2319 H   0  0  0  0  0  0  0  0  0  0  0  0
    1.5256    2.2556    1.8153 H   0  0  0  0  0  0  0  0  0  0  0  0
   -2.6958    2.8085   -2.0987 H   0  0  0  0  0  0  0  0  0  0  0  0
   -3.0463   -1.3777    0.3436 H   0  0  0  0  0  0  0  0  0  0  0  0
   -0.1305   -1.0320    2.1180 H   0  0  0  0  0  0  0  0  0  0  0  0
    1.4860   -2.7796    1.2612 H   0  0  0  0  0  0  0  0  0  0  0  0
    1.1682   -2.2447   -0.5161 H   0  0  0  0  0  0  0  0  0  0  0  0
   -1.2303   -2.8367   -0.2337 H   0  0  0  0  0  0  0  0  0  0  0  0
   -0.9298   -3.3246    1.5172 H   0  0  0  0  0  0  0  0  0  0  0  0
    2.4604   -0.4010   -1.3471 H   0  0  0  0  0  0  0  0  0  0  0  0
  1  2  1  0
  2  3  2  0
  3  4  1  0
  4  5  2  0
  5  6  1  0
  6  7  1  0
  7  8  2  0
  8  9  1  0
  9 10  2  0
 10 11  1  0
 11 12  1  0
 11 13  2  0
 13 14  1  0
 13 15  1  0
 15 16  2  0
 16 17  1  0
 17 18  1  0
 18 19  1  0
 19 20  1  0
  6 21  2  0
 21  2  1  0
 17  7  1  0
 20 18  1  0
 16  9  1  0
  3 22  1  0
  5 23  1  0
 10 24  1  0
 15 25  1  0
 18 26  1  0
 19 27  1  0
 19 28  1  0
 20 29  1  0
 20 30  1  0
 21 31  1  0
M  END
$$$$
