@<TRIPOS>MOLECULE
*****
 31 34 0 0 0
SMALL
GASTEIGER

@<TRIPOS>ATOM
      1 F           5.0716   -0.3128   -0.8046 F       1  UNL1       -0.2039
      2 C           4.0734    0.3525   -0.1391 C.ar    1  UNL1        0.1421
      3 C           4.4608    1.1402    0.9085 C.ar    1  UNL1        0.0628
      4 N           3.5387    1.8215    1.6066 N.ar    1  UNL1       -0.2597
      5 C           2.2523    1.7007    1.2427 C.ar    1  UNL1        0.0384
      6 C           1.8013    0.9244    0.1988 C.ar    1  UNL1        0.0383
      7 C           0.3685    0.8535   -0.1271 C.ar    1  UNL1        0.1437
      8 N          -0.3380    1.7427   -0.8469 N.ar    1  UNL1       -0.2274
      9 C          -1.6257    1.3683   -0.9519 C.ar    1  UNL1        0.0926
     10 C          -2.7592    1.8774   -1.5518 C.ar    1  UNL1        0.0039
     11 C          -3.9849    1.2531   -1.4896 C.ar    1  UNL1        0.1605
     12 F          -5.0990    1.7538   -2.0793 F       1  UNL1       -0.2024
     13 C          -4.0802    0.0672   -0.7967 C.ar    1  UNL1        0.1605
     14 F          -5.3001   -0.5547   -0.7345 F       1  UNL1       -0.2024
     15 C          -2.9659   -0.4526   -0.1953 C.ar    1  UNL1        0.0021
     16 C          -1.7409    0.1627   -0.2522 C.ar    1  UNL1        0.0722
     17 N          -0.5057   -0.1039    0.2271 N.ar    1  UNL1       -0.3204
     18 C          -0.1665   -1.2610    1.0144 C.3     1  UNL1        0.0366
     19 C           0.8123   -2.2712    0.5169 C.3     1  UNL1       -0.0302
     20 C          -0.6659   -2.6104    0.6876 C.3     1  UNL1       -0.0302
     21 C           2.7503    0.2189   -0.5251 C.ar    1  UNL1       -0.0128
     22 H           5.4951    1.2620    1.2319 H       1  UNL1        0.0859
     23 H           1.5256    2.2556    1.8153 H       1  UNL1        0.0837
     24 H          -2.6958    2.8085   -2.0987 H       1  UNL1        0.0669
     25 H          -3.0463   -1.3777    0.3436 H       1  UNL1        0.0668
     26 H          -0.1305   -1.0320    2.1180 H       1  UNL1        0.0528
     27 H           1.4860   -2.7796    1.2612 H       1  UNL1        0.0286
     28 H           1.1682   -2.2447   -0.5161 H       1  UNL1        0.0286
     29 H          -1.2303   -2.8367   -0.2337 H       1  UNL1        0.0286
     30 H          -0.9298   -3.3246    1.5172 H       1  UNL1        0.0286
     31 H           2.4604   -0.4010   -1.3471 H       1  UNL1        0.0654
@<TRIPOS>BOND
     1     1     2    1
     2     2     3   ar
     3     3     4   ar
     4     4     5   ar
     5     5     6   ar
     6     6     7    1
     7     7     8   ar
     8     8     9   ar
     9     9    10   ar
    10    10    11   ar
    11    11    12    1
    12    11    13   ar
    13    13    14    1
    14    13    15   ar
    15    15    16   ar
    16    16    17   ar
    17    17    18    1
    18    18    19    1
    19    19    20    1
    20     6    21   ar
    21    21     2   ar
    22    17     7   ar
    23    20    18    1
    24    16     9   ar
    25     3    22    1
    26     5    23    1
    27    10    24    1
    28    15    25    1
    29    18    26    1
    30    19    27    1
    31    19    28    1
    32    20    29    1
    33    20    30    1
    34    21    31    1
