@<TRIPOS>MOLECULE
*****
 9 8 0 0 0
SMALL
GASTEIGER

@<TRIPOS>ATOM
      1 C          -1.1209   -0.1686   -0.1508 C.3     1  UNL1        0.0012
      2 C           0.1424    0.5301    0.2030 C.2     1  UNL1        0.1919
      3 O          -0.1831    1.6744    0.6361 O.2     1  UNL1       -0.2896
      4 C           1.4471   -0.1053    0.0313 C.2     1  UNL1        0.1850
      5 O           1.6756   -1.2760   -0.4181 O.2     1  UNL1       -0.2927
      6 H          -1.6507   -0.4158    0.8043 H       1  UNL1        0.0310
      7 H          -1.7882    0.4310   -0.7986 H       1  UNL1        0.0310
      8 H          -0.8420   -1.1385   -0.6192 H       1  UNL1        0.0310
      9 H           2.3197    0.4686    0.3120 H       1  UNL1        0.1112
@<TRIPOS>BOND
     1     1     2    1
     2     2     3    2
     3     2     4    1
     4     4     5    2
     5     1     6    1
     6     1     7    1
     7     1     8    1
     8     4     9    1
