
     RDKit          3D

  9  8  0  0  0  0  0  0  0  0999 V2000
   -1.1209   -0.1686   -0.1508 C   0  0  0  0  0  0  0  0  0  0  0  0
    0.1424    0.5301    0.2030 C   0  0  0  0  0  0  0  0  0  0  0  0
   -0.1831    1.6744    0.6361 O   0  0  0  0  0  0  0  0  0  0  0  0
    1.4471   -0.1053    0.0313 C   0  0  0  0  0  0  0  0  0  0  0  0
    1.6756   -1.2760   -0.4181 O   0  0  0  0  0  0  0  0  0  0  0  0
   -1.6507   -0.4158    0.8043 H   0  0  0  0  0  0  0  0  0  0  0  0
   -1.7882    0.4310   -0.7986 H   0  0  0  0  0  0  0  0  0  0  0  0
   -0.8420   -1.1385   -0.6192 H   0  0  0  0  0  0  0  0  0  0  0  0
    2.3197    0.4686    0.3120 H   0  0  0  0  0  0  0  0  0  0  0  0
  1  2  1  0
  2  3  2  0
  2  4  1  0
  4  5  2  0
  1  6  1  0
  1  7  1  0
  1  8  1  0
  4  9  1  0
M  END
$$$$
