@<TRIPOS>MOLECULE
*****
 57 60 0 0 0
SMALL
GASTEIGER

@<TRIPOS>ATOM
      1 CL          9.4518    1.0015   -2.2918 Cl      1  UNL1       -0.0820
      2 C           8.1881    0.8135   -1.0946 C.ar    1  UNL1        0.0610
      3 C           8.3916    1.2864    0.2025 C.ar    1  UNL1       -0.0419
      4 C           7.4062    1.1535    1.1540 C.ar    1  UNL1       -0.0585
      5 C           6.2344    0.5444    0.7700 C.ar    1  UNL1       -0.0391
      6 C           6.0112    0.0688   -0.5075 C.ar    1  UNL1        0.0497
      7 N           4.7481   -0.5562   -0.8133 N.pl3   1  UNL1       -0.3263
      8 C           3.9699   -0.0635   -1.9129 C.3     1  UNL1        0.0250
      9 C           2.5887    0.3177   -1.5942 C.3     1  UNL1        0.0147
     10 N           1.9502   -0.2732   -0.4547 N.3     1  UNL1       -0.2994
     11 C           0.6211   -0.7150   -0.7328 C.3     1  UNL1       -0.0009
     12 C          -0.2135   -1.1933    0.3819 C.3     1  UNL1       -0.0371
     13 C          -0.4590   -0.1727    1.4682 C.3     1  UNL1       -0.0175
     14 C          -1.1007    1.0829    0.9282 C.3     1  UNL1        0.0896
     15 O          -2.2737    1.0142    0.3049 O.3     1  UNL1       -0.4919
     16 C          -3.5510    0.7062    0.3861 C.ar    1  UNL1        0.1223
     17 C          -4.4307    0.2328    1.3133 C.ar    1  UNL1        0.0016
     18 C          -5.7475    0.0218    1.0550 C.ar    1  UNL1        0.0400
     19 C          -6.2420    0.2909   -0.2017 C.ar    1  UNL1       -0.0255
     20 C          -7.6797    0.0698   -0.5124 C.3     1  UNL1       -0.0177
     21 C          -8.5183    0.2922    0.7309 C.3     1  UNL1        0.0283
     22 C          -7.9976   -0.6500    1.7708 C.2     1  UNL1        0.2175
     23 O          -8.6330   -1.5441    2.3590 O.2     1  UNL1       -0.2755
     24 N          -6.6040   -0.4591    2.0911 N.am    1  UNL1       -0.2851
     25 C          -5.4281    0.7809   -1.2325 C.ar    1  UNL1       -0.0534
     26 C          -4.0808    0.9748   -0.8929 C.ar    1  UNL1       -0.0196
     27 C           2.7533   -1.0700    0.3842 C.3     1  UNL1        0.0147
     28 C           4.0028   -1.6502   -0.2360 C.3     1  UNL1        0.0250
     29 C           6.9973    0.2001   -1.4634 C.ar    1  UNL1        0.0802
     30 CL          6.7043   -0.4045   -3.0930 Cl      1  UNL1       -0.0801
     31 H           9.3304    1.7651    0.4861 H       1  UNL1        0.0633
     32 H           7.5289    1.5058    2.1699 H       1  UNL1        0.0619
     33 H           5.4462    0.4343    1.5059 H       1  UNL1        0.0636
     34 H           4.0458   -0.7764   -2.7897 H       1  UNL1        0.0476
     35 H           4.4926    0.8569   -2.3086 H       1  UNL1        0.0476
     36 H           2.4887    1.4329   -1.4507 H       1  UNL1        0.0442
     37 H           1.9290    0.0726   -2.4760 H       1  UNL1        0.0442
     38 H           0.0986    0.1689   -1.2084 H       1  UNL1        0.0427
     39 H           0.5898   -1.4883   -1.5407 H       1  UNL1        0.0427
     40 H           0.2031   -2.0780    0.8954 H       1  UNL1        0.0279
     41 H          -1.2103   -1.5218   -0.0032 H       1  UNL1        0.0279
     42 H           0.4571    0.0868    1.9946 H       1  UNL1        0.0298
     43 H          -1.1663   -0.6209    2.1895 H       1  UNL1        0.0298
     44 H          -1.0529    1.8561    1.7746 H       1  UNL1        0.0696
     45 H          -0.3185    1.5154    0.2215 H       1  UNL1        0.0696
     46 H          -3.9429    0.0561    2.2543 H       1  UNL1        0.0673
     47 H          -7.9924    0.7689   -1.3321 H       1  UNL1        0.0318
     48 H          -7.8039   -0.9513   -0.9219 H       1  UNL1        0.0318
     49 H          -8.3491    1.3290    1.0678 H       1  UNL1        0.0362
     50 H          -9.5830    0.1554    0.5067 H       1  UNL1        0.0362
     51 H          -6.2238   -0.6629    3.0439 H       1  UNL1        0.1548
     52 H          -5.8961    0.9649   -2.1901 H       1  UNL1        0.0622
     53 H          -3.5719    1.3581   -1.8036 H       1  UNL1        0.0654
     54 H           2.9944   -0.4582    1.2982 H       1  UNL1        0.0442
     55 H           2.1820   -1.9287    0.7806 H       1  UNL1        0.0442
     56 H           4.5665   -2.1562    0.5822 H       1  UNL1        0.0476
     57 H           3.6986   -2.3640   -1.0125 H       1  UNL1        0.0476
@<TRIPOS>BOND
     1     1     2    1
     2     2     3   ar
     3     3     4   ar
     4     4     5   ar
     5     5     6   ar
     6     6     7    1
     7     7     8    1
     8     8     9    1
     9     9    10    1
    10    10    11    1
    11    11    12    1
    12    12    13    1
    13    13    14    1
    14    14    15    1
    15    15    16    1
    16    16    17   ar
    17    17    18   ar
    18    18    19   ar
    19    19    20    1
    20    20    21    1
    21    21    22    1
    22    22    23    2
    23    22    24   am
    24    19    25   ar
    25    25    26   ar
    26    10    27    1
    27    27    28    1
    28     6    29   ar
    29    29    30    1
    30    29     2   ar
    31    28     7    1
    32    26    16   ar
    33    24    18    1
    34     3    31    1
    35     4    32    1
    36     5    33    1
    37     8    34    1
    38     8    35    1
    39     9    36    1
    40     9    37    1
    41    11    38    1
    42    11    39    1
    43    12    40    1
    44    12    41    1
    45    13    42    1
    46    13    43    1
    47    14    44    1
    48    14    45    1
    49    17    46    1
    50    20    47    1
    51    20    48    1
    52    21    49    1
    53    21    50    1
    54    24    51    1
    55    25    52    1
    56    26    53    1
    57    27    54    1
    58    27    55    1
    59    28    56    1
    60    28    57    1
