@<TRIPOS>MOLECULE
*****
 52 51 0 0 0
SMALL
GASTEIGER

@<TRIPOS>ATOM
      1 C          -4.6664   -0.0896    3.2111 C.3     1  UNL1        0.0001
      2 N          -4.4250    0.5121    1.9175 N.am    1  UNL1       -0.3168
      3 C          -3.1403    0.2780    1.3858 C.2     1  UNL1        0.2336
      4 O          -2.1320   -0.3728    1.8348 O.2     1  UNL1       -0.2738
      5 C          -2.2510    0.5433    0.2263 C.3     1  UNL1        0.1042
      6 N          -0.9416   -0.0771    0.4483 N.am    1  UNL1       -0.3032
      7 C           0.2544    0.6386    0.7273 C.2     1  UNL1        0.2197
      8 O           0.1425    1.8935    0.7777 O.2     1  UNL1       -0.2754
      9 C           1.4442   -0.3623    0.9104 C.3     1  UNL1        0.0703
     10 C           2.5924    0.4388    1.3792 C.3     1  UNL1       -0.0367
     11 C           3.8827   -0.1705    1.6834 C.3     1  UNL1       -0.0459
     12 C           4.6777   -0.8601    0.6447 C.3     1  UNL1       -0.0626
     13 C           4.8289    0.8116    2.3919 C.3     1  UNL1       -0.0626
     14 C           1.5164   -0.9890   -0.4425 C.3     1  UNL1        0.1438
     15 O           2.4414   -1.9802   -0.6144 O.3     1  UNL1       -0.3817
     16 C           1.7328    0.0670   -1.5047 C.2     1  UNL1        0.2648
     17 O           1.2251    1.1979   -1.8217 O.2     1  UNL1       -0.2709
     18 N           2.7702   -0.1494   -2.4882 N.am    1  UNL1       -0.1953
     19 O           2.8661    0.8710   -3.3894 O.3     1  UNL1       -0.2951
     20 C          -2.8242    0.1336   -1.0926 C.3     1  UNL1       -0.0108
     21 C          -1.8656    0.4208   -2.2574 C.3     1  UNL1       -0.0579
     22 C          -4.1010    0.9057   -1.4260 C.3     1  UNL1       -0.0579
     23 C          -3.1806   -1.3197   -1.1630 C.3     1  UNL1       -0.0579
     24 H          -3.7412   -0.0384    3.8245 H       1  UNL1        0.0426
     25 H          -5.4105    0.5247    3.7641 H       1  UNL1        0.0426
     26 H          -5.0480   -1.1169    3.1733 H       1  UNL1        0.0426
     27 H          -4.8559    1.0934    1.1729 H       1  UNL1        0.1484
     28 H          -2.0686    1.6375    0.2041 H       1  UNL1        0.0600
     29 H          -1.1485   -1.0877    0.3502 H       1  UNL1        0.1495
     30 H           1.0998   -1.0368    1.7112 H       1  UNL1        0.0425
     31 H           2.7414    1.3468    0.6914 H       1  UNL1        0.0276
     32 H           2.2568    0.9812    2.3341 H       1  UNL1        0.0276
     33 H           3.6852   -0.9637    2.4856 H       1  UNL1        0.0296
     34 H           4.5796   -0.4936   -0.3866 H       1  UNL1        0.0232
     35 H           4.6782   -1.9870    0.7215 H       1  UNL1        0.0232
     36 H           5.8016   -0.6585    0.8484 H       1  UNL1        0.0232
     37 H           5.8067    0.2892    2.4510 H       1  UNL1        0.0232
     38 H           4.9817    1.6518    1.6716 H       1  UNL1        0.0232
     39 H           4.4412    1.1506    3.3527 H       1  UNL1        0.0232
     40 H           0.5198   -1.4297   -0.7296 H       1  UNL1        0.0698
     41 H           2.1871   -2.5261   -1.3908 H       1  UNL1        0.2105
     42 H           3.3858   -1.0082   -2.5030 H       1  UNL1        0.1823
     43 H           3.4831    1.5574   -2.9793 H       1  UNL1        0.2414
     44 H          -1.5482    1.4655   -2.1701 H       1  UNL1        0.0236
     45 H          -2.4141    0.2611   -3.2038 H       1  UNL1        0.0236
     46 H          -1.0424   -0.3202   -2.2602 H       1  UNL1        0.0236
     47 H          -5.0133    0.4018   -1.0988 H       1  UNL1        0.0236
     48 H          -4.1725    1.0763   -2.5256 H       1  UNL1        0.0236
     49 H          -4.0453    1.8892   -0.9187 H       1  UNL1        0.0236
     50 H          -3.6933   -1.4673   -2.1570 H       1  UNL1        0.0236
     51 H          -2.3368   -2.0141   -1.1516 H       1  UNL1        0.0236
     52 H          -3.9563   -1.5192   -0.3959 H       1  UNL1        0.0236
@<TRIPOS>BOND
     1     1     2    1
     2     2     3   am
     3     3     4    2
     4     3     5    1
     5     5     6    1
     6     6     7   am
     7     7     8    2
     8     7     9    1
     9     9    10    1
    10    10    11    1
    11    11    12    1
    12    11    13    1
    13     9    14    1
    14    14    15    1
    15    14    16    1
    16    16    17    2
    17    16    18   am
    18    18    19    1
    19     5    20    1
    20    20    21    1
    21    20    22    1
    22    20    23    1
    23     1    24    1
    24     1    25    1
    25     1    26    1
    26     2    27    1
    27     5    28    1
    28     6    29    1
    29     9    30    1
    30    10    31    1
    31    10    32    1
    32    11    33    1
    33    12    34    1
    34    12    35    1
    35    12    36    1
    36    13    37    1
    37    13    38    1
    38    13    39    1
    39    14    40    1
    40    15    41    1
    41    18    42    1
    42    19    43    1
    43    21    44    1
    44    21    45    1
    45    21    46    1
    46    22    47    1
    47    22    48    1
    48    22    49    1
    49    23    50    1
    50    23    51    1
    51    23    52    1
