@<TRIPOS>MOLECULE
*****
 48 51 0 0 0
SMALL
GASTEIGER

@<TRIPOS>ATOM
      1 C          -3.7318   -0.3465   -0.8269 C.3     1  UNL1        0.0860
      2 N          -4.7722    0.5773   -0.5942 N.3     1  UNL1       -0.2867
      3 C          -5.8035    0.2322    0.3126 C.3     1  UNL1       -0.0111
      4 C          -4.2285    1.8784   -0.3756 C.3     1  UNL1        0.0012
      5 C          -2.7506    1.6506   -0.1429 C.3     1  UNL1       -0.0277
      6 C          -2.4791    0.4817   -1.0651 C.3     1  UNL1        0.0279
      7 C          -2.3975    0.9426   -2.4828 C.3     1  UNL1       -0.0525
      8 C          -1.3672   -0.3566   -0.6137 C.ar    1  UNL1       -0.0139
      9 C          -1.9206   -1.3519    0.1582 C.ar    1  UNL1        0.0347
     10 C          -0.9990   -2.2633    0.6859 C.ar    1  UNL1       -0.0369
     11 C           0.3559   -2.1688    0.4492 C.ar    1  UNL1       -0.0174
     12 C           0.8495   -1.1461   -0.3346 C.ar    1  UNL1        0.1336
     13 O           2.2186   -1.0749   -0.5566 O.3     1  UNL1       -0.4113
     14 C           3.1127   -0.3925    0.2249 C.2     1  UNL1        0.4099
     15 O           2.9418    0.2918    1.2623 O.2     1  UNL1       -0.2257
     16 N           4.4513   -0.4737   -0.2118 N.am    1  UNL1       -0.2508
     17 C           5.5541    0.1594    0.4481 C.ar    1  UNL1        0.0365
     18 C           6.1874   -0.6055    1.4337 C.ar    1  UNL1       -0.0404
     19 C           7.2655   -0.1101    2.1451 C.ar    1  UNL1       -0.0600
     20 C           7.7320    1.1678    1.8814 C.ar    1  UNL1       -0.0616
     21 C           7.0972    1.9099    0.9067 C.ar    1  UNL1       -0.0600
     22 C           6.0206    1.4443    0.1806 C.ar    1  UNL1       -0.0404
     23 C          -0.0203   -0.2230   -0.8770 C.ar    1  UNL1       -0.0136
     24 N          -3.3551   -1.2142    0.2402 N.pl3   1  UNL1       -0.3162
     25 C          -4.0455   -1.9434    1.3175 C.3     1  UNL1        0.0022
     26 H          -3.9082   -1.0114   -1.7203 H       1  UNL1        0.0680
     27 H          -6.4143   -0.6081   -0.1160 H       1  UNL1        0.0391
     28 H          -6.5395    1.0950    0.2972 H       1  UNL1        0.0391
     29 H          -5.5413    0.1179    1.3625 H       1  UNL1        0.0391
     30 H          -4.7004    2.4261    0.4627 H       1  UNL1        0.0427
     31 H          -4.3179    2.4661   -1.3340 H       1  UNL1        0.0427
     32 H          -2.6289    1.3516    0.9238 H       1  UNL1        0.0287
     33 H          -2.1473    2.5405   -0.3859 H       1  UNL1        0.0287
     34 H          -1.4815    0.6228   -2.9996 H       1  UNL1        0.0239
     35 H          -2.4096    2.0619   -2.5027 H       1  UNL1        0.0239
     36 H          -3.3004    0.6189   -3.0381 H       1  UNL1        0.0239
     37 H          -1.3598   -3.0731    1.3028 H       1  UNL1        0.0637
     38 H           1.0369   -2.9019    0.8812 H       1  UNL1        0.0655
     39 H           4.8056   -0.9984   -1.0606 H       1  UNL1        0.1582
     40 H           5.9090   -1.6150    1.7238 H       1  UNL1        0.0636
     41 H           7.7736   -0.6791    2.9116 H       1  UNL1        0.0618
     42 H           8.5687    1.6386    2.3870 H       1  UNL1        0.0618
     43 H           7.4267    2.9162    0.6645 H       1  UNL1        0.0618
     44 H           5.4999    1.9820   -0.5806 H       1  UNL1        0.0636
     45 H           0.3822    0.5562   -1.4774 H       1  UNL1        0.0658
     46 H          -3.5323   -2.9376    1.4830 H       1  UNL1        0.0428
     47 H          -3.9721   -1.4332    2.2863 H       1  UNL1        0.0428
     48 H          -5.0646   -2.2010    1.0361 H       1  UNL1        0.0428
@<TRIPOS>BOND
     1     1     2    1
     2     2     3    1
     3     2     4    1
     4     4     5    1
     5     5     6    1
     6     6     7    1
     7     6     8    1
     8     8     9   ar
     9     9    10   ar
    10    10    11   ar
    11    11    12   ar
    12    12    13    1
    13    13    14    1
    14    14    15    2
    15    14    16   am
    16    16    17    1
    17    17    18   ar
    18    18    19   ar
    19    19    20   ar
    20    20    21   ar
    21    21    22   ar
    22    12    23   ar
    23     9    24    1
    24    24    25    1
    25     6     1    1
    26    23     8   ar
    27    24     1    1
    28    22    17   ar
    29     1    26    1
    30     3    27    1
    31     3    28    1
    32     3    29    1
    33     4    30    1
    34     4    31    1
    35     5    32    1
    36     5    33    1
    37     7    34    1
    38     7    35    1
    39     7    36    1
    40    10    37    1
    41    11    38    1
    42    16    39    1
    43    18    40    1
    44    19    41    1
    45    20    42    1
    46    21    43    1
    47    22    44    1
    48    23    45    1
    49    25    46    1
    50    25    47    1
    51    25    48    1
