@<TRIPOS>MOLECULE
*****
 27 27 0 0 0
SMALL
GASTEIGER

@<TRIPOS>ATOM
      1 CA          1.1939   -0.9683    0.2195 C.3     1  PHE1        0.1254
      2 CB         -0.0444   -1.3904   -0.5279 C.3     1  PHE1        0.0013
      3 CG         -1.1878   -0.4984   -0.2902 C.ar    1  PHE1       -0.0451
      4 CD1        -1.4495    0.6216   -1.0817 C.ar    1  PHE1       -0.0585
      5 CE1        -2.5189    1.4722   -0.8746 C.ar    1  PHE1       -0.0615
      6 CZ         -3.3617    1.1828    0.1752 C.ar    1  PHE1       -0.0617
      7 CE2        -3.1257    0.0918    0.9639 C.ar    1  PHE1       -0.0615
      8 CD2        -2.0638   -0.7571    0.7621 C.ar    1  PHE1       -0.0585
      9 N           1.6666    0.3465   -0.1201 N.am    1  PHE1       -0.2861
     10 C           1.8818    1.3458    0.8508 C.2     0  UNK0        0.2977
     11 N           2.3490    2.6353    0.4876 N.am    0  UNK0       -0.3133
     12 O           1.7153    1.2788    2.0833 O.2     0  UNK0       -0.2531
     13 C           2.2925   -1.9131   -0.1829 C.2     1  PHE1        0.3256
     14 O           2.1786   -3.3044    0.0028 O.3     1  PHE1       -0.4793
     15 OXT         3.3639   -1.5597   -0.6987 O.2     1  PHE1       -0.2489
     16 HA          1.0154   -1.1288    1.2915 H       1  PHE1        0.0618
     17 HB1        -0.2620   -2.4278   -0.2373 H       1  PHE1        0.0337
     18 HB2         0.1696   -1.4209   -1.6213 H       1  PHE1        0.0337
     19 HD1        -0.7890    0.8509   -1.9068 H       1  PHE1        0.0620
     20 HE1        -2.6710    2.3314   -1.5269 H       1  PHE1        0.0618
     21 HZ         -4.1994    1.8543    0.3328 H       1  PHE1        0.0618
     22 HE2        -3.8278   -0.0749    1.7697 H       1  PHE1        0.0618
     23 HD2        -1.8785   -1.6217    1.3886 H       1  PHE1        0.0620
     24 H           1.8409    0.5135   -1.1383 H       1  PHE1        0.1511
     25 H           2.9490    2.8985   -0.3195 H       0  UNK0        0.1465
     26 H           2.1953    3.5425    0.9325 H       0  UNK0        0.1465
     27 H           2.5676   -3.9002   -0.7342 H       1  PHE1        0.2951
@<TRIPOS>BOND
     1     1     2    1
     2     2     3    1
     3     3     4   ar
     4     4     5   ar
     5     5     6   ar
     6     6     7   ar
     7     7     8   ar
     8     1     9    1
     9     9    10   am
    10    10    11   am
    11    10    12    2
    12     1    13    1
    13    13    14    1
    14    13    15    2
    15     8     3   ar
    16     1    16    1
    17     2    17    1
    18     2    18    1
    19     4    19    1
    20     5    20    1
    21     6    21    1
    22     7    22    1
    23     8    23    1
    24     9    24    1
    25    11    25    1
    26    11    26    1
    27    14    27    1
