@<TRIPOS>MOLECULE
*****
 59 62 0 0 0
SMALL
GASTEIGER

@<TRIPOS>ATOM
      1 C          -1.1023   -3.1311    2.4351 C.3     1  UNL1       -0.0045
      2 C          -1.3779   -1.7510    1.9813 C.ar    1  UNL1        0.1301
      3 N          -0.3971   -0.8400    2.0522 N.ar    1  UNL1       -0.2174
      4 C          -0.5841    0.4279    1.6540 C.ar    1  UNL1        0.1296
      5 N           0.4202    1.4120    1.7287 N.pl3   1  UNL1       -0.2785
      6 C           1.4228    1.5677    0.6506 C.ar    1  UNL1        0.1641
      7 N           1.6926    2.0453   -0.3264 N.ar    1  UNL1       -0.2322
      8 C           2.7726    1.9605   -1.0782 C.ar    1  UNL1        0.0491
      9 C           3.7319    1.1622   -0.6016 C.ar    1  UNL1        0.0953
     10 C           5.0691    0.7783   -1.0814 C.2     1  UNL1        0.2565
     11 O           5.5262    1.2243   -2.1611 O.2     1  UNL1       -0.2692
     12 N           5.8731   -0.1095   -0.3263 N.am    1  UNL1       -0.2796
     13 C           7.1716   -0.5192   -0.7306 C.ar    1  UNL1        0.0551
     14 C           8.3220    0.1675   -0.3827 C.ar    1  UNL1       -0.0278
     15 C           8.1392    1.3843    0.4470 C.3     1  UNL1       -0.0379
     16 C           9.5720   -0.2286   -0.7682 C.ar    1  UNL1       -0.0570
     17 C           9.7228   -1.3647   -1.5422 C.ar    1  UNL1       -0.0600
     18 C           8.6067   -2.0706   -1.9059 C.ar    1  UNL1       -0.0416
     19 C           7.3387   -1.6551   -1.5057 C.ar    1  UNL1        0.0624
     20 CL          5.9328   -2.5783   -1.9840 Cl      1  UNL1       -0.0816
     21 S           3.0246    0.5422    0.9584 S.2     1  UNL1       -0.0475
     22 C          -1.8411    0.7538    1.1644 C.ar    1  UNL1        0.0185
     23 C          -2.8752   -0.1531    1.0757 C.ar    1  UNL1        0.1266
     24 N          -4.1569    0.1793    0.5793 N.pl3   1  UNL1       -0.3126
     25 C          -5.1916   -0.8584    0.6564 C.3     1  UNL1        0.0263
     26 C          -6.4798   -0.1180    0.9908 C.3     1  UNL1        0.0148
     27 N          -6.7654    0.7708   -0.0588 N.3     1  UNL1       -0.2972
     28 C          -7.2466    0.3001   -1.2923 C.3     1  UNL1        0.0222
     29 C          -8.6363   -0.2355   -1.2459 C.3     1  UNL1        0.0569
     30 O          -8.7072   -1.3101   -0.3819 O.3     1  UNL1       -0.3937
     31 C          -5.8081    1.8398   -0.2249 C.3     1  UNL1        0.0148
     32 C          -4.3923    1.4790    0.0364 C.3     1  UNL1        0.0263
     33 N          -2.5849   -1.4188    1.5065 N.ar    1  UNL1       -0.2175
     34 H          -0.9374   -3.8294    1.5876 H       1  UNL1        0.0308
     35 H          -0.1646   -3.1584    3.0347 H       1  UNL1        0.0308
     36 H          -1.9318   -3.5329    3.0242 H       1  UNL1        0.0308
     37 H           0.4898    2.0607    2.5436 H       1  UNL1        0.1555
     38 H           2.8742    2.5106   -2.0284 H       1  UNL1        0.0843
     39 H           5.4625   -0.4705    0.5789 H       1  UNL1        0.1552
     40 H           9.1050    1.6211    0.9314 H       1  UNL1        0.0278
     41 H           7.7775    2.2111   -0.1987 H       1  UNL1        0.0278
     42 H           7.3827    1.2251    1.2522 H       1  UNL1        0.0278
     43 H          10.4719    0.3246   -0.4864 H       1  UNL1        0.0621
     44 H          10.7146   -1.6417   -1.8232 H       1  UNL1        0.0618
     45 H           8.6772   -2.9609   -2.5047 H       1  UNL1        0.0633
     46 H          -2.0197    1.7679    0.8368 H       1  UNL1        0.0686
     47 H          -5.0047   -1.5744    1.4738 H       1  UNL1        0.0477
     48 H          -5.2976   -1.3977   -0.2841 H       1  UNL1        0.0477
     49 H          -6.2389    0.5226    1.9000 H       1  UNL1        0.0442
     50 H          -7.2971   -0.7709    1.2466 H       1  UNL1        0.0442
     51 H          -7.2900    1.1989   -1.9873 H       1  UNL1        0.0449
     52 H          -6.5453   -0.3834   -1.8324 H       1  UNL1        0.0449
     53 H          -9.0051   -0.5483   -2.2664 H       1  UNL1        0.0570
     54 H          -9.3567    0.5354   -0.8485 H       1  UNL1        0.0570
     55 H          -8.1100   -2.0454   -0.6655 H       1  UNL1        0.2095
     56 H          -5.9617    2.2403   -1.2739 H       1  UNL1        0.0442
     57 H          -6.1591    2.6675    0.4367 H       1  UNL1        0.0442
     58 H          -3.9705    2.2638    0.7067 H       1  UNL1        0.0477
     59 H          -3.8570    1.5115   -0.9589 H       1  UNL1        0.0477
@<TRIPOS>BOND
     1     1     2    1
     2     2     3   ar
     3     3     4   ar
     4     4     5    1
     5     5     6    1
     6     6     7   ar
     7     7     8   ar
     8     8     9   ar
     9     9    10    1
    10    10    11    2
    11    10    12   am
    12    12    13    1
    13    13    14   ar
    14    14    15    1
    15    14    16   ar
    16    16    17   ar
    17    17    18   ar
    18    18    19   ar
    19    19    20    1
    20     9    21   ar
    21     4    22   ar
    22    22    23   ar
    23    23    24    1
    24    24    25    1
    25    25    26    1
    26    26    27    1
    27    27    28    1
    28    28    29    1
    29    29    30    1
    30    27    31    1
    31    31    32    1
    32    23    33   ar
    33    33     2   ar
    34    21     6   ar
    35    32    24    1
    36    19    13   ar
    37     1    34    1
    38     1    35    1
    39     1    36    1
    40     5    37    1
    41     8    38    1
    42    12    39    1
    43    15    40    1
    44    15    41    1
    45    15    42    1
    46    16    43    1
    47    17    44    1
    48    18    45    1
    49    22    46    1
    50    25    47    1
    51    25    48    1
    52    26    49    1
    53    26    50    1
    54    28    51    1
    55    28    52    1
    56    29    53    1
    57    29    54    1
    58    30    55    1
    59    31    56    1
    60    31    57    1
    61    32    58    1
    62    32    59    1
