@<TRIPOS>MOLECULE
*****
 23 24 0 0 0
SMALL
GASTEIGER

@<TRIPOS>ATOM
      1 N           3.1980    0.8444    1.3666 N.pl3   1  UNL1       -0.3538
      2 C           2.3166    0.3465    0.3549 C.ar    1  UNL1        0.0904
      3 C           0.9503    0.4077    0.6407 C.ar    1  UNL1       -0.0267
      4 C           0.0942   -0.0704   -0.3236 C.ar    1  UNL1        0.0001
      5 C           0.6393   -0.5646   -1.4809 C.ar    1  UNL1        0.0128
      6 N           1.9803   -0.5904   -1.6855 N.ar    1  UNL1       -0.3270
      7 C           2.8853   -0.1458   -0.7964 C.ar    1  UNL1        0.2695
      8 O           4.1191   -0.1606   -0.9651 O.2     1  UNL1       -0.2659
      9 C          -1.3205    0.0091    0.0109 C.ar    1  UNL1       -0.0136
     10 C          -1.8870    1.0020    0.7782 C.ar    1  UNL1       -0.0358
     11 C          -3.2429    0.8959    0.9952 C.ar    1  UNL1        0.0281
     12 N          -3.9654   -0.1150    0.4888 N.ar    1  UNL1       -0.2632
     13 C          -3.4384   -1.0867   -0.2570 C.ar    1  UNL1        0.0281
     14 C          -2.0730   -1.0387   -0.5138 C.ar    1  UNL1       -0.0358
     15 H           3.5625    1.5190    2.0540 H       1  UNL1        0.1425
     16 H           3.9576    0.1450    1.6025 H       1  UNL1        0.1425
     17 H           0.6068    0.8183    1.5816 H       1  UNL1        0.0644
     18 H          -0.0705   -0.9292   -2.2101 H       1  UNL1        0.0814
     19 H           2.3117   -0.9892   -2.5926 H       1  UNL1        0.1684
     20 H          -1.2107    1.7680    1.1331 H       1  UNL1        0.0639
     21 H          -3.6826    1.6733    1.5965 H       1  UNL1        0.0830
     22 H          -4.0633   -1.8919   -0.6486 H       1  UNL1        0.0830
     23 H          -1.6676   -1.8467   -1.1293 H       1  UNL1        0.0639
@<TRIPOS>BOND
     1     1     2    1
     2     2     3   ar
     3     3     4   ar
     4     4     5   ar
     5     5     6   ar
     6     6     7   ar
     7     7     8    2
     8     4     9    1
     9     9    10   ar
    10    10    11   ar
    11    11    12   ar
    12    12    13   ar
    13    13    14   ar
    14     7     2   ar
    15    14     9   ar
    16     1    15    1
    17     1    16    1
    18     3    17    1
    19     5    18    1
    20     6    19    1
    21    10    20    1
    22    11    21    1
    23    13    22    1
    24    14    23    1
