@<TRIPOS>MOLECULE
*****
 75 78 0 0 0
SMALL
GASTEIGER

@<TRIPOS>ATOM
      1 C          10.0587    1.8742   -2.6142 C.3     1  UNL1       -0.0397
      2 C           8.9047    1.3399   -1.8571 C.ar    1  UNL1       -0.0503
      3 C           7.7953    0.8891   -2.5362 C.ar    1  UNL1       -0.0570
      4 C           6.7043    0.3869   -1.8622 C.ar    1  UNL1       -0.0351
      5 C           6.6723    0.3135   -0.4892 C.ar    1  UNL1        0.1055
      6 S           5.2599   -0.3367    0.3734 S.O2    1  UNL1        0.0616
      7 O           4.6312   -1.2925   -0.6361 O.2     1  UNL1       -0.1528
      8 O           5.7016   -1.0950    1.5730 O.2     1  UNL1       -0.1528
      9 N           4.1393    0.9037    0.6880 N.3     1  UNL1       -0.1628
     10 C           4.8124    1.8837    1.5325 C.3     1  UNL1        0.0369
     11 C           3.8765    2.8679    2.1576 C.3     1  UNL1        0.0261
     12 N           2.6735    2.9275    1.3562 N.am    1  UNL1       -0.3127
     13 C           1.9910    1.6895    1.1350 C.2     1  UNL1        0.2324
     14 O           0.7950    1.6276    0.8450 O.2     1  UNL1       -0.2740
     15 C           2.8968    0.4788    1.2922 C.3     1  UNL1        0.1160
     16 C           2.2449   -0.6762    0.6302 C.3     1  UNL1        0.0496
     17 C           0.9707   -1.0397    1.3380 C.2     1  UNL1        0.2155
     18 O           0.7268   -0.4273    2.4092 O.2     1  UNL1       -0.2757
     19 N           0.0914   -2.0157    0.8288 N.am    1  UNL1       -0.3084
     20 C          -1.1349   -2.3915    1.4776 C.3     1  UNL1        0.0486
     21 C          -1.2663   -3.8583    1.7063 C.3     1  UNL1       -0.0300
     22 C          -2.4704   -4.1404    2.5657 C.3     1  UNL1       -0.0471
     23 C          -3.6401   -3.2569    2.3514 C.3     1  UNL1       -0.0273
     24 C          -3.5578   -2.3969    1.1543 C.ar    1  UNL1       -0.0421
     25 C          -4.7222   -2.0141    0.4630 C.ar    1  UNL1       -0.0538
     26 C          -4.6491   -1.2048   -0.6486 C.ar    1  UNL1       -0.0333
     27 C          -5.8717   -0.7713   -1.4080 C.3     1  UNL1        0.0217
     28 N          -6.3300    0.4549   -0.8513 N.3     1  UNL1       -0.3074
     29 C          -7.4696    1.0577   -1.4417 C.3     1  UNL1        0.0110
     30 C          -8.7061    0.2233   -1.4291 C.3     1  UNL1       -0.0473
     31 C          -7.7861    2.3140   -0.6172 C.3     1  UNL1       -0.0473
     32 C          -7.2438    1.5655   -2.8554 C.3     1  UNL1       -0.0473
     33 C          -3.3844   -0.7859   -1.0539 C.ar    1  UNL1       -0.0570
     34 C          -2.2388   -1.1429   -0.4013 C.ar    1  UNL1       -0.0562
     35 C          -2.3355   -1.9629    0.7213 C.ar    1  UNL1       -0.0240
     36 C           7.7888    0.7674    0.1926 C.ar    1  UNL1       -0.0351
     37 C           8.8902    1.2733   -0.4801 C.ar    1  UNL1       -0.0570
     38 H          10.9173    2.0262   -1.8990 H       1  UNL1        0.0278
     39 H          10.3881    1.1242   -3.3501 H       1  UNL1        0.0278
     40 H           9.8022    2.7980   -3.1624 H       1  UNL1        0.0278
     41 H           7.7863    0.9321   -3.6170 H       1  UNL1        0.0621
     42 H           5.8556    0.0456   -2.4503 H       1  UNL1        0.0637
     43 H           5.5985    2.4058    0.9649 H       1  UNL1        0.0459
     44 H           5.3531    1.3631    2.3731 H       1  UNL1        0.0459
     45 H           3.6496    2.6406    3.2245 H       1  UNL1        0.0475
     46 H           4.3436    3.8854    2.0794 H       1  UNL1        0.0475
     47 H           2.2911    3.8056    0.9437 H       1  UNL1        0.1488
     48 H           3.0988    0.2598    2.3562 H       1  UNL1        0.0580
     49 H           2.1006   -0.5204   -0.4451 H       1  UNL1        0.0379
     50 H           2.8862   -1.5996    0.7566 H       1  UNL1        0.0379
     51 H           0.3530   -2.4854   -0.0652 H       1  UNL1        0.1493
     52 H          -1.2209   -1.8741    2.4639 H       1  UNL1        0.0548
     53 H          -1.4249   -4.4253    0.7496 H       1  UNL1        0.0286
     54 H          -0.3599   -4.3024    2.1850 H       1  UNL1        0.0286
     55 H          -2.1340   -4.0078    3.6335 H       1  UNL1        0.0269
     56 H          -2.8074   -5.2152    2.4467 H       1  UNL1        0.0269
     57 H          -3.8288   -2.5755    3.2236 H       1  UNL1        0.0313
     58 H          -4.5732   -3.8652    2.2587 H       1  UNL1        0.0313
     59 H          -5.6630   -2.3677    0.8233 H       1  UNL1        0.0623
     60 H          -6.5780   -1.5964   -1.3839 H       1  UNL1        0.0474
     61 H          -5.5675   -0.6391   -2.4831 H       1  UNL1        0.0474
     62 H          -5.5506    1.1486   -0.8483 H       1  UNL1        0.1227
     63 H          -8.8162   -0.4099   -0.5204 H       1  UNL1        0.0247
     64 H          -9.5851    0.9117   -1.4172 H       1  UNL1        0.0247
     65 H          -8.8385   -0.3694   -2.3761 H       1  UNL1        0.0247
     66 H          -7.4854    2.0905    0.4453 H       1  UNL1        0.0247
     67 H          -7.1561    3.1457   -0.9580 H       1  UNL1        0.0247
     68 H          -8.8650    2.5297   -0.6202 H       1  UNL1        0.0247
     69 H          -6.8687    2.6172   -2.8425 H       1  UNL1        0.0247
     70 H          -6.6505    0.8984   -3.4811 H       1  UNL1        0.0247
     71 H          -8.2627    1.6329   -3.3204 H       1  UNL1        0.0247
     72 H          -3.3082   -0.1429   -1.9319 H       1  UNL1        0.0621
     73 H          -1.2440   -0.8421   -0.6796 H       1  UNL1        0.0621
     74 H           7.7798    0.7182    1.2601 H       1  UNL1        0.0637
     75 H           9.7661    1.6284    0.0541 H       1  UNL1        0.0621
@<TRIPOS>BOND
     1     1     2    1
     2     2     3   ar
     3     3     4   ar
     4     4     5   ar
     5     5     6    1
     6     6     7    2
     7     6     8    2
     8     6     9    1
     9     9    10    1
    10    10    11    1
    11    11    12    1
    12    12    13   am
    13    13    14    2
    14    13    15    1
    15    15    16    1
    16    16    17    1
    17    17    18    2
    18    17    19   am
    19    19    20    1
    20    20    21    1
    21    21    22    1
    22    22    23    1
    23    23    24    1
    24    24    25   ar
    25    25    26   ar
    26    26    27    1
    27    27    28    1
    28    28    29    1
    29    29    30    1
    30    29    31    1
    31    29    32    1
    32    26    33   ar
    33    33    34   ar
    34    34    35   ar
    35     5    36   ar
    36    36    37   ar
    37    37     2   ar
    38    15     9    1
    39    35    20    1
    40    35    24   ar
    41     1    38    1
    42     1    39    1
    43     1    40    1
    44     3    41    1
    45     4    42    1
    46    10    43    1
    47    10    44    1
    48    11    45    1
    49    11    46    1
    50    12    47    1
    51    15    48    1
    52    16    49    1
    53    16    50    1
    54    19    51    1
    55    20    52    1
    56    21    53    1
    57    21    54    1
    58    22    55    1
    59    22    56    1
    60    23    57    1
    61    23    58    1
    62    25    59    1
    63    27    60    1
    64    27    61    1
    65    28    62    1
    66    30    63    1
    67    30    64    1
    68    30    65    1
    69    31    66    1
    70    31    67    1
    71    31    68    1
    72    32    69    1
    73    32    70    1
    74    32    71    1
    75    33    72    1
    76    34    73    1
    77    36    74    1
    78    37    75    1
