
     RDKit          3D

 42 44  0  0  0  0  0  0  0  0999 V2000
    4.7909   -0.3016    1.5140 O   0  0  0  0  0  0  0  0  0  0  0  0
    4.7250    0.6583    0.6920 C   0  0  0  0  0  0  0  0  0  0  0  0
    4.3491    0.4041   -0.7048 C   0  0  0  0  0  0  0  0  0  0  0  0
    4.0623   -1.0246   -1.0135 C   0  0  0  0  0  0  0  0  0  0  0  0
    2.9477   -1.6431   -0.2449 C   0  0  0  0  0  0  0  0  0  0  0  0
    1.6193   -0.9392   -0.4621 C   0  0  0  0  0  0  0  0  0  0  0  0
    0.5743   -1.6718    0.3786 C   0  0  0  0  0  0  0  0  0  0  0  0
   -0.7276   -1.0533    0.2219 N   0  0  0  0  0  0  0  0  0  0  0  0
   -1.1420   -0.0075    1.0799 C   0  0  0  0  0  0  0  0  0  0  0  0
   -0.3531    0.3838    1.9940 O   0  0  0  0  0  0  0  0  0  0  0  0
   -2.4550    0.6334    0.9401 C   0  0  0  0  0  0  0  0  0  0  0  0
   -2.8459    1.6533    1.7852 C   0  0  0  0  0  0  0  0  0  0  0  0
   -4.0811    2.2606    1.6583 C   0  0  0  0  0  0  0  0  0  0  0  0
   -4.9485    1.8430    0.6668 C   0  0  0  0  0  0  0  0  0  0  0  0
   -4.5359    0.8211   -0.1668 C   0  0  0  0  0  0  0  0  0  0  0  0
   -5.3954    0.3863   -1.1717 C   0  0  0  0  0  0  0  0  0  0  0  0
   -5.0590   -0.6233   -2.0400 C   0  0  0  0  0  0  0  0  0  0  0  0
   -3.8246   -1.2169   -1.8990 C   0  0  0  0  0  0  0  0  0  0  0  0
   -2.9297   -0.8203   -0.9127 C   0  0  0  0  0  0  0  0  0  0  0  0
   -3.3116    0.1996   -0.0620 C   0  0  0  0  0  0  0  0  0  0  0  0
   -1.6319   -1.4698   -0.7916 C   0  0  0  0  0  0  0  0  0  0  0  0
   -1.3113   -2.3939   -1.5784 O   0  0  0  0  0  0  0  0  0  0  0  0
    5.0200    1.9934    1.1355 N   0  0  0  0  0  0  0  0  0  0  0  0
    5.3648    2.2638    2.3957 O   0  0  0  0  0  0  0  0  0  0  0  0
    3.4844    1.0379   -1.0353 H   0  0  0  0  0  0  0  0  0  0  0  0
    5.1994    0.7215   -1.3438 H   0  0  0  0  0  0  0  0  0  0  0  0
    3.8491   -1.1099   -2.0972 H   0  0  0  0  0  0  0  0  0  0  0  0
    4.9819   -1.6227   -0.7969 H   0  0  0  0  0  0  0  0  0  0  0  0
    2.7984   -2.6738   -0.6847 H   0  0  0  0  0  0  0  0  0  0  0  0
    3.1753   -1.8217    0.8150 H   0  0  0  0  0  0  0  0  0  0  0  0
    1.6351    0.1069   -0.1431 H   0  0  0  0  0  0  0  0  0  0  0  0
    1.3407   -1.0982   -1.5146 H   0  0  0  0  0  0  0  0  0  0  0  0
    0.8600   -1.5908    1.4543 H   0  0  0  0  0  0  0  0  0  0  0  0
    0.5487   -2.7452    0.1408 H   0  0  0  0  0  0  0  0  0  0  0  0
   -2.1793    2.0023    2.5772 H   0  0  0  0  0  0  0  0  0  0  0  0
   -4.3933    3.0672    2.3247 H   0  0  0  0  0  0  0  0  0  0  0  0
   -5.9269    2.3107    0.5521 H   0  0  0  0  0  0  0  0  0  0  0  0
   -6.3435    0.8680   -1.2524 H   0  0  0  0  0  0  0  0  0  0  0  0
   -5.6935   -0.9871   -2.8277 H   0  0  0  0  0  0  0  0  0  0  0  0
   -3.5030   -2.0125   -2.5477 H   0  0  0  0  0  0  0  0  0  0  0  0
    4.9551    2.7593    0.4292 H   0  0  0  0  0  0  0  0  0  0  0  0
    6.3108    2.4524    2.5353 H   0  0  0  0  0  0  0  0  0  0  0  0
  1  2  2  0
  2  3  1  0
  3  4  1  0
  4  5  1  0
  5  6  1  0
  6  7  1  0
  7  8  1  0
  8  9  1  0
  9 10  2  0
  9 11  1  0
 11 12  1  0
 12 13  2  0
 13 14  1  0
 14 15  2  0
 15 16  1  0
 16 17  2  0
 17 18  1  0
 18 19  2  0
 19 20  1  0
 19 21  1  0
 21 22  2  0
  2 23  1  0
 23 24  1  0
 21  8  1  0
 20 11  2  0
 20 15  1  0
  3 25  1  0
  3 26  1  0
  4 27  1  0
  4 28  1  0
  5 29  1  0
  5 30  1  0
  6 31  1  0
  6 32  1  0
  7 33  1  0
  7 34  1  0
 12 35  1  0
 13 36  1  0
 14 37  1  0
 16 38  1  0
 17 39  1  0
 18 40  1  0
 23 41  1  0
 24 42  1  0
M  END
$$$$
