@<TRIPOS>MOLECULE
*****
 42 44 0 0 0
SMALL
GASTEIGER

@<TRIPOS>ATOM
      1 O           4.7909   -0.3016    1.5140 O.2     1  UNL1       -0.2737
      2 C           4.7250    0.6583    0.6920 C.2     1  UNL1        0.2354
      3 C           4.3491    0.4041   -0.7048 C.3     1  UNL1        0.0259
      4 C           4.0623   -1.0246   -1.0135 C.3     1  UNL1       -0.0447
      5 C           2.9477   -1.6431   -0.2449 C.3     1  UNL1       -0.0512
      6 C           1.6193   -0.9392   -0.4621 C.3     1  UNL1       -0.0366
      7 C           0.5743   -1.6718    0.3786 C.3     1  UNL1        0.0230
      8 N          -0.7276   -1.0533    0.2219 N.am    1  UNL1       -0.2341
      9 C          -1.1420   -0.0075    1.0799 C.2     1  UNL1        0.2537
     10 O          -0.3531    0.3838    1.9940 O.2     1  UNL1       -0.2695
     11 C          -2.4550    0.6334    0.9401 C.ar    1  UNL1        0.0457
     12 C          -2.8459    1.6533    1.7852 C.ar    1  UNL1       -0.0490
     13 C          -4.0811    2.2606    1.6583 C.ar    1  UNL1       -0.0605
     14 C          -4.9485    1.8430    0.6668 C.ar    1  UNL1       -0.0540
     15 C          -4.5359    0.8211   -0.1668 C.ar    1  UNL1       -0.0164
     16 C          -5.3954    0.3863   -1.1717 C.ar    1  UNL1       -0.0540
     17 C          -5.0590   -0.6233   -2.0400 C.ar    1  UNL1       -0.0605
     18 C          -3.8246   -1.2169   -1.8990 C.ar    1  UNL1       -0.0490
     19 C          -2.9297   -0.8203   -0.9127 C.ar    1  UNL1        0.0457
     20 C          -3.3116    0.1996   -0.0620 C.ar    1  UNL1        0.0064
     21 C          -1.6319   -1.4698   -0.7916 C.2     1  UNL1        0.2537
     22 O          -1.3113   -2.3939   -1.5784 O.2     1  UNL1       -0.2695
     23 N           5.0200    1.9934    1.1355 N.am    1  UNL1       -0.1975
     24 O           5.3648    2.2638    2.3957 O.3     1  UNL1       -0.2952
     25 H           3.4844    1.0379   -1.0353 H       1  UNL1        0.0359
     26 H           5.1994    0.7215   -1.3438 H       1  UNL1        0.0359
     27 H           3.8491   -1.1099   -2.0972 H       1  UNL1        0.0270
     28 H           4.9819   -1.6227   -0.7969 H       1  UNL1        0.0270
     29 H           2.7984   -2.6738   -0.6847 H       1  UNL1        0.0266
     30 H           3.1753   -1.8217    0.8150 H       1  UNL1        0.0266
     31 H           1.6351    0.1069   -0.1431 H       1  UNL1        0.0280
     32 H           1.3407   -1.0982   -1.5146 H       1  UNL1        0.0280
     33 H           0.8600   -1.5908    1.4543 H       1  UNL1        0.0470
     34 H           0.5487   -2.7452    0.1408 H       1  UNL1        0.0470
     35 H          -2.1793    2.0023    2.5772 H       1  UNL1        0.0625
     36 H          -4.3933    3.0672    2.3247 H       1  UNL1        0.0618
     37 H          -5.9269    2.3107    0.5521 H       1  UNL1        0.0624
     38 H          -6.3435    0.8680   -1.2524 H       1  UNL1        0.0624
     39 H          -5.6935   -0.9871   -2.8277 H       1  UNL1        0.0618
     40 H          -3.5030   -2.0125   -2.5477 H       1  UNL1        0.0625
     41 H           4.9551    2.7593    0.4292 H       1  UNL1        0.1822
     42 H           6.3108    2.4524    2.5353 H       1  UNL1        0.2414
@<TRIPOS>BOND
     1     1     2    2
     2     2     3    1
     3     3     4    1
     4     4     5    1
     5     5     6    1
     6     6     7    1
     7     7     8    1
     8     8     9   am
     9     9    10    2
    10     9    11    1
    11    11    12   ar
    12    12    13   ar
    13    13    14   ar
    14    14    15   ar
    15    15    16   ar
    16    16    17   ar
    17    17    18   ar
    18    18    19   ar
    19    19    20   ar
    20    19    21    1
    21    21    22    2
    22     2    23   am
    23    23    24    1
    24    21     8   am
    25    20    11   ar
    26    20    15   ar
    27     3    25    1
    28     3    26    1
    29     4    27    1
    30     4    28    1
    31     5    29    1
    32     5    30    1
    33     6    31    1
    34     6    32    1
    35     7    33    1
    36     7    34    1
    37    12    35    1
    38    13    36    1
    39    14    37    1
    40    16    38    1
    41    17    39    1
    42    18    40    1
    43    23    41    1
    44    24    42    1
