
     RDKit          3D

 50 54  0  0  0  0  0  0  0  0999 V2000
   -2.5284   -4.0978   -0.2081 C   0  0  0  0  0  0  0  0  0  0  0  0
   -2.4788   -2.6668   -0.4050 N   0  0  0  0  0  0  0  0  0  0  0  0
   -3.2042   -1.9444    0.6160 C   0  0  0  0  0  0  0  0  0  0  0  0
   -2.3920   -2.2046    1.8567 C   0  0  0  0  0  0  0  0  0  0  0  0
   -0.9949   -2.3427    1.3027 C   0  0  0  0  0  0  0  0  0  0  0  0
   -1.0997   -2.2332   -0.1781 C   0  0  0  0  0  0  0  0  0  0  0  0
   -1.0399   -0.7972   -0.6960 C   0  0  0  0  0  0  0  0  0  0  0  0
    0.3096   -0.3336   -0.9963 C   0  0  0  0  0  0  0  0  0  0  0  0
    1.3911   -0.1236   -0.1586 C   0  0  0  0  0  0  0  0  0  0  0  0
    2.4355    0.3173   -0.9418 C   0  0  0  0  0  0  0  0  0  0  0  0
    3.7935    0.6749   -0.5183 C   0  0  0  0  0  0  0  0  0  0  0  0
    4.7487    1.1031   -1.4012 C   0  0  0  0  0  0  0  0  0  0  0  0
    6.0292    1.4409   -1.0056 C   0  0  0  0  0  0  0  0  0  0  0  0
    6.3670    1.3469    0.3231 C   0  0  0  0  0  0  0  0  0  0  0  0
    7.9654    1.7595    0.8773 Cl  0  0  0  0  0  0  0  0  0  0  0  0
    5.4227    0.9163    1.2447 C   0  0  0  0  0  0  0  0  0  0  0  0
    4.1437    0.5852    0.8075 C   0  0  0  0  0  0  0  0  0  0  0  0
    1.9572    0.3542   -2.1795 N   0  0  0  0  0  0  0  0  0  0  0  0
    0.7303   -0.0214   -2.2115 O   0  0  0  0  0  0  0  0  0  0  0  0
   -1.8083    0.0485    0.2807 C   0  0  0  0  0  0  0  0  0  0  0  0
   -1.7831    1.4803   -0.0458 C   0  0  0  0  0  0  0  0  0  0  0  0
   -2.1770    1.9298   -1.2874 C   0  0  0  0  0  0  0  0  0  0  0  0
   -2.1577    3.2869   -1.6099 C   0  0  0  0  0  0  0  0  0  0  0  0
   -1.7336    4.2040   -0.6621 C   0  0  0  0  0  0  0  0  0  0  0  0
   -1.6919    5.9265   -1.0225 Cl  0  0  0  0  0  0  0  0  0  0  0  0
   -1.3378    3.7741    0.5796 C   0  0  0  0  0  0  0  0  0  0  0  0
   -1.3678    2.4247    0.8693 C   0  0  0  0  0  0  0  0  0  0  0  0
   -3.2441   -0.4980    0.2373 C   0  0  0  0  0  0  0  0  0  0  0  0
   -1.7352   -4.5371   -0.8755 H   0  0  0  0  0  0  0  0  0  0  0  0
   -3.5231   -4.4968   -0.4978 H   0  0  0  0  0  0  0  0  0  0  0  0
   -2.3000   -4.4209    0.8079 H   0  0  0  0  0  0  0  0  0  0  0  0
   -4.2248   -2.3566    0.7550 H   0  0  0  0  0  0  0  0  0  0  0  0
   -2.7667   -3.1377    2.3236 H   0  0  0  0  0  0  0  0  0  0  0  0
   -2.4774   -1.4103    2.6159 H   0  0  0  0  0  0  0  0  0  0  0  0
   -0.2665   -1.6994    1.7932 H   0  0  0  0  0  0  0  0  0  0  0  0
   -0.6784   -3.3969    1.5280 H   0  0  0  0  0  0  0  0  0  0  0  0
   -0.3690   -2.8775   -0.6666 H   0  0  0  0  0  0  0  0  0  0  0  0
   -1.6499   -0.7869   -1.6410 H   0  0  0  0  0  0  0  0  0  0  0  0
    1.4141   -0.2730    0.8943 H   0  0  0  0  0  0  0  0  0  0  0  0
    4.4717    1.1735   -2.4459 H   0  0  0  0  0  0  0  0  0  0  0  0
    6.7819    1.7783   -1.7013 H   0  0  0  0  0  0  0  0  0  0  0  0
    5.6485    0.8293    2.2946 H   0  0  0  0  0  0  0  0  0  0  0  0
    3.4283    0.2528    1.5469 H   0  0  0  0  0  0  0  0  0  0  0  0
   -1.4606   -0.1235    1.3133 H   0  0  0  0  0  0  0  0  0  0  0  0
   -2.5120    1.2604   -2.0512 H   0  0  0  0  0  0  0  0  0  0  0  0
   -2.4702    3.6211   -2.5888 H   0  0  0  0  0  0  0  0  0  0  0  0
   -1.0103    4.5095    1.3039 H   0  0  0  0  0  0  0  0  0  0  0  0
   -1.0477    2.1200    1.8617 H   0  0  0  0  0  0  0  0  0  0  0  0
   -3.5700   -0.4538   -0.8432 H   0  0  0  0  0  0  0  0  0  0  0  0
   -3.9376    0.1157    0.8057 H   0  0  0  0  0  0  0  0  0  0  0  0
  1  2  1  0
  2  3  1  0
  3  4  1  0
  4  5  1  0
  5  6  1  0
  6  7  1  0
  7  8  1  0
  8  9  2  0
  9 10  1  0
 10 11  1  0
 11 12  2  0
 12 13  1  0
 13 14  2  0
 14 15  1  0
 14 16  1  0
 16 17  2  0
 10 18  2  0
 18 19  1  0
  7 20  1  0
 20 21  1  0
 21 22  2  0
 22 23  1  0
 23 24  2  0
 24 25  1  0
 24 26  1  0
 26 27  2  0
 20 28  1  0
  6  2  1  0
 19  8  1  0
 27 21  1  0
 28  3  1  0
 17 11  1  0
  1 29  1  0
  1 30  1  0
  1 31  1  0
  3 32  1  0
  4 33  1  0
  4 34  1  0
  5 35  1  0
  5 36  1  0
  6 37  1  0
  7 38  1  0
  9 39  1  0
 12 40  1  0
 13 41  1  0
 16 42  1  0
 17 43  1  0
 20 44  1  0
 22 45  1  0
 23 46  1  0
 26 47  1  0
 27 48  1  0
 28 49  1  0
 28 50  1  0
M  END
$$$$
