@<TRIPOS>MOLECULE
*****
 50 54 0 0 0
SMALL
GASTEIGER

@<TRIPOS>ATOM
      1 C          -2.5284   -4.0978   -0.2081 C.3     1  UNL1       -0.0122
      2 N          -2.4788   -2.6668   -0.4050 N.3     1  UNL1       -0.2988
      3 C          -3.2042   -1.9444    0.6160 C.3     1  UNL1        0.0110
      4 C          -2.3920   -2.2046    1.8567 C.3     1  UNL1       -0.0359
      5 C          -0.9949   -2.3427    1.3027 C.3     1  UNL1       -0.0352
      6 C          -1.0997   -2.2332   -0.1781 C.3     1  UNL1        0.0208
      7 C          -1.0399   -0.7972   -0.6960 C.3     1  UNL1        0.0422
      8 C           0.3096   -0.3336   -0.9963 C.ar    1  UNL1        0.1430
      9 C           1.3911   -0.1236   -0.1586 C.ar    1  UNL1        0.0085
     10 C           2.4355    0.3173   -0.9418 C.ar    1  UNL1        0.1136
     11 C           3.7935    0.6749   -0.5183 C.ar    1  UNL1        0.0037
     12 C           4.7487    1.1031   -1.4012 C.ar    1  UNL1       -0.0511
     13 C           6.0292    1.4409   -1.0056 C.ar    1  UNL1       -0.0428
     14 C           6.3670    1.3469    0.3231 C.ar    1  UNL1        0.0410
     15 CL          7.9654    1.7595    0.8773 Cl      1  UNL1       -0.0835
     16 C           5.4227    0.9163    1.2447 C.ar    1  UNL1       -0.0428
     17 C           4.1437    0.5852    0.8075 C.ar    1  UNL1       -0.0511
     18 N           1.9572    0.3542   -2.1795 N.ar    1  UNL1       -0.0781
     19 O           0.7303   -0.0214   -2.2115 O.2     1  UNL1       -0.3587
     20 C          -1.8083    0.0485    0.2807 C.3     1  UNL1       -0.0032
     21 C          -1.7831    1.4803   -0.0458 C.ar    1  UNL1       -0.0434
     22 C          -2.1770    1.9298   -1.2874 C.ar    1  UNL1       -0.0569
     23 C          -2.1577    3.2869   -1.6099 C.ar    1  UNL1       -0.0431
     24 C          -1.7336    4.2040   -0.6621 C.ar    1  UNL1        0.0410
     25 CL         -1.6919    5.9265   -1.0225 Cl      1  UNL1       -0.0835
     26 C          -1.3378    3.7741    0.5796 C.ar    1  UNL1       -0.0431
     27 C          -1.3678    2.4247    0.8693 C.ar    1  UNL1       -0.0569
     28 C          -3.2441   -0.4980    0.2373 C.3     1  UNL1       -0.0298
     29 H          -1.7352   -4.5371   -0.8755 H       1  UNL1        0.0391
     30 H          -3.5231   -4.4968   -0.4978 H       1  UNL1        0.0391
     31 H          -2.3000   -4.4209    0.8079 H       1  UNL1        0.0391
     32 H          -4.2248   -2.3566    0.7550 H       1  UNL1        0.0463
     33 H          -2.7667   -3.1377    2.3236 H       1  UNL1        0.0281
     34 H          -2.4774   -1.4103    2.6159 H       1  UNL1        0.0281
     35 H          -0.2665   -1.6994    1.7932 H       1  UNL1        0.0281
     36 H          -0.6784   -3.3969    1.5280 H       1  UNL1        0.0281
     37 H          -0.3690   -2.8775   -0.6666 H       1  UNL1        0.0470
     38 H          -1.6499   -0.7869   -1.6410 H       1  UNL1        0.0401
     39 H           1.4141   -0.2730    0.8943 H       1  UNL1        0.0674
     40 H           4.4717    1.1735   -2.4459 H       1  UNL1        0.0625
     41 H           6.7819    1.7783   -1.7013 H       1  UNL1        0.0632
     42 H           5.6485    0.8293    2.2946 H       1  UNL1        0.0632
     43 H           3.4283    0.2528    1.5469 H       1  UNL1        0.0625
     44 H          -1.4606   -0.1235    1.3133 H       1  UNL1        0.0357
     45 H          -2.5120    1.2604   -2.0512 H       1  UNL1        0.0621
     46 H          -2.4702    3.6211   -2.5888 H       1  UNL1        0.0632
     47 H          -1.0103    4.5095    1.3039 H       1  UNL1        0.0632
     48 H          -1.0477    2.1200    1.8617 H       1  UNL1        0.0621
     49 H          -3.5700   -0.4538   -0.8432 H       1  UNL1        0.0286
     50 H          -3.9376    0.1157    0.8057 H       1  UNL1        0.0286
@<TRIPOS>BOND
     1     1     2    1
     2     2     3    1
     3     3     4    1
     4     4     5    1
     5     5     6    1
     6     6     7    1
     7     7     8    1
     8     8     9   ar
     9     9    10   ar
    10    10    11    1
    11    11    12   ar
    12    12    13   ar
    13    13    14   ar
    14    14    15    1
    15    14    16   ar
    16    16    17   ar
    17    10    18   ar
    18    18    19   ar
    19     7    20    1
    20    20    21    1
    21    21    22   ar
    22    22    23   ar
    23    23    24   ar
    24    24    25    1
    25    24    26   ar
    26    26    27   ar
    27    20    28    1
    28     6     2    1
    29    19     8   ar
    30    27    21   ar
    31    28     3    1
    32    17    11   ar
    33     1    29    1
    34     1    30    1
    35     1    31    1
    36     3    32    1
    37     4    33    1
    38     4    34    1
    39     5    35    1
    40     5    36    1
    41     6    37    1
    42     7    38    1
    43     9    39    1
    44    12    40    1
    45    13    41    1
    46    16    42    1
    47    17    43    1
    48    20    44    1
    49    22    45    1
    50    23    46    1
    51    26    47    1
    52    27    48    1
    53    28    49    1
    54    28    50    1
