@<TRIPOS>MOLECULE
*****
 51 54 0 0 0
SMALL
GASTEIGER

@<TRIPOS>ATOM
      1 C          -4.6688   -5.2226   -1.2013 C.3     1  UNL1       -0.0319
      2 C          -3.6983   -4.0858   -1.0722 C.ar    1  UNL1        0.0068
      3 C          -2.3723   -4.0310   -1.3706 C.ar    1  UNL1        0.0383
      4 N          -1.7563   -2.9029   -1.1599 N.ar    1  UNL1       -0.2471
      5 C          -2.2775   -1.8691   -0.7082 C.ar    1  UNL1        0.1086
      6 C          -1.9104   -0.5165   -0.3671 C.ar    1  UNL1        0.0113
      7 C          -2.8137    0.3856    0.1338 C.ar    1  UNL1       -0.0102
      8 C          -2.4505    1.6843    0.4588 C.ar    1  UNL1        0.1225
      9 O          -3.3115    2.6365    0.9656 O.3     1  UNL1       -0.4842
     10 C          -4.6473    2.3848    1.2041 C.3     1  UNL1        0.1464
     11 C          -5.6077    3.4857    0.7629 C.3     1  UNL1        0.0869
     12 O          -6.3562    3.1935    1.9109 O.3     1  UNL1       -0.3723
     13 C          -5.1101    2.9900    2.5444 C.3     1  UNL1        0.0869
     14 C          -1.1362    2.0460    0.2604 C.ar    1  UNL1       -0.0078
     15 C          -0.2186    1.1715   -0.2353 C.ar    1  UNL1        0.0408
     16 C           1.1479    1.6348   -0.4140 C.2     1  UNL1        0.2447
     17 O           1.4609    2.8312   -0.1092 O.2     1  UNL1       -0.2702
     18 N           2.1879    0.8400   -0.9138 N.am    1  UNL1       -0.3047
     19 C           3.5484    1.3109   -1.0886 C.3     1  UNL1        0.0487
     20 C           4.0075    1.1834   -2.5214 C.3     1  UNL1       -0.0423
     21 C           4.4481    0.5083   -0.2443 C.ar    1  UNL1        0.0087
     22 C           4.3218   -0.8531   -0.2054 C.ar    1  UNL1        0.0363
     23 N           5.1582   -1.5864    0.5781 N.ar    1  UNL1       -0.2321
     24 C           6.1141   -1.0057    1.3221 C.ar    1  UNL1        0.2339
     25 C           7.0334   -1.8280    2.1851 C.3     1  UNL1        0.4522
     26 F           8.1912   -1.1051    2.3113 F       1  UNL1       -0.1632
     27 F           6.3980   -2.0186    3.3974 F       1  UNL1       -0.1632
     28 F           7.2280   -3.0285    1.5473 F       1  UNL1       -0.1632
     29 N           6.2222    0.3315    1.2705 N.ar    1  UNL1       -0.2321
     30 C           5.4157    1.1173    0.5066 C.ar    1  UNL1        0.0363
     31 C          -0.6140   -0.1118   -0.5477 C.ar    1  UNL1       -0.0397
     32 S          -4.0221   -2.4677   -0.4825 S.2     1  UNL1       -0.0725
     33 H          -5.6524   -4.8479   -1.5722 H       1  UNL1        0.0283
     34 H          -4.7769   -5.7103   -0.2141 H       1  UNL1        0.0283
     35 H          -4.2367   -5.9143   -1.9313 H       1  UNL1        0.0283
     36 H          -1.8411   -4.9250   -1.7802 H       1  UNL1        0.0838
     37 H          -3.8291    0.0688    0.2754 H       1  UNL1        0.0661
     38 H          -5.0783    1.4074    0.9973 H       1  UNL1        0.0780
     39 H          -6.1225    3.2790   -0.1896 H       1  UNL1        0.0597
     40 H          -5.1581    4.4924    0.8735 H       1  UNL1        0.0597
     41 H          -5.1285    2.2845    3.3742 H       1  UNL1        0.0597
     42 H          -4.6345    3.9634    2.6950 H       1  UNL1        0.0597
     43 H          -0.8334    3.0560    0.5082 H       1  UNL1        0.0662
     44 H           2.0121   -0.1371   -1.1818 H       1  UNL1        0.1496
     45 H           3.5916    2.3569   -0.7674 H       1  UNL1        0.0546
     46 H           5.0921    1.4348   -2.5340 H       1  UNL1        0.0251
     47 H           3.9076    0.1517   -2.8749 H       1  UNL1        0.0251
     48 H           3.5203    1.9277   -3.1877 H       1  UNL1        0.0251
     49 H           3.5645   -1.3994   -0.7858 H       1  UNL1        0.0834
     50 H           5.5648    2.2001    0.5168 H       1  UNL1        0.0834
     51 H           0.1268   -0.7910   -0.9393 H       1  UNL1        0.0632
@<TRIPOS>BOND
     1     1     2    1
     2     2     3   ar
     3     3     4   ar
     4     4     5   ar
     5     5     6    1
     6     6     7   ar
     7     7     8   ar
     8     8     9    1
     9     9    10    1
    10    10    11    1
    11    11    12    1
    12    12    13    1
    13     8    14   ar
    14    14    15   ar
    15    15    16    1
    16    16    17    2
    17    16    18   am
    18    18    19    1
    19    19    20    1
    20    19    21    1
    21    21    22   ar
    22    22    23   ar
    23    23    24   ar
    24    24    25    1
    25    25    26    1
    26    25    27    1
    27    25    28    1
    28    24    29   ar
    29    29    30   ar
    30    15    31   ar
    31     5    32   ar
    32    32     2   ar
    33    31     6   ar
    34    13    10    1
    35    30    21   ar
    36     1    33    1
    37     1    34    1
    38     1    35    1
    39     3    36    1
    40     7    37    1
    41    10    38    1
    42    11    39    1
    43    11    40    1
    44    13    41    1
    45    13    42    1
    46    14    43    1
    47    18    44    1
    48    19    45    1
    49    20    46    1
    50    20    47    1
    51    20    48    1
    52    22    49    1
    53    30    50    1
    54    31    51    1
