
     RDKit          3D

 74 78  0  0  0  0  0  0  0  0999 V2000
   -3.9390    0.9218    2.9956 C   0  0  0  0  0  0  0  0  0  0  0  0
   -5.1704    0.3412    3.0384 O   0  0  0  0  0  0  0  0  0  0  0  0
   -5.2364   -1.0001    2.7662 C   0  0  0  0  0  0  0  0  0  0  0  0
   -4.8078   -1.4296    1.3905 C   0  0  2  0  0  0  0  0  0  0  0  0
   -3.3503   -1.4067    1.1744 C   0  0  0  0  0  0  0  0  0  0  0  0
   -2.6115   -1.8000    2.1137 O   0  0  0  0  0  0  0  0  0  0  0  0
   -2.6934   -0.9811   -0.0131 N   0  0  0  0  0  0  0  0  0  0  0  0
   -1.2917   -0.9778   -0.2116 C   0  0  0  0  0  0  0  0  0  0  0  0
   -0.6802   -2.1547   -0.6520 C   0  0  0  0  0  0  0  0  0  0  0  0
    0.6581   -2.2374   -0.8698 C   0  0  0  0  0  0  0  0  0  0  0  0
    1.4655   -1.1319   -0.6559 C   0  0  0  0  0  0  0  0  0  0  0  0
    0.8959    0.0369   -0.2246 C   0  0  0  0  0  0  0  0  0  0  0  0
    1.4253    1.3008    0.0681 C   0  0  0  0  0  0  0  0  0  0  0  0
    2.8409    1.5967   -0.0151 C   0  0  0  0  0  0  0  0  0  0  0  0
    3.6918    0.5942   -0.2953 N   0  0  0  0  0  0  0  0  0  0  0  0
    5.0146    0.6968   -0.4162 C   0  0  0  0  0  0  0  0  0  0  0  0
    5.8385   -0.4116   -0.7141 N   0  0  0  0  0  0  0  0  0  0  0  0
    7.2363   -0.3747   -0.8479 C   0  0  0  0  0  0  0  0  0  0  0  0
    8.0795    0.6764   -0.7239 C   0  0  0  0  0  0  0  0  0  0  0  0
    9.3539    0.2793   -0.9311 N   0  0  0  0  0  0  0  0  0  0  0  0
   10.5108    1.1832   -0.8689 C   0  0  0  0  0  0  0  0  0  0  0  0
    9.3453   -1.0012   -1.1843 N   0  0  0  0  0  0  0  0  0  0  0  0
    8.0542   -1.5007   -1.1537 C   0  0  0  0  0  0  0  0  0  0  0  0
    7.6610   -2.7053   -1.3534 O   0  0  0  0  0  0  0  0  0  0  0  0
    7.3483   -3.9400   -1.5673 C   0  0  0  0  0  0  0  0  0  0  0  0
    5.5235    1.9327   -0.2361 N   0  0  0  0  0  0  0  0  0  0  0  0
    4.7575    2.9882    0.0447 C   0  0  0  0  0  0  0  0  0  0  0  0
    3.3642    2.8480    0.1653 C   0  0  0  0  0  0  0  0  0  0  0  0
    2.5505    4.0691    0.4548 C   0  0  0  0  0  0  0  0  0  0  0  0
    0.3525    2.0399    0.4382 C   0  0  0  0  0  0  0  0  0  0  0  0
   -0.8069    1.3463    0.4023 N   0  0  0  0  0  0  0  0  0  0  0  0
   -0.4769    0.1116   -0.0044 C   0  0  0  0  0  0  0  0  0  0  0  0
   -5.6119   -0.8154    0.4167 N   0  0  0  0  0  0  0  0  0  0  0  0
   -5.6777    0.5679    0.2716 C   0  0  0  0  0  0  0  0  0  0  0  0
   -6.5265    0.8417   -0.9857 C   0  0  0  0  0  0  0  0  0  0  0  0
   -7.7534    0.0688   -0.9347 N   0  0  0  0  0  0  0  0  0  0  0  0
   -8.6290    0.5143    0.1256 C   0  0  0  0  0  0  0  0  0  0  0  0
   -7.5346   -1.3501   -0.8723 C   0  0  0  0  0  0  0  0  0  0  0  0
   -6.0635   -1.6470   -0.6389 C   0  0  0  0  0  0  0  0  0  0  0  0
   -3.4170    0.8650    2.0441 H   0  0  0  0  0  0  0  0  0  0  0  0
   -4.0768    2.0223    3.2072 H   0  0  0  0  0  0  0  0  0  0  0  0
   -3.3016    0.5693    3.8584 H   0  0  0  0  0  0  0  0  0  0  0  0
   -6.2364   -1.4069    3.0402 H   0  0  0  0  0  0  0  0  0  0  0  0
   -4.5056   -1.4851    3.4920 H   0  0  0  0  0  0  0  0  0  0  0  0
   -5.1577   -2.5444    1.3601 H   0  0  0  0  0  0  0  0  0  0  0  0
   -3.2937   -0.6468   -0.7945 H   0  0  0  0  0  0  0  0  0  0  0  0
   -1.3229   -2.9972   -0.8115 H   0  0  0  0  0  0  0  0  0  0  0  0
    1.1549   -3.1464   -1.2127 H   0  0  0  0  0  0  0  0  0  0  0  0
    2.5231   -1.2161   -0.8361 H   0  0  0  0  0  0  0  0  0  0  0  0
    5.3543   -1.3463   -0.8465 H   0  0  0  0  0  0  0  0  0  0  0  0
    7.8224    1.7076   -0.4939 H   0  0  0  0  0  0  0  0  0  0  0  0
   10.2192    2.2016   -1.2123 H   0  0  0  0  0  0  0  0  0  0  0  0
   10.8904    1.1710    0.1738 H   0  0  0  0  0  0  0  0  0  0  0  0
   11.3033    0.8203   -1.5689 H   0  0  0  0  0  0  0  0  0  0  0  0
    6.8114   -4.0905   -2.5752 H   0  0  0  0  0  0  0  0  0  0  0  0
    6.6341   -4.4382   -0.8197 H   0  0  0  0  0  0  0  0  0  0  0  0
    8.2206   -4.6905   -1.6161 H   0  0  0  0  0  0  0  0  0  0  0  0
    5.1976    3.9768    0.1856 H   0  0  0  0  0  0  0  0  0  0  0  0
    3.2713    4.9651    0.3795 H   0  0  0  0  0  0  0  0  0  0  0  0
    2.1579    4.1011    1.4724 H   0  0  0  0  0  0  0  0  0  0  0  0
    1.8021    4.2946   -0.3177 H   0  0  0  0  0  0  0  0  0  0  0  0
    0.3490    3.0610    0.7497 H   0  0  0  0  0  0  0  0  0  0  0  0
   -1.7644    1.6837    0.6312 H   0  0  0  0  0  0  0  0  0  0  0  0
   -6.2031    1.0941    1.0935 H   0  0  0  0  0  0  0  0  0  0  0  0
   -4.7378    1.1194    0.0794 H   0  0  0  0  0  0  0  0  0  0  0  0
   -5.9598    0.4937   -1.8718 H   0  0  0  0  0  0  0  0  0  0  0  0
   -6.7773    1.8942   -1.0924 H   0  0  0  0  0  0  0  0  0  0  0  0
   -9.6404    0.6989   -0.3129 H   0  0  0  0  0  0  0  0  0  0  0  0
   -8.7619   -0.3300    0.8348 H   0  0  0  0  0  0  0  0  0  0  0  0
   -8.2124    1.4160    0.6136 H   0  0  0  0  0  0  0  0  0  0  0  0
   -7.8531   -1.8758   -1.8145 H   0  0  0  0  0  0  0  0  0  0  0  0
   -8.1090   -1.8378   -0.0555 H   0  0  0  0  0  0  0  0  0  0  0  0
   -5.5404   -1.4796   -1.5929 H   0  0  0  0  0  0  0  0  0  0  0  0
   -5.9473   -2.7147   -0.2875 H   0  0  0  0  0  0  0  0  0  0  0  0
  1  2  1  0
  2  3  1  0
  3  4  1  0
  4  5  1  0
  5  6  2  0
  5  7  1  0
  7  8  1  0
  8  9  2  0
  9 10  1  0
 10 11  2  0
 11 12  1  0
 12 13  1  0
 13 14  1  0
 14 15  2  0
 15 16  1  0
 16 17  1  0
 17 18  1  0
 18 19  2  0
 19 20  1  0
 20 21  1  0
 20 22  1  0
 22 23  2  0
 23 24  1  0
 24 25  1  0
 16 26  2  0
 26 27  1  0
 27 28  2  0
 28 29  1  0
 13 30  2  0
 30 31  1  0
 31 32  1  0
  4 33  1  0
 33 34  1  0
 34 35  1  0
 35 36  1  0
 36 37  1  0
 36 38  1  0
 38 39  1  0
 32  8  1  0
 39 33  1  0
 32 12  2  0
 28 14  1  0
 23 18  1  0
  1 40  1  0
  1 41  1  0
  1 42  1  0
  3 43  1  0
  3 44  1  0
  4 45  1  1
  7 46  1  0
  9 47  1  0
 10 48  1  0
 11 49  1  0
 17 50  1  0
 19 51  1  0
 21 52  1  0
 21 53  1  0
 21 54  1  0
 25 55  1  0
 25 56  1  0
 25 57  1  0
 27 58  1  0
 29 59  1  0
 29 60  1  0
 29 61  1  0
 30 62  1  0
 31 63  1  0
 34 64  1  0
 34 65  1  0
 35 66  1  0
 35 67  1  0
 37 68  1  0
 37 69  1  0
 37 70  1  0
 38 71  1  0
 38 72  1  0
 39 73  1  0
 39 74  1  0
M  END
$$$$
