@<TRIPOS>MOLECULE
*****
 74 78 0 0 0
SMALL
GASTEIGER

@<TRIPOS>ATOM
      1 C          -3.9390    0.9218    2.9956 C.3     1  UNL1        0.0365
      2 O          -5.1704    0.3412    3.0384 O.3     1  UNL1       -0.3809
      3 C          -5.2364   -1.0001    2.7662 C.3     1  UNL1        0.0714
      4 C          -4.8078   -1.4296    1.3905 C.3     1  UNL1        0.1112
      5 C          -3.3503   -1.4067    1.1744 C.2     1  UNL1        0.2367
      6 O          -2.6115   -1.8000    2.1137 O.2     1  UNL1       -0.2737
      7 N          -2.6934   -0.9811   -0.0131 N.am    1  UNL1       -0.2824
      8 C          -1.2917   -0.9778   -0.2116 C.ar    1  UNL1        0.0576
      9 C          -0.6802   -2.1547   -0.6520 C.ar    1  UNL1       -0.0384
     10 C           0.6581   -2.2374   -0.8698 C.ar    1  UNL1       -0.0593
     11 C           1.4655   -1.1319   -0.6559 C.ar    1  UNL1       -0.0518
     12 C           0.8959    0.0369   -0.2246 C.ar    1  UNL1        0.0107
     13 C           1.4253    1.3008    0.0681 C.ar    1  UNL1        0.0258
     14 C           2.8409    1.5967   -0.0151 C.ar    1  UNL1        0.0809
     15 N           3.6918    0.5942   -0.2953 N.ar    1  UNL1       -0.2139
     16 C           5.0146    0.6968   -0.4162 C.ar    1  UNL1        0.2202
     17 N           5.8385   -0.4116   -0.7141 N.pl3   1  UNL1       -0.2782
     18 C           7.2363   -0.3747   -0.8479 C.ar    1  UNL1        0.1152
     19 C           8.0795    0.6764   -0.7239 C.ar    1  UNL1        0.0503
     20 N           9.3539    0.2793   -0.9311 N.ar    1  UNL1       -0.2692
     21 C          10.5108    1.1832   -0.8689 C.3     1  UNL1        0.0304
     22 N           9.3453   -1.0012   -1.1843 N.ar    1  UNL1       -0.1317
     23 C           8.0542   -1.5007   -1.1537 C.ar    1  UNL1        0.2552
     24 O           7.6610   -2.7053   -1.3534 O.3     1  UNL1       -0.4774
     25 C           7.3483   -3.9400   -1.5673 C.3     1  UNL1        0.0805
     26 N           5.5235    1.9327   -0.2361 N.ar    1  UNL1       -0.2224
     27 C           4.7575    2.9882    0.0447 C.ar    1  UNL1        0.0361
     28 C           3.3642    2.8480    0.1653 C.ar    1  UNL1       -0.0062
     29 C           2.5505    4.0691    0.4548 C.3     1  UNL1       -0.0362
     30 C           0.3525    2.0399    0.4382 C.ar    1  UNL1        0.0120
     31 N          -0.8069    1.3463    0.4023 N.ar    1  UNL1       -0.3586
     32 C          -0.4769    0.1116   -0.0044 C.ar    1  UNL1        0.0686
     33 N          -5.6119   -0.8154    0.4167 N.3     1  UNL1       -0.2873
     34 C          -5.6777    0.5679    0.2716 C.3     1  UNL1        0.0125
     35 C          -6.5265    0.8417   -0.9857 C.3     1  UNL1        0.0114
     36 N          -7.7534    0.0688   -0.9347 N.3     1  UNL1       -0.3029
     37 C          -8.6290    0.5143    0.1256 C.3     1  UNL1       -0.0127
     38 C          -7.5346   -1.3501   -0.8723 C.3     1  UNL1        0.0114
     39 C          -6.0635   -1.6470   -0.6389 C.3     1  UNL1        0.0125
     40 H          -3.4170    0.8650    2.0441 H       1  UNL1        0.0523
     41 H          -4.0768    2.0223    3.2072 H       1  UNL1        0.0523
     42 H          -3.3016    0.5693    3.8584 H       1  UNL1        0.0523
     43 H          -6.2364   -1.4069    3.0402 H       1  UNL1        0.0580
     44 H          -4.5056   -1.4851    3.4920 H       1  UNL1        0.0580
     45 H          -5.1577   -2.5444    1.3601 H       1  UNL1        0.0582
     46 H          -3.2937   -0.6468   -0.7945 H       1  UNL1        0.1549
     47 H          -1.3229   -2.9972   -0.8115 H       1  UNL1        0.0637
     48 H           1.1549   -3.1464   -1.2127 H       1  UNL1        0.0618
     49 H           2.5231   -1.2161   -0.8361 H       1  UNL1        0.0624
     50 H           5.3543   -1.3463   -0.8465 H       1  UNL1        0.1552
     51 H           7.8224    1.7076   -0.4939 H       1  UNL1        0.0846
     52 H          10.2192    2.2016   -1.2123 H       1  UNL1        0.0473
     53 H          10.8904    1.1710    0.1738 H       1  UNL1        0.0473
     54 H          11.3033    0.8203   -1.5689 H       1  UNL1        0.0473
     55 H           6.8114   -4.0905   -2.5752 H       1  UNL1        0.0660
     56 H           6.6341   -4.4382   -0.8197 H       1  UNL1        0.0660
     57 H           8.2206   -4.6905   -1.6161 H       1  UNL1        0.0660
     58 H           5.1976    3.9768    0.1856 H       1  UNL1        0.0834
     59 H           3.2713    4.9651    0.3795 H       1  UNL1        0.0279
     60 H           2.1579    4.1011    1.4724 H       1  UNL1        0.0279
     61 H           1.8021    4.2946   -0.3177 H       1  UNL1        0.0279
     62 H           0.3490    3.0610    0.7497 H       1  UNL1        0.0814
     63 H          -1.7644    1.6837    0.6312 H       1  UNL1        0.1654
     64 H          -6.2031    1.0941    1.0935 H       1  UNL1        0.0439
     65 H          -4.7378    1.1194    0.0794 H       1  UNL1        0.0439
     66 H          -5.9598    0.4937   -1.8718 H       1  UNL1        0.0439
     67 H          -6.7773    1.8942   -1.0924 H       1  UNL1        0.0439
     68 H          -9.6404    0.6989   -0.3129 H       1  UNL1        0.0391
     69 H          -8.7619   -0.3300    0.8348 H       1  UNL1        0.0391
     70 H          -8.2124    1.4160    0.6136 H       1  UNL1        0.0391
     71 H          -7.8531   -1.8758   -1.8145 H       1  UNL1        0.0439
     72 H          -8.1090   -1.8378   -0.0555 H       1  UNL1        0.0439
     73 H          -5.5404   -1.4796   -1.5929 H       1  UNL1        0.0439
     74 H          -5.9473   -2.7147   -0.2875 H       1  UNL1        0.0439
@<TRIPOS>BOND
     1     1     2    1
     2     2     3    1
     3     3     4    1
     4     4     5    1
     5     5     6    2
     6     5     7   am
     7     7     8    1
     8     8     9   ar
     9     9    10   ar
    10    10    11   ar
    11    11    12   ar
    12    12    13   ar
    13    13    14    1
    14    14    15   ar
    15    15    16   ar
    16    16    17    1
    17    17    18    1
    18    18    19   ar
    19    19    20   ar
    20    20    21    1
    21    20    22   ar
    22    22    23   ar
    23    23    24    1
    24    24    25    1
    25    16    26   ar
    26    26    27   ar
    27    27    28   ar
    28    28    29    1
    29    13    30   ar
    30    30    31   ar
    31    31    32   ar
    32     4    33    1
    33    33    34    1
    34    34    35    1
    35    35    36    1
    36    36    37    1
    37    36    38    1
    38    38    39    1
    39    32     8   ar
    40    39    33    1
    41    32    12   ar
    42    28    14   ar
    43    23    18   ar
    44     1    40    1
    45     1    41    1
    46     1    42    1
    47     3    43    1
    48     3    44    1
    49     4    45    1
    50     7    46    1
    51     9    47    1
    52    10    48    1
    53    11    49    1
    54    17    50    1
    55    19    51    1
    56    21    52    1
    57    21    53    1
    58    21    54    1
    59    25    55    1
    60    25    56    1
    61    25    57    1
    62    27    58    1
    63    29    59    1
    64    29    60    1
    65    29    61    1
    66    30    62    1
    67    31    63    1
    68    34    64    1
    69    34    65    1
    70    35    66    1
    71    35    67    1
    72    37    68    1
    73    37    69    1
    74    37    70    1
    75    38    71    1
    76    38    72    1
    77    39    73    1
    78    39    74    1
