
     RDKit          3D

 42 45  0  0  0  0  0  0  0  0999 V2000
   -5.8831    0.4728   -1.8355 O   0  0  0  0  0  0  0  0  0  0  0  0
   -4.8770    1.1754   -2.0602 C   0  0  0  0  0  0  0  0  0  0  0  0
   -5.0065    2.2975   -2.8549 O   0  0  0  0  0  0  0  0  0  0  0  0
   -3.5907    0.8129   -1.4908 C   0  0  0  0  0  0  0  0  0  0  0  0
   -3.4429   -0.3081   -0.6922 C   0  0  0  0  0  0  0  0  0  0  0  0
   -2.2568   -0.6599   -0.1553 N   0  0  0  0  0  0  0  0  0  0  0  0
   -2.1340   -1.8413    0.6781 C   0  0  0  0  0  0  0  0  0  0  0  0
   -3.3508   -2.2929    1.4495 C   0  0  0  0  0  0  0  0  0  0  0  0
   -2.2457   -1.5985    2.1618 C   0  0  0  0  0  0  0  0  0  0  0  0
   -1.1309    0.0758   -0.3723 C   0  0  0  0  0  0  0  0  0  0  0  0
    0.0702   -0.3049    0.1880 C   0  0  0  0  0  0  0  0  0  0  0  0
    1.2290    0.4406   -0.0275 C   0  0  0  0  0  0  0  0  0  0  0  0
    2.4622    0.0764    0.5296 N   0  0  0  0  0  0  0  0  0  0  0  0
    3.2528    0.8628    1.4267 C   0  0  0  0  0  0  0  0  0  0  0  0
    4.6524    1.0403    0.8844 C   0  0  0  0  0  0  0  0  0  0  0  0
    5.1156   -0.0674    0.1185 N   0  0  0  0  0  0  0  0  0  0  0  0
    4.4737   -1.3216    0.4443 C   0  0  0  0  0  0  0  0  0  0  0  0
    3.0109   -1.2393    0.1668 C   0  0  0  0  0  0  0  0  0  0  0  0
    1.1309    1.5684   -0.8182 C   0  0  0  0  0  0  0  0  0  0  0  0
    2.2553    2.2987   -1.0320 F   0  0  0  0  0  0  0  0  0  0  0  0
   -0.0838    1.9608   -1.3899 C   0  0  0  0  0  0  0  0  0  0  0  0
   -1.2233    1.2043   -1.1621 C   0  0  0  0  0  0  0  0  0  0  0  0
   -2.4444    1.5564   -1.7080 C   0  0  0  0  0  0  0  0  0  0  0  0
   -2.5310    2.5787   -2.4242 O   0  0  0  0  0  0  0  0  0  0  0  0
   -5.8825    2.7469   -3.0764 H   0  0  0  0  0  0  0  0  0  0  0  0
   -4.3407   -0.9085   -0.5098 H   0  0  0  0  0  0  0  0  0  0  0  0
   -1.5034   -2.6660    0.3037 H   0  0  0  0  0  0  0  0  0  0  0  0
   -3.4535   -3.3903    1.6759 H   0  0  0  0  0  0  0  0  0  0  0  0
   -4.3124   -1.7929    1.3283 H   0  0  0  0  0  0  0  0  0  0  0  0
   -1.5948   -2.1414    2.8651 H   0  0  0  0  0  0  0  0  0  0  0  0
   -2.4588   -0.5565    2.4932 H   0  0  0  0  0  0  0  0  0  0  0  0
    0.1209   -1.1798    0.7950 H   0  0  0  0  0  0  0  0  0  0  0  0
    3.3529    0.2624    2.3773 H   0  0  0  0  0  0  0  0  0  0  0  0
    2.8354    1.8460    1.6581 H   0  0  0  0  0  0  0  0  0  0  0  0
    5.3775    1.2399    1.6990 H   0  0  0  0  0  0  0  0  0  0  0  0
    4.6337    1.9643    0.2616 H   0  0  0  0  0  0  0  0  0  0  0  0
    5.0969    0.0719   -0.9112 H   0  0  0  0  0  0  0  0  0  0  0  0
    4.6892   -1.6730    1.4573 H   0  0  0  0  0  0  0  0  0  0  0  0
    4.9045   -2.0826   -0.2546 H   0  0  0  0  0  0  0  0  0  0  0  0
    2.7817   -1.3690   -0.9150 H   0  0  0  0  0  0  0  0  0  0  0  0
    2.4418   -1.9997    0.7296 H   0  0  0  0  0  0  0  0  0  0  0  0
   -0.1407    2.8406   -2.0018 H   0  0  0  0  0  0  0  0  0  0  0  0
  1  2  2  0
  2  3  1  0
  2  4  1  0
  4  5  2  0
  5  6  1  0
  6  7  1  0
  7  8  1  0
  8  9  1  0
  6 10  1  0
 10 11  2  0
 11 12  1  0
 12 13  1  0
 13 14  1  0
 14 15  1  0
 15 16  1  0
 16 17  1  0
 17 18  1  0
 12 19  2  0
 19 20  1  0
 19 21  1  0
 21 22  2  0
 22 23  1  0
 23 24  2  0
 23  4  1  0
  9  7  1  0
 22 10  1  0
 18 13  1  0
  3 25  1  0
  5 26  1  0
  7 27  1  0
  8 28  1  0
  8 29  1  0
  9 30  1  0
  9 31  1  0
 11 32  1  0
 14 33  1  0
 14 34  1  0
 15 35  1  0
 15 36  1  0
 16 37  1  0
 17 38  1  0
 17 39  1  0
 18 40  1  0
 18 41  1  0
 21 42  1  0
M  END
$$$$
