@<TRIPOS>MOLECULE
*****
 42 45 0 0 0
SMALL
GASTEIGER

@<TRIPOS>ATOM
      1 O          -5.8831    0.4728   -1.8355 O.2     1  UNL1       -0.2449
      2 C          -4.8770    1.1754   -2.0602 C.2     1  UNL1        0.3420
      3 O          -5.0065    2.2975   -2.8549 O.3     1  UNL1       -0.4770
      4 C          -3.5907    0.8129   -1.4908 C.ar    1  UNL1        0.1220
      5 C          -3.4429   -0.3081   -0.6922 C.ar    1  UNL1        0.0231
      6 N          -2.2568   -0.6599   -0.1553 N.ar    1  UNL1       -0.3425
      7 C          -2.1340   -1.8413    0.6781 C.3     1  UNL1        0.0347
      8 C          -3.3508   -2.2929    1.4495 C.3     1  UNL1       -0.0302
      9 C          -2.2457   -1.5985    2.1618 C.3     1  UNL1       -0.0302
     10 C          -1.1309    0.0758   -0.3723 C.ar    1  UNL1        0.0549
     11 C           0.0702   -0.3049    0.1880 C.ar    1  UNL1       -0.0136
     12 C           1.2290    0.4406   -0.0275 C.ar    1  UNL1        0.0674
     13 N           2.4622    0.0764    0.5296 N.pl3   1  UNL1       -0.3252
     14 C           3.2528    0.8628    1.4267 C.3     1  UNL1        0.0248
     15 C           4.6524    1.0403    0.8844 C.3     1  UNL1        0.0117
     16 N           5.1156   -0.0674    0.1185 N.3     1  UNL1       -0.3130
     17 C           4.4737   -1.3216    0.4443 C.3     1  UNL1        0.0117
     18 C           3.0109   -1.2393    0.1668 C.3     1  UNL1        0.0248
     19 C           1.1309    1.5684   -0.8182 C.ar    1  UNL1        0.1451
     20 F           2.2553    2.2987   -1.0320 F       1  UNL1       -0.2035
     21 C          -0.0838    1.9608   -1.3899 C.ar    1  UNL1       -0.0118
     22 C          -1.2233    1.2043   -1.1621 C.ar    1  UNL1        0.0488
     23 C          -2.4444    1.5564   -1.7080 C.ar    1  UNL1        0.2034
     24 O          -2.5310    2.5787   -2.4242 O.2     1  UNL1       -0.2863
     25 H          -5.8825    2.7469   -3.0764 H       1  UNL1        0.2954
     26 H          -4.3407   -0.9085   -0.5098 H       1  UNL1        0.0819
     27 H          -1.5034   -2.6660    0.3037 H       1  UNL1        0.0528
     28 H          -3.4535   -3.3903    1.6759 H       1  UNL1        0.0286
     29 H          -4.3124   -1.7929    1.3283 H       1  UNL1        0.0286
     30 H          -1.5948   -2.1414    2.8651 H       1  UNL1        0.0286
     31 H          -2.4588   -0.5565    2.4932 H       1  UNL1        0.0286
     32 H           0.1209   -1.1798    0.7950 H       1  UNL1        0.0658
     33 H           3.3529    0.2624    2.3773 H       1  UNL1        0.0476
     34 H           2.8354    1.8460    1.6581 H       1  UNL1        0.0476
     35 H           5.3775    1.2399    1.6990 H       1  UNL1        0.0439
     36 H           4.6337    1.9643    0.2616 H       1  UNL1        0.0439
     37 H           5.0969    0.0719   -0.9112 H       1  UNL1        0.1220
     38 H           4.6892   -1.6730    1.4573 H       1  UNL1        0.0439
     39 H           4.9045   -2.0826   -0.2546 H       1  UNL1        0.0439
     40 H           2.7817   -1.3690   -0.9150 H       1  UNL1        0.0476
     41 H           2.4418   -1.9997    0.7296 H       1  UNL1        0.0476
     42 H          -0.1407    2.8406   -2.0018 H       1  UNL1        0.0654
@<TRIPOS>BOND
     1     1     2    2
     2     2     3    1
     3     2     4    1
     4     4     5   ar
     5     5     6   ar
     6     6     7    1
     7     7     8    1
     8     8     9    1
     9     6    10   ar
    10    10    11   ar
    11    11    12   ar
    12    12    13    1
    13    13    14    1
    14    14    15    1
    15    15    16    1
    16    16    17    1
    17    17    18    1
    18    12    19   ar
    19    19    20    1
    20    19    21   ar
    21    21    22   ar
    22    22    23   ar
    23    23    24    2
    24    23     4   ar
    25     9     7    1
    26    22    10   ar
    27    18    13    1
    28     3    25    1
    29     5    26    1
    30     7    27    1
    31     8    28    1
    32     8    29    1
    33     9    30    1
    34     9    31    1
    35    11    32    1
    36    14    33    1
    37    14    34    1
    38    15    35    1
    39    15    36    1
    40    16    37    1
    41    17    38    1
    42    17    39    1
    43    18    40    1
    44    18    41    1
    45    21    42    1
