@<TRIPOS>MOLECULE
*****
 50 53 0 0 0
SMALL
GASTEIGER

@<TRIPOS>ATOM
      1 O          -3.5099   -1.2712   -1.9751 O.2     1  UNL1       -0.2739
      2 C          -3.3034   -0.8522   -0.8074 C.2     1  UNL1        0.2328
      3 C          -2.1838   -1.3784    0.0149 C.3     1  UNL1        0.0865
      4 C          -1.1765   -0.2895    0.3515 C.3     1  UNL1       -0.0122
      5 C           0.0424   -0.6664   -0.4594 C.3     1  UNL1        0.0249
      6 N           0.7039    0.5009   -1.0093 N.3     1  UNL1       -0.2952
      7 C           1.1006    1.3267    0.1169 C.3     1  UNL1        0.0151
      8 C           2.2784    0.7176    0.8710 C.3     1  UNL1        0.0277
      9 N           3.3857    0.6861   -0.0609 N.pl3   1  UNL1       -0.2972
     10 C           4.6817    0.4302    0.4386 C.ar    1  UNL1        0.2178
     11 N           4.9028    0.2196    1.7368 N.ar    1  UNL1       -0.2228
     12 C           6.1578   -0.0229    2.1816 C.ar    1  UNL1        0.0326
     13 C           7.2181   -0.0548    1.2999 C.ar    1  UNL1       -0.0253
     14 C           6.9627    0.1660   -0.0365 C.ar    1  UNL1        0.0326
     15 N           5.7131    0.4001   -0.4265 N.ar    1  UNL1       -0.2228
     16 C           3.0889    0.9212   -1.4578 C.3     1  UNL1        0.0277
     17 C           1.8441    0.1142   -1.7944 C.3     1  UNL1        0.0151
     18 C          -0.5568   -1.5450   -1.5337 C.3     1  UNL1        0.0123
     19 N          -1.4554   -2.3751   -0.7384 N.3     1  UNL1       -0.3041
     20 N          -4.1717    0.1501   -0.2754 N.am    1  UNL1       -0.2943
     21 C          -4.0853    0.7481    1.0453 C.3     1  UNL1        0.0204
     22 C          -5.5330    0.7487    1.4877 C.3     1  UNL1        0.0281
     23 C          -6.2534    1.1430    0.2247 C.3     1  UNL1        0.2657
     24 F          -7.4535    0.4327    0.0879 F       1  UNL1       -0.2039
     25 F          -6.4854    2.4985    0.1392 F       1  UNL1       -0.2039
     26 C          -5.3032    0.7805   -0.9127 C.3     1  UNL1        0.0781
     27 H          -2.5720   -1.8125    0.9743 H       1  UNL1        0.0557
     28 H          -1.5719    0.6975    0.0781 H       1  UNL1        0.0300
     29 H          -0.9171   -0.2931    1.4277 H       1  UNL1        0.0300
     30 H           0.7245   -1.2876    0.1292 H       1  UNL1        0.0476
     31 H           1.4147    2.3470   -0.1927 H       1  UNL1        0.0442
     32 H           0.2808    1.4115    0.8573 H       1  UNL1        0.0442
     33 H           2.0498   -0.2636    1.2940 H       1  UNL1        0.0477
     34 H           2.5144    1.4304    1.6866 H       1  UNL1        0.0477
     35 H           6.3429   -0.1926    3.2211 H       1  UNL1        0.0831
     36 H           8.2051   -0.2497    1.6801 H       1  UNL1        0.0648
     37 H           7.7911    0.1436   -0.7441 H       1  UNL1        0.0831
     38 H           3.9109    0.5446   -2.0707 H       1  UNL1        0.0477
     39 H           2.9159    1.9966   -1.6736 H       1  UNL1        0.0477
     40 H           1.6153    0.2347   -2.8919 H       1  UNL1        0.0442
     41 H           2.0718   -0.9522   -1.5639 H       1  UNL1        0.0442
     42 H          -1.1976   -0.9643   -2.2337 H       1  UNL1        0.0440
     43 H           0.2045   -2.1490   -2.0620 H       1  UNL1        0.0440
     44 H          -0.8506   -2.8953   -0.0494 H       1  UNL1        0.1227
     45 H          -3.4285    0.1828    1.7290 H       1  UNL1        0.0466
     46 H          -3.7563    1.8092    0.9145 H       1  UNL1        0.0466
     47 H          -5.8116   -0.3034    1.7106 H       1  UNL1        0.0338
     48 H          -5.7299    1.4363    2.3184 H       1  UNL1        0.0338
     49 H          -5.0204    1.6651   -1.5120 H       1  UNL1        0.0523
     50 H          -5.7947    0.0037   -1.5355 H       1  UNL1        0.0523
@<TRIPOS>BOND
     1     1     2    2
     2     2     3    1
     3     3     4    1
     4     4     5    1
     5     5     6    1
     6     6     7    1
     7     7     8    1
     8     8     9    1
     9     9    10    1
    10    10    11   ar
    11    11    12   ar
    12    12    13   ar
    13    13    14   ar
    14    14    15   ar
    15     9    16    1
    16    16    17    1
    17     5    18    1
    18    18    19    1
    19     2    20   am
    20    20    21    1
    21    21    22    1
    22    22    23    1
    23    23    24    1
    24    23    25    1
    25    23    26    1
    26    19     3    1
    27    26    20    1
    28    17     6    1
    29    15    10   ar
    30     3    27    1
    31     4    28    1
    32     4    29    1
    33     5    30    1
    34     7    31    1
    35     7    32    1
    36     8    33    1
    37     8    34    1
    38    12    35    1
    39    13    36    1
    40    14    37    1
    41    16    38    1
    42    16    39    1
    43    17    40    1
    44    17    41    1
    45    18    42    1
    46    18    43    1
    47    19    44    1
    48    21    45    1
    49    21    46    1
    50    22    47    1
    51    22    48    1
    52    26    49    1
    53    26    50    1
