@<TRIPOS>MOLECULE
*****
 55 59 0 0 0
SMALL
GASTEIGER

@<TRIPOS>ATOM
      1 N          -3.4903    2.9811    3.2610 N.am    1  UNL1       -0.3241
      2 C          -2.7530    2.1573    2.3603 C.2     1  UNL1        0.2599
      3 O          -1.6945    1.5950    2.7112 O.2     1  UNL1       -0.2687
      4 C          -3.2292    1.9545    0.9947 C.ar    1  UNL1        0.1280
      5 C          -4.3987    2.5177    0.4881 C.ar    1  UNL1        0.0588
      6 N          -4.4716    2.0948   -0.7760 N.ar    1  UNL1       -0.2353
      7 C          -3.4100    1.3037   -1.0698 C.ar    1  UNL1        0.1381
      8 C          -3.1095    0.6698   -2.2539 C.ar    1  UNL1       -0.0182
      9 C          -1.9361   -0.0953   -2.2834 C.ar    1  UNL1       -0.0477
     10 C          -1.1425   -0.1919   -1.1706 C.ar    1  UNL1        0.0173
     11 C           0.0626   -0.9913   -1.1951 C.ar    1  UNL1        0.0779
     12 C           0.1084   -2.3912   -1.0885 C.ar    1  UNL1        0.0968
     13 C          -1.0286   -3.2838   -0.9083 C.ar    1  UNL1        0.0040
     14 C          -1.4203   -4.1721   -1.8834 C.ar    1  UNL1       -0.0497
     15 C          -2.5136   -5.0253   -1.6928 C.ar    1  UNL1       -0.0244
     16 C          -3.2196   -4.9904   -0.5190 C.ar    1  UNL1        0.1417
     17 F          -4.2895   -5.8140   -0.3131 F       1  UNL1       -0.2040
     18 C          -2.8318   -4.1092    0.4498 C.ar    1  UNL1        0.0767
     19 CL         -3.7143   -4.0578    1.9375 Cl      1  UNL1       -0.0806
     20 C          -1.7461   -3.2599    0.2633 C.ar    1  UNL1       -0.0313
     21 N           1.4101   -2.6996   -1.1782 N.ar    1  UNL1       -0.2351
     22 C           2.1734   -1.6025   -1.3314 C.ar    1  UNL1        0.0971
     23 N           1.3441   -0.5538   -1.3413 N.ar    1  UNL1       -0.3283
     24 C           1.8041    0.8279   -1.4924 C.3     1  UNL1        0.0375
     25 C           2.0873    1.4199   -0.1540 C.3     1  UNL1        0.0171
     26 N           3.1023    0.7459    0.6173 N.3     1  UNL1       -0.2963
     27 C           3.2266    1.2892    1.9421 C.3     1  UNL1        0.0225
     28 C           4.3564    2.2134    2.1840 C.3     1  UNL1        0.0604
     29 O           5.4935    2.0108    1.4430 O.3     1  UNL1       -0.3772
     30 C           5.1114    1.9684    0.1084 C.3     1  UNL1        0.0604
     31 C           4.3728    0.6337   -0.0544 C.3     1  UNL1        0.0225
     32 C          -1.5125    0.4696   -0.0323 C.ar    1  UNL1        0.0211
     33 N          -2.6396    1.2201    0.0374 N.ar    1  UNL1       -0.2949
     34 H          -3.3576    4.0089    3.2151 H       1  UNL1        0.1453
     35 H          -4.1411    2.5779    3.9424 H       1  UNL1        0.1453
     36 H          -5.0814    3.1515    1.0156 H       1  UNL1        0.0853
     37 H          -3.7745    0.7880   -3.0852 H       1  UNL1        0.0654
     38 H          -1.7220   -0.5825   -3.2246 H       1  UNL1        0.0626
     39 H          -0.8706   -4.2086   -2.8145 H       1  UNL1        0.0625
     40 H          -2.8220   -5.7213   -2.4550 H       1  UNL1        0.0647
     41 H          -1.4554   -2.5766    1.0323 H       1  UNL1        0.0640
     42 H           3.2477   -1.6863   -1.4202 H       1  UNL1        0.1029
     43 H           2.6330    0.8800   -2.2194 H       1  UNL1        0.0505
     44 H           0.9573    1.3922   -1.9968 H       1  UNL1        0.0505
     45 H           1.1716    1.4317    0.4646 H       1  UNL1        0.0444
     46 H           2.3492    2.5036   -0.2982 H       1  UNL1        0.0444
     47 H           2.2735    1.8745    2.1135 H       1  UNL1        0.0449
     48 H           3.1893    0.4819    2.7276 H       1  UNL1        0.0449
     49 H           4.0232    3.2725    2.1188 H       1  UNL1        0.0572
     50 H           4.6641    2.0969    3.2610 H       1  UNL1        0.0572
     51 H           4.3726    2.7576   -0.1212 H       1  UNL1        0.0572
     52 H           5.9966    2.0297   -0.5201 H       1  UNL1        0.0572
     53 H           4.2337    0.4480   -1.1153 H       1  UNL1        0.0449
     54 H           4.9416   -0.1723    0.4668 H       1  UNL1        0.0449
     55 H          -0.9305    0.4180    0.8533 H       1  UNL1        0.0820
@<TRIPOS>BOND
     1     1     2   am
     2     2     3    2
     3     2     4    1
     4     4     5   ar
     5     5     6   ar
     6     6     7   ar
     7     7     8   ar
     8     8     9   ar
     9     9    10   ar
    10    10    11    1
    11    11    12   ar
    12    12    13    1
    13    13    14   ar
    14    14    15   ar
    15    15    16   ar
    16    16    17    1
    17    16    18   ar
    18    18    19    1
    19    18    20   ar
    20    12    21   ar
    21    21    22   ar
    22    22    23   ar
    23    23    24    1
    24    24    25    1
    25    25    26    1
    26    26    27    1
    27    27    28    1
    28    28    29    1
    29    29    30    1
    30    30    31    1
    31    10    32   ar
    32    32    33   ar
    33    33     4   ar
    34    33     7   ar
    35    23    11   ar
    36    31    26    1
    37    20    13   ar
    38     1    34    1
    39     1    35    1
    40     5    36    1
    41     8    37    1
    42     9    38    1
    43    14    39    1
    44    15    40    1
    45    20    41    1
    46    22    42    1
    47    24    43    1
    48    24    44    1
    49    25    45    1
    50    25    46    1
    51    27    47    1
    52    27    48    1
    53    28    49    1
    54    28    50    1
    55    30    51    1
    56    30    52    1
    57    31    53    1
    58    31    54    1
    59    32    55    1
