
     RDKit          3D

 55 59  0  0  0  0  0  0  0  0999 V2000
   -3.4903    2.9811    3.2610 N   0  0  0  0  0  0  0  0  0  0  0  0
   -2.7530    2.1573    2.3603 C   0  0  0  0  0  0  0  0  0  0  0  0
   -1.6945    1.5950    2.7112 O   0  0  0  0  0  0  0  0  0  0  0  0
   -3.2292    1.9545    0.9947 C   0  0  0  0  0  0  0  0  0  0  0  0
   -4.3987    2.5177    0.4881 C   0  0  0  0  0  0  0  0  0  0  0  0
   -4.4716    2.0948   -0.7760 N   0  0  0  0  0  0  0  0  0  0  0  0
   -3.4100    1.3037   -1.0698 C   0  0  0  0  0  0  0  0  0  0  0  0
   -3.1095    0.6698   -2.2539 C   0  0  0  0  0  0  0  0  0  0  0  0
   -1.9361   -0.0953   -2.2834 C   0  0  0  0  0  0  0  0  0  0  0  0
   -1.1425   -0.1919   -1.1706 C   0  0  0  0  0  0  0  0  0  0  0  0
    0.0626   -0.9913   -1.1951 C   0  0  0  0  0  0  0  0  0  0  0  0
    0.1084   -2.3912   -1.0885 C   0  0  0  0  0  0  0  0  0  0  0  0
   -1.0286   -3.2838   -0.9083 C   0  0  0  0  0  0  0  0  0  0  0  0
   -1.4203   -4.1721   -1.8834 C   0  0  0  0  0  0  0  0  0  0  0  0
   -2.5136   -5.0253   -1.6928 C   0  0  0  0  0  0  0  0  0  0  0  0
   -3.2196   -4.9904   -0.5190 C   0  0  0  0  0  0  0  0  0  0  0  0
   -4.2895   -5.8140   -0.3131 F   0  0  0  0  0  0  0  0  0  0  0  0
   -2.8318   -4.1092    0.4498 C   0  0  0  0  0  0  0  0  0  0  0  0
   -3.7143   -4.0578    1.9375 Cl  0  0  0  0  0  0  0  0  0  0  0  0
   -1.7461   -3.2599    0.2633 C   0  0  0  0  0  0  0  0  0  0  0  0
    1.4101   -2.6996   -1.1782 N   0  0  0  0  0  0  0  0  0  0  0  0
    2.1734   -1.6025   -1.3314 C   0  0  0  0  0  0  0  0  0  0  0  0
    1.3441   -0.5538   -1.3413 N   0  0  0  0  0  0  0  0  0  0  0  0
    1.8041    0.8279   -1.4924 C   0  0  0  0  0  0  0  0  0  0  0  0
    2.0873    1.4199   -0.1540 C   0  0  0  0  0  0  0  0  0  0  0  0
    3.1023    0.7459    0.6173 N   0  0  0  0  0  0  0  0  0  0  0  0
    3.2266    1.2892    1.9421 C   0  0  0  0  0  0  0  0  0  0  0  0
    4.3564    2.2134    2.1840 C   0  0  0  0  0  0  0  0  0  0  0  0
    5.4935    2.0108    1.4430 O   0  0  0  0  0  0  0  0  0  0  0  0
    5.1114    1.9684    0.1084 C   0  0  0  0  0  0  0  0  0  0  0  0
    4.3728    0.6337   -0.0544 C   0  0  0  0  0  0  0  0  0  0  0  0
   -1.5125    0.4696   -0.0323 C   0  0  0  0  0  0  0  0  0  0  0  0
   -2.6396    1.2201    0.0374 N   0  0  0  0  0  0  0  0  0  0  0  0
   -3.3576    4.0089    3.2151 H   0  0  0  0  0  0  0  0  0  0  0  0
   -4.1411    2.5779    3.9424 H   0  0  0  0  0  0  0  0  0  0  0  0
   -5.0814    3.1515    1.0156 H   0  0  0  0  0  0  0  0  0  0  0  0
   -3.7745    0.7880   -3.0852 H   0  0  0  0  0  0  0  0  0  0  0  0
   -1.7220   -0.5825   -3.2246 H   0  0  0  0  0  0  0  0  0  0  0  0
   -0.8706   -4.2086   -2.8145 H   0  0  0  0  0  0  0  0  0  0  0  0
   -2.8220   -5.7213   -2.4550 H   0  0  0  0  0  0  0  0  0  0  0  0
   -1.4554   -2.5766    1.0323 H   0  0  0  0  0  0  0  0  0  0  0  0
    3.2477   -1.6863   -1.4202 H   0  0  0  0  0  0  0  0  0  0  0  0
    2.6330    0.8800   -2.2194 H   0  0  0  0  0  0  0  0  0  0  0  0
    0.9573    1.3922   -1.9968 H   0  0  0  0  0  0  0  0  0  0  0  0
    1.1716    1.4317    0.4646 H   0  0  0  0  0  0  0  0  0  0  0  0
    2.3492    2.5036   -0.2982 H   0  0  0  0  0  0  0  0  0  0  0  0
    2.2735    1.8745    2.1135 H   0  0  0  0  0  0  0  0  0  0  0  0
    3.1893    0.4819    2.7276 H   0  0  0  0  0  0  0  0  0  0  0  0
    4.0232    3.2725    2.1188 H   0  0  0  0  0  0  0  0  0  0  0  0
    4.6641    2.0969    3.2610 H   0  0  0  0  0  0  0  0  0  0  0  0
    4.3726    2.7576   -0.1212 H   0  0  0  0  0  0  0  0  0  0  0  0
    5.9966    2.0297   -0.5201 H   0  0  0  0  0  0  0  0  0  0  0  0
    4.2337    0.4480   -1.1153 H   0  0  0  0  0  0  0  0  0  0  0  0
    4.9416   -0.1723    0.4668 H   0  0  0  0  0  0  0  0  0  0  0  0
   -0.9305    0.4180    0.8533 H   0  0  0  0  0  0  0  0  0  0  0  0
  1  2  1  0
  2  3  2  0
  2  4  1  0
  4  5  2  0
  5  6  1  0
  6  7  2  0
  7  8  1  0
  8  9  2  0
  9 10  1  0
 10 11  1  0
 11 12  2  0
 12 13  1  0
 13 14  2  0
 14 15  1  0
 15 16  2  0
 16 17  1  0
 16 18  1  0
 18 19  1  0
 18 20  2  0
 12 21  1  0
 21 22  2  0
 22 23  1  0
 23 24  1  0
 24 25  1  0
 25 26  1  0
 26 27  1  0
 27 28  1  0
 28 29  1  0
 29 30  1  0
 30 31  1  0
 10 32  2  0
 32 33  1  0
 33  4  1  0
 33  7  1  0
 23 11  1  0
 31 26  1  0
 20 13  1  0
  1 34  1  0
  1 35  1  0
  5 36  1  0
  8 37  1  0
  9 38  1  0
 14 39  1  0
 15 40  1  0
 20 41  1  0
 22 42  1  0
 24 43  1  0
 24 44  1  0
 25 45  1  0
 25 46  1  0
 27 47  1  0
 27 48  1  0
 28 49  1  0
 28 50  1  0
 30 51  1  0
 30 52  1  0
 31 53  1  0
 31 54  1  0
 32 55  1  0
M  END
$$$$
