
     RDKit          3D

 51 54  0  0  0  0  0  0  0  0999 V2000
    0.9534    0.8932   -0.4163 C   0  0  2  0  0  0  0  0  0  0  0  0
    1.8875    1.5454   -1.3524 C   0  0  0  0  0  0  0  0  0  0  0  0
    3.2011    1.5505   -0.6201 C   0  0  0  0  0  0  0  0  0  0  0  0
    3.0085    0.6770    0.6134 C   0  0  2  0  0  0  0  0  0  0  0  0
    4.2677   -0.0827    0.7772 C   0  0  0  0  0  0  0  0  0  0  0  0
    5.1595   -0.9717    0.0203 C   0  0  0  0  0  0  0  0  0  0  0  0
    4.8302   -0.0009    1.8878 O   0  0  0  0  0  0  0  0  0  0  0  0
    1.8348   -0.1374    0.3098 C   0  0  2  0  0  0  0  0  0  0  0  0
    2.1301   -1.3153   -0.5399 C   0  0  0  0  0  0  0  0  0  0  0  0
    0.9779   -0.4935    1.4989 C   0  0  0  0  0  0  0  0  0  0  0  0
   -0.3011   -1.1648    1.1212 C   0  0  0  0  0  0  0  0  0  0  0  0
   -0.9431   -0.7215   -0.1418 C   0  0  2  0  0  0  0  0  0  0  0  0
   -0.1167    0.0785   -1.0581 C   0  0  1  0  0  0  0  0  0  0  0  0
   -0.8658    1.0037   -1.9357 C   0  0  0  0  0  0  0  0  0  0  0  0
   -2.1413    1.2483   -1.8882 C   0  0  0  0  0  0  0  0  0  0  0  0
   -2.9571    0.5691   -0.8895 C   0  0  0  0  0  0  0  0  0  0  0  0
   -4.2701    0.6597   -1.0276 C   0  0  0  0  0  0  0  0  0  0  0  0
   -5.1837    0.0368   -0.1119 C   0  0  0  0  0  0  0  0  0  0  0  0
   -6.4300    0.1940   -0.0590 O   0  0  0  0  0  0  0  0  0  0  0  0
   -4.6108   -0.8964    0.8864 C   0  0  0  0  0  0  0  0  0  0  0  0
   -3.2194   -1.3221    0.5685 C   0  0  0  0  0  0  0  0  0  0  0  0
   -2.3107   -0.1651    0.1966 C   0  0  1  0  0  0  0  0  0  0  0  0
   -2.3060    0.7286    1.4146 C   0  0  0  0  0  0  0  0  0  0  0  0
    0.6175    1.6380    0.3220 H   0  0  0  0  0  0  0  0  0  0  0  0
    1.5841    2.6179   -1.4885 H   0  0  0  0  0  0  0  0  0  0  0  0
    1.9507    1.1044   -2.3597 H   0  0  0  0  0  0  0  0  0  0  0  0
    3.5341    2.5502   -0.3026 H   0  0  0  0  0  0  0  0  0  0  0  0
    3.9647    1.1425   -1.3135 H   0  0  0  0  0  0  0  0  0  0  0  0
    2.8821    1.3220    1.5211 H   0  0  0  0  0  0  0  0  0  0  0  0
    6.2386   -0.6153    0.0319 H   0  0  0  0  0  0  0  0  0  0  0  0
    4.8497   -1.1361   -1.0481 H   0  0  0  0  0  0  0  0  0  0  0  0
    5.1995   -1.9608    0.4900 H   0  0  0  0  0  0  0  0  0  0  0  0
    2.8785   -1.9338   -0.0045 H   0  0  0  0  0  0  0  0  0  0  0  0
    1.2386   -2.0167   -0.6235 H   0  0  0  0  0  0  0  0  0  0  0  0
    2.5279   -1.0613   -1.5228 H   0  0  0  0  0  0  0  0  0  0  0  0
    0.8027    0.4416    2.0696 H   0  0  0  0  0  0  0  0  0  0  0  0
    1.5855   -1.1494    2.1562 H   0  0  0  0  0  0  0  0  0  0  0  0
   -0.9682   -1.0370    2.0012 H   0  0  0  0  0  0  0  0  0  0  0  0
   -0.0872   -2.2735    1.1487 H   0  0  0  0  0  0  0  0  0  0  0  0
   -1.2050   -1.6695   -0.7093 H   0  0  0  0  0  0  0  0  0  0  0  0
    0.4317   -0.5791   -1.7908 H   0  0  0  0  0  0  0  0  0  0  0  0
   -0.2787    1.5265   -2.6936 H   0  0  0  0  0  0  0  0  0  0  0  0
   -2.5957    1.9550   -2.5891 H   0  0  0  0  0  0  0  0  0  0  0  0
   -4.7080    1.2208   -1.8566 H   0  0  0  0  0  0  0  0  0  0  0  0
   -5.2549   -1.8000    0.8867 H   0  0  0  0  0  0  0  0  0  0  0  0
   -4.7204   -0.4345    1.8792 H   0  0  0  0  0  0  0  0  0  0  0  0
   -3.1867   -2.0775   -0.2213 H   0  0  0  0  0  0  0  0  0  0  0  0
   -2.7917   -1.7962    1.4921 H   0  0  0  0  0  0  0  0  0  0  0  0
   -1.3907    1.2846    1.5870 H   0  0  0  0  0  0  0  0  0  0  0  0
   -2.5599    0.1869    2.3583 H   0  0  0  0  0  0  0  0  0  0  0  0
   -3.1338    1.4890    1.3256 H   0  0  0  0  0  0  0  0  0  0  0  0
  1  2  1  0
  2  3  1  0
  3  4  1  0
  4  5  1  0
  5  6  1  0
  5  7  2  0
  4  8  1  0
  8  9  1  6
  8 10  1  0
 10 11  1  0
 11 12  1  0
 12 13  1  0
 13 14  1  0
 14 15  2  0
 15 16  1  0
 16 17  2  0
 17 18  1  0
 18 19  2  0
 18 20  1  0
 20 21  1  0
 21 22  1  0
 22 23  1  1
  8  1  1  0
 22 12  1  0
 13  1  1  0
 22 16  1  0
  1 24  1  1
  2 25  1  0
  2 26  1  0
  3 27  1  0
  3 28  1  0
  4 29  1  1
  6 30  1  0
  6 31  1  0
  6 32  1  0
  9 33  1  0
  9 34  1  0
  9 35  1  0
 10 36  1  0
 10 37  1  0
 11 38  1  0
 11 39  1  0
 12 40  1  6
 13 41  1  6
 14 42  1  0
 15 43  1  0
 17 44  1  0
 20 45  1  0
 20 46  1  0
 21 47  1  0
 21 48  1  0
 23 49  1  0
 23 50  1  0
 23 51  1  0
M  END
$$$$
