@<TRIPOS>MOLECULE
*****
 51 54 0 0 0
SMALL
GASTEIGER

@<TRIPOS>ATOM
      1 C           0.9534    0.8932   -0.4163 C.3     1  UNL1       -0.0284
      2 C           1.8875    1.5454   -1.3524 C.3     1  UNL1       -0.0485
      3 C           3.2011    1.5505   -0.6201 C.3     1  UNL1       -0.0427
      4 C           3.0085    0.6770    0.6134 C.3     1  UNL1        0.0229
      5 C           4.2677   -0.0827    0.7772 C.2     1  UNL1        0.1339
      6 C           5.1595   -0.9717    0.0203 C.3     1  UNL1       -0.0058
      7 O           4.8302   -0.0009    1.8878 O.2     1  UNL1       -0.2974
      8 C           1.8348   -0.1374    0.3098 C.3     1  UNL1       -0.0192
      9 C           2.1301   -1.3153   -0.5399 C.3     1  UNL1       -0.0586
     10 C           0.9779   -0.4935    1.4989 C.3     1  UNL1       -0.0464
     11 C          -0.3011   -1.1648    1.1212 C.3     1  UNL1       -0.0484
     12 C          -0.9431   -0.7215   -0.1418 C.3     1  UNL1       -0.0251
     13 C          -0.1167    0.0785   -1.0581 C.3     1  UNL1       -0.0156
     14 C          -0.8658    1.0037   -1.9357 C.2     1  UNL1       -0.0801
     15 C          -2.1413    1.2483   -1.8882 C.2     1  UNL1       -0.0616
     16 C          -2.9571    0.5691   -0.8895 C.2     1  UNL1       -0.0382
     17 C          -4.2701    0.6597   -1.0276 C.2     1  UNL1       -0.0155
     18 C          -5.1837    0.0368   -0.1119 C.2     1  UNL1        0.1564
     19 O          -6.4300    0.1940   -0.0590 O.2     1  UNL1       -0.2927
     20 C          -4.6108   -0.8964    0.8864 C.3     1  UNL1        0.0107
     21 C          -3.2194   -1.3221    0.5685 C.3     1  UNL1       -0.0363
     22 C          -2.3107   -0.1651    0.1966 C.3     1  UNL1       -0.0032
     23 C          -2.3060    0.7286    1.4146 C.3     1  UNL1       -0.0553
     24 H           0.6175    1.6380    0.3220 H       1  UNL1        0.0312
     25 H           1.5841    2.6179   -1.4885 H       1  UNL1        0.0268
     26 H           1.9507    1.1044   -2.3597 H       1  UNL1        0.0268
     27 H           3.5341    2.5502   -0.3026 H       1  UNL1        0.0272
     28 H           3.9647    1.1425   -1.3135 H       1  UNL1        0.0272
     29 H           2.8821    1.3220    1.5211 H       1  UNL1        0.0383
     30 H           6.2386   -0.6153    0.0319 H       1  UNL1        0.0306
     31 H           4.8497   -1.1361   -1.0481 H       1  UNL1        0.0306
     32 H           5.1995   -1.9608    0.4900 H       1  UNL1        0.0306
     33 H           2.8785   -1.9338   -0.0045 H       1  UNL1        0.0235
     34 H           1.2386   -2.0167   -0.6235 H       1  UNL1        0.0235
     35 H           2.5279   -1.0613   -1.5228 H       1  UNL1        0.0235
     36 H           0.8027    0.4416    2.0696 H       1  UNL1        0.0271
     37 H           1.5855   -1.1494    2.1562 H       1  UNL1        0.0271
     38 H          -0.9682   -1.0370    2.0012 H       1  UNL1        0.0269
     39 H          -0.0872   -2.2735    1.1487 H       1  UNL1        0.0269
     40 H          -1.2050   -1.6695   -0.7093 H       1  UNL1        0.0315
     41 H           0.4317   -0.5791   -1.7908 H       1  UNL1        0.0349
     42 H          -0.2787    1.5265   -2.6936 H       1  UNL1        0.0575
     43 H          -2.5957    1.9550   -2.5891 H       1  UNL1        0.0617
     44 H          -4.7080    1.2208   -1.8566 H       1  UNL1        0.0655
     45 H          -5.2549   -1.8000    0.8867 H       1  UNL1        0.0345
     46 H          -4.7204   -0.4345    1.8792 H       1  UNL1        0.0345
     47 H          -3.1867   -2.0775   -0.2213 H       1  UNL1        0.0278
     48 H          -2.7917   -1.7962    1.4921 H       1  UNL1        0.0278
     49 H          -1.3907    1.2846    1.5870 H       1  UNL1        0.0238
     50 H          -2.5599    0.1869    2.3583 H       1  UNL1        0.0238
     51 H          -3.1338    1.4890    1.3256 H       1  UNL1        0.0238
@<TRIPOS>BOND
     1     1     2    1
     2     2     3    1
     3     3     4    1
     4     4     5    1
     5     5     6    1
     6     5     7    2
     7     4     8    1
     8     8     9    1
     9     8    10    1
    10    10    11    1
    11    11    12    1
    12    12    13    1
    13    13    14    1
    14    14    15    2
    15    15    16    1
    16    16    17    2
    17    17    18    1
    18    18    19    2
    19    18    20    1
    20    20    21    1
    21    21    22    1
    22    22    23    1
    23     8     1    1
    24    22    12    1
    25    13     1    1
    26    22    16    1
    27     1    24    1
    28     2    25    1
    29     2    26    1
    30     3    27    1
    31     3    28    1
    32     4    29    1
    33     6    30    1
    34     6    31    1
    35     6    32    1
    36     9    33    1
    37     9    34    1
    38     9    35    1
    39    10    36    1
    40    10    37    1
    41    11    38    1
    42    11    39    1
    43    12    40    1
    44    13    41    1
    45    14    42    1
    46    15    43    1
    47    17    44    1
    48    20    45    1
    49    20    46    1
    50    21    47    1
    51    21    48    1
    52    23    49    1
    53    23    50    1
    54    23    51    1
