@<TRIPOS>MOLECULE
*****
 50 53 0 0 0
SMALL
GASTEIGER

@<TRIPOS>ATOM
      1 C           4.3729    1.7331    0.6823 C.3     1  UNL1        0.0086
      2 N           3.6303    0.7677   -0.0178 N.3     1  UNL1       -0.1839
      3 C           3.8775    0.5762   -1.3924 C.3     1  UNL1        0.0227
      4 C           5.1252   -0.1717   -1.7501 C.3     1  UNL1       -0.0266
      5 C           5.3764   -1.5474   -1.3134 C.3     1  UNL1       -0.0487
      6 C           6.2034   -0.3909   -0.7568 C.3     1  UNL1       -0.0487
      7 S           2.7339   -0.3648    0.8198 S.O2    1  UNL1        0.0319
      8 O           3.6338   -1.2023    1.7096 O.2     1  UNL1       -0.1580
      9 O           2.0895   -1.3132   -0.1516 O.2     1  UNL1       -0.1580
     10 C           1.4494    0.3004    1.8377 C.3     1  UNL1        0.0849
     11 C           0.4438    1.0853    1.0295 C.3     1  UNL1       -0.0168
     12 C          -0.2544    0.2713   -0.0417 C.3     1  UNL1       -0.0299
     13 C          -1.5829    0.8782    0.3695 C.3     1  UNL1        0.0251
     14 N          -2.6678   -0.1024    0.5376 N.pl3   1  UNL1       -0.3146
     15 C          -2.4285   -1.1434    1.4926 C.3     1  UNL1        0.0023
     16 C          -3.7959    0.0852   -0.2823 C.ar    1  UNL1        0.1337
     17 N          -3.7267    0.9058   -1.3708 N.ar    1  UNL1       -0.2200
     18 C          -4.7308    1.1196   -2.2186 C.ar    1  UNL1        0.1204
     19 N          -5.8828    0.4823   -1.9790 N.ar    1  UNL1       -0.2178
     20 C          -6.0742   -0.3529   -0.9366 C.ar    1  UNL1        0.1432
     21 N          -7.1321   -1.0668   -0.5235 N.ar    1  UNL1       -0.3457
     22 C          -6.7811   -1.7214    0.5821 C.ar    1  UNL1        0.0042
     23 C          -5.4491   -1.4163    0.8895 C.ar    1  UNL1       -0.0318
     24 C          -4.9943   -0.5541   -0.0641 C.ar    1  UNL1        0.0585
     25 C          -0.9205    1.2506    1.6733 C.3     1  UNL1       -0.0299
     26 H           5.2814    2.0063    0.0684 H       1  UNL1        0.0408
     27 H           3.8571    2.6951    0.8658 H       1  UNL1        0.0408
     28 H           4.7969    1.3088    1.6342 H       1  UNL1        0.0408
     29 H           3.8341    1.5653   -1.8957 H       1  UNL1        0.0446
     30 H           3.0076   -0.0135   -1.8083 H       1  UNL1        0.0446
     31 H           5.4985    0.0811   -2.7794 H       1  UNL1        0.0314
     32 H           4.6774   -2.0836   -0.6626 H       1  UNL1        0.0268
     33 H           5.9011   -2.2483   -2.0141 H       1  UNL1        0.0268
     34 H           7.2629   -0.3265   -1.0764 H       1  UNL1        0.0268
     35 H           6.0663   -0.2473    0.3208 H       1  UNL1        0.0268
     36 H           1.8356    0.9050    2.6755 H       1  UNL1        0.0518
     37 H           0.9071   -0.5503    2.2965 H       1  UNL1        0.0518
     38 H           0.8303    2.0501    0.6926 H       1  UNL1        0.0318
     39 H           0.0410    0.6492   -1.0490 H       1  UNL1        0.0286
     40 H          -0.2030   -0.8119    0.0514 H       1  UNL1        0.0286
     41 H          -1.8971    1.7481   -0.2111 H       1  UNL1        0.0500
     42 H          -1.3092   -1.2054    1.7150 H       1  UNL1        0.0428
     43 H          -2.8657   -0.9729    2.4926 H       1  UNL1        0.0428
     44 H          -2.7315   -2.1607    1.1260 H       1  UNL1        0.0428
     45 H          -4.6236    1.7948   -3.0868 H       1  UNL1        0.1048
     46 H          -8.0679   -1.0751   -1.0271 H       1  UNL1        0.1668
     47 H          -7.4258   -2.3773    1.1421 H       1  UNL1        0.0807
     48 H          -4.8976   -1.7915    1.7318 H       1  UNL1        0.0640
     49 H          -1.1370    2.3239    1.9446 H       1  UNL1        0.0286
     50 H          -1.1538    0.6285    2.5292 H       1  UNL1        0.0286
@<TRIPOS>BOND
     1     1     2    1
     2     2     3    1
     3     3     4    1
     4     4     5    1
     5     5     6    1
     6     2     7    1
     7     7     8    2
     8     7     9    2
     9     7    10    1
    10    10    11    1
    11    11    12    1
    12    12    13    1
    13    13    14    1
    14    14    15    1
    15    14    16    1
    16    16    17   ar
    17    17    18   ar
    18    18    19   ar
    19    19    20   ar
    20    20    21   ar
    21    21    22   ar
    22    22    23   ar
    23    23    24   ar
    24    13    25    1
    25     6     4    1
    26    25    11    1
    27    24    16   ar
    28    24    20   ar
    29     1    26    1
    30     1    27    1
    31     1    28    1
    32     3    29    1
    33     3    30    1
    34     4    31    1
    35     5    32    1
    36     5    33    1
    37     6    34    1
    38     6    35    1
    39    10    36    1
    40    10    37    1
    41    11    38    1
    42    12    39    1
    43    12    40    1
    44    13    41    1
    45    15    42    1
    46    15    43    1
    47    15    44    1
    48    18    45    1
    49    21    46    1
    50    22    47    1
    51    23    48    1
    52    25    49    1
    53    25    50    1
