
     RDKit          3D

 50 53  0  0  0  0  0  0  0  0999 V2000
    4.3729    1.7331    0.6823 C   0  0  0  0  0  0  0  0  0  0  0  0
    3.6303    0.7677   -0.0178 N   0  0  0  0  0  0  0  0  0  0  0  0
    3.8775    0.5762   -1.3924 C   0  0  0  0  0  0  0  0  0  0  0  0
    5.1252   -0.1717   -1.7501 C   0  0  0  0  0  0  0  0  0  0  0  0
    5.3764   -1.5474   -1.3134 C   0  0  0  0  0  0  0  0  0  0  0  0
    6.2034   -0.3909   -0.7568 C   0  0  0  0  0  0  0  0  0  0  0  0
    2.7339   -0.3648    0.8198 S   0  0  0  0  0  6  0  0  0  0  0  0
    3.6338   -1.2023    1.7096 O   0  0  0  0  0  0  0  0  0  0  0  0
    2.0895   -1.3132   -0.1516 O   0  0  0  0  0  0  0  0  0  0  0  0
    1.4494    0.3004    1.8377 C   0  0  0  0  0  0  0  0  0  0  0  0
    0.4438    1.0853    1.0295 C   0  0  1  0  0  0  0  0  0  0  0  0
   -0.2544    0.2713   -0.0417 C   0  0  0  0  0  0  0  0  0  0  0  0
   -1.5829    0.8782    0.3695 C   0  0  1  0  0  0  0  0  0  0  0  0
   -2.6678   -0.1024    0.5376 N   0  0  0  0  0  0  0  0  0  0  0  0
   -2.4285   -1.1434    1.4926 C   0  0  0  0  0  0  0  0  0  0  0  0
   -3.7959    0.0852   -0.2823 C   0  0  0  0  0  0  0  0  0  0  0  0
   -3.7267    0.9058   -1.3708 N   0  0  0  0  0  0  0  0  0  0  0  0
   -4.7308    1.1196   -2.2186 C   0  0  0  0  0  0  0  0  0  0  0  0
   -5.8828    0.4823   -1.9790 N   0  0  0  0  0  0  0  0  0  0  0  0
   -6.0742   -0.3529   -0.9366 C   0  0  0  0  0  0  0  0  0  0  0  0
   -7.1321   -1.0668   -0.5235 N   0  0  0  0  0  0  0  0  0  0  0  0
   -6.7811   -1.7214    0.5821 C   0  0  0  0  0  0  0  0  0  0  0  0
   -5.4491   -1.4163    0.8895 C   0  0  0  0  0  0  0  0  0  0  0  0
   -4.9943   -0.5541   -0.0641 C   0  0  0  0  0  0  0  0  0  0  0  0
   -0.9205    1.2506    1.6733 C   0  0  0  0  0  0  0  0  0  0  0  0
    5.2814    2.0063    0.0684 H   0  0  0  0  0  0  0  0  0  0  0  0
    3.8571    2.6951    0.8658 H   0  0  0  0  0  0  0  0  0  0  0  0
    4.7969    1.3088    1.6342 H   0  0  0  0  0  0  0  0  0  0  0  0
    3.8341    1.5653   -1.8957 H   0  0  0  0  0  0  0  0  0  0  0  0
    3.0076   -0.0135   -1.8083 H   0  0  0  0  0  0  0  0  0  0  0  0
    5.4985    0.0811   -2.7794 H   0  0  0  0  0  0  0  0  0  0  0  0
    4.6774   -2.0836   -0.6626 H   0  0  0  0  0  0  0  0  0  0  0  0
    5.9011   -2.2483   -2.0141 H   0  0  0  0  0  0  0  0  0  0  0  0
    7.2629   -0.3265   -1.0764 H   0  0  0  0  0  0  0  0  0  0  0  0
    6.0663   -0.2473    0.3208 H   0  0  0  0  0  0  0  0  0  0  0  0
    1.8356    0.9050    2.6755 H   0  0  0  0  0  0  0  0  0  0  0  0
    0.9071   -0.5503    2.2965 H   0  0  0  0  0  0  0  0  0  0  0  0
    0.8303    2.0501    0.6926 H   0  0  0  0  0  0  0  0  0  0  0  0
    0.0410    0.6492   -1.0490 H   0  0  0  0  0  0  0  0  0  0  0  0
   -0.2030   -0.8119    0.0514 H   0  0  0  0  0  0  0  0  0  0  0  0
   -1.8971    1.7481   -0.2111 H   0  0  0  0  0  0  0  0  0  0  0  0
   -1.3092   -1.2054    1.7150 H   0  0  0  0  0  0  0  0  0  0  0  0
   -2.8657   -0.9729    2.4926 H   0  0  0  0  0  0  0  0  0  0  0  0
   -2.7315   -2.1607    1.1260 H   0  0  0  0  0  0  0  0  0  0  0  0
   -4.6236    1.7948   -3.0868 H   0  0  0  0  0  0  0  0  0  0  0  0
   -8.0679   -1.0751   -1.0271 H   0  0  0  0  0  0  0  0  0  0  0  0
   -7.4258   -2.3773    1.1421 H   0  0  0  0  0  0  0  0  0  0  0  0
   -4.8976   -1.7915    1.7318 H   0  0  0  0  0  0  0  0  0  0  0  0
   -1.1370    2.3239    1.9446 H   0  0  0  0  0  0  0  0  0  0  0  0
   -1.1538    0.6285    2.5292 H   0  0  0  0  0  0  0  0  0  0  0  0
  1  2  1  0
  2  3  1  0
  3  4  1  0
  4  5  1  0
  5  6  1  0
  2  7  1  0
  7  8  2  0
  7  9  2  0
  7 10  1  0
 10 11  1  0
 11 12  1  0
 12 13  1  0
 13 14  1  0
 14 15  1  0
 14 16  1  0
 16 17  2  0
 17 18  1  0
 18 19  2  0
 19 20  1  0
 20 21  1  0
 21 22  1  0
 22 23  2  0
 23 24  1  0
 13 25  1  0
  6  4  1  0
 25 11  1  0
 24 16  1  0
 24 20  2  0
  1 26  1  0
  1 27  1  0
  1 28  1  0
  3 29  1  0
  3 30  1  0
  4 31  1  0
  5 32  1  0
  5 33  1  0
  6 34  1  0
  6 35  1  0
 10 36  1  0
 10 37  1  0
 11 38  1  6
 12 39  1  0
 12 40  1  0
 13 41  1  6
 15 42  1  0
 15 43  1  0
 15 44  1  0
 18 45  1  0
 21 46  1  0
 22 47  1  0
 23 48  1  0
 25 49  1  0
 25 50  1  0
M  END
$$$$
