
     RDKit          3D

 44 48  0  0  0  0  0  0  0  0999 V2000
   -5.9026   -2.1153   -1.4800 C   0  0  0  0  0  0  0  0  0  0  0  0
   -6.1702   -3.0028   -0.4611 C   0  0  0  0  0  0  0  0  0  0  0  0
   -5.6775   -2.7245    0.7569 N   0  0  0  0  0  0  0  0  0  0  0  0
   -4.9363   -1.6118    1.0043 C   0  0  0  0  0  0  0  0  0  0  0  0
   -4.6504   -0.7054    0.0111 C   0  0  0  0  0  0  0  0  0  0  0  0
   -3.8547    0.4924    0.2696 C   0  0  0  0  0  0  0  0  0  0  0  0
   -2.4346    0.2834    0.0746 N   0  0  0  0  0  0  0  0  0  0  0  0
   -1.5393    1.3705    0.2926 C   0  0  0  0  0  0  0  0  0  0  0  0
   -2.0131    2.6051    0.6835 C   0  0  0  0  0  0  0  0  0  0  0  0
   -1.1725    3.6767    0.9025 C   0  0  0  0  0  0  0  0  0  0  0  0
    0.1440    3.4688    0.7177 N   0  0  0  0  0  0  0  0  0  0  0  0
    1.1780    4.2775    0.8445 N   0  0  0  0  0  0  0  0  0  0  0  0
    2.3254    3.6382    0.5553 C   0  0  0  0  0  0  0  0  0  0  0  0
    2.0155    2.3362    0.2208 C   0  0  0  0  0  0  0  0  0  0  0  0
    2.9036    1.2436   -0.1702 C   0  0  0  0  0  0  0  0  0  0  0  0
    3.9176    1.4481   -1.0845 C   0  0  0  0  0  0  0  0  0  0  0  0
    4.7569    0.4029   -1.4500 C   0  0  0  0  0  0  0  0  0  0  0  0
    4.6094   -0.8630   -0.9187 C   0  0  0  0  0  0  0  0  0  0  0  0
    5.4447   -1.9198   -1.2771 C   0  0  0  0  0  0  0  0  0  0  0  0
    5.2766   -3.1756   -0.7318 C   0  0  0  0  0  0  0  0  0  0  0  0
    4.2699   -3.4045    0.1842 C   0  0  0  0  0  0  0  0  0  0  0  0
    3.4560   -2.3446    0.5237 C   0  0  0  0  0  0  0  0  0  0  0  0
    3.5994   -1.0778   -0.0045 C   0  0  0  0  0  0  0  0  0  0  0  0
    2.7757   -0.0292    0.3468 C   0  0  0  0  0  0  0  0  0  0  0  0
    0.6222    2.2700    0.3363 C   0  0  0  0  0  0  0  0  0  0  0  0
   -0.2018    1.2310    0.1249 N   0  0  0  0  0  0  0  0  0  0  0  0
   -5.1437   -0.9670   -1.2471 C   0  0  0  0  0  0  0  0  0  0  0  0
   -6.2920   -2.3214   -2.4742 H   0  0  0  0  0  0  0  0  0  0  0  0
   -6.7663   -3.9030   -0.6484 H   0  0  0  0  0  0  0  0  0  0  0  0
   -4.5626   -1.4347    2.0058 H   0  0  0  0  0  0  0  0  0  0  0  0
   -4.1469    1.3393   -0.4081 H   0  0  0  0  0  0  0  0  0  0  0  0
   -3.9875    0.8820    1.3176 H   0  0  0  0  0  0  0  0  0  0  0  0
   -2.0657   -0.6446   -0.2205 H   0  0  0  0  0  0  0  0  0  0  0  0
   -3.1023    2.6904    0.8122 H   0  0  0  0  0  0  0  0  0  0  0  0
   -1.5897    4.6320    1.2099 H   0  0  0  0  0  0  0  0  0  0  0  0
    3.3089    4.0655    0.5802 H   0  0  0  0  0  0  0  0  0  0  0  0
    4.0303    2.4473   -1.5007 H   0  0  0  0  0  0  0  0  0  0  0  0
    5.5458    0.5713   -2.1643 H   0  0  0  0  0  0  0  0  0  0  0  0
    6.2351   -1.7606   -1.9897 H   0  0  0  0  0  0  0  0  0  0  0  0
    5.9441   -3.9962   -1.0259 H   0  0  0  0  0  0  0  0  0  0  0  0
    4.1296   -4.4008    0.6226 H   0  0  0  0  0  0  0  0  0  0  0  0
    2.6733   -2.5118    1.2324 H   0  0  0  0  0  0  0  0  0  0  0  0
    1.9826   -0.1867    1.0612 H   0  0  0  0  0  0  0  0  0  0  0  0
   -4.9349   -0.2714   -2.0492 H   0  0  0  0  0  0  0  0  0  0  0  0
  1  2  2  0
  2  3  1  0
  3  4  2  0
  4  5  1  0
  5  6  1  0
  6  7  1  0
  7  8  1  0
  8  9  1  0
  9 10  2  0
 10 11  1  0
 11 12  1  0
 12 13  2  0
 13 14  1  0
 14 15  1  0
 15 16  2  0
 16 17  1  0
 17 18  2  0
 18 19  1  0
 19 20  2  0
 20 21  1  0
 21 22  2  0
 22 23  1  0
 23 24  2  0
 14 25  2  0
 25 26  1  0
  5 27  2  0
 27  1  1  0
 26  8  2  0
 25 11  1  0
 24 15  1  0
 23 18  1  0
  1 28  1  0
  2 29  1  0
  4 30  1  0
  6 31  1  0
  6 32  1  0
  7 33  1  0
  9 34  1  0
 10 35  1  0
 13 36  1  0
 16 37  1  0
 17 38  1  0
 19 39  1  0
 20 40  1  0
 21 41  1  0
 22 42  1  0
 24 43  1  0
 27 44  1  0
M  END
$$$$
