@<TRIPOS>MOLECULE
*****
 44 48 0 0 0
SMALL
GASTEIGER

@<TRIPOS>ATOM
      1 C          -5.9026   -2.1153   -1.4800 C.ar    1  UNL1       -0.0433
      2 C          -6.1702   -3.0028   -0.4611 C.ar    1  UNL1        0.0276
      3 N          -5.6775   -2.7245    0.7569 N.ar    1  UNL1       -0.2629
      4 C          -4.9363   -1.6118    1.0043 C.ar    1  UNL1        0.0322
      5 C          -4.6504   -0.7054    0.0111 C.ar    1  UNL1       -0.0123
      6 C          -3.8547    0.4924    0.2696 C.3     1  UNL1        0.0371
      7 N          -2.4346    0.2834    0.0746 N.pl3   1  UNL1       -0.3248
      8 C          -1.5393    1.3705    0.2926 C.ar    1  UNL1        0.1228
      9 C          -2.0131    2.6051    0.6835 C.ar    1  UNL1       -0.0036
     10 C          -1.1725    3.6767    0.9025 C.ar    1  UNL1        0.0347
     11 N           0.1440    3.4688    0.7177 N.ar    1  UNL1       -0.2210
     12 N           1.1780    4.2775    0.8445 N.ar    1  UNL1       -0.1728
     13 C           2.3254    3.6382    0.5553 C.ar    1  UNL1        0.0596
     14 C           2.0155    2.3362    0.2208 C.ar    1  UNL1        0.0461
     15 C           2.9036    1.2436   -0.1702 C.ar    1  UNL1       -0.0122
     16 C           3.9176    1.4481   -1.0845 C.ar    1  UNL1       -0.0533
     17 C           4.7569    0.4029   -1.4500 C.ar    1  UNL1       -0.0535
     18 C           4.6094   -0.8630   -0.9187 C.ar    1  UNL1       -0.0178
     19 C           5.4447   -1.9198   -1.2771 C.ar    1  UNL1       -0.0540
     20 C           5.2766   -3.1756   -0.7318 C.ar    1  UNL1       -0.0612
     21 C           4.2699   -3.4045    0.1842 C.ar    1  UNL1       -0.0612
     22 C           3.4560   -2.3446    0.5237 C.ar    1  UNL1       -0.0540
     23 C           3.5994   -1.0778   -0.0045 C.ar    1  UNL1       -0.0173
     24 C           2.7757   -0.0292    0.3468 C.ar    1  UNL1       -0.0461
     25 C           0.6222    2.2700    0.3363 C.ar    1  UNL1        0.1651
     26 N          -0.2018    1.2310    0.1249 N.ar    1  UNL1       -0.2127
     27 C          -5.1437   -0.9670   -1.2471 C.ar    1  UNL1       -0.0542
     28 H          -6.2920   -2.3214   -2.4742 H       1  UNL1        0.0633
     29 H          -6.7663   -3.9030   -0.6484 H       1  UNL1        0.0829
     30 H          -4.5626   -1.4347    2.0058 H       1  UNL1        0.0833
     31 H          -4.1469    1.3393   -0.4081 H       1  UNL1        0.0512
     32 H          -3.9875    0.8820    1.3176 H       1  UNL1        0.0512
     33 H          -2.0657   -0.6446   -0.2205 H       1  UNL1        0.1478
     34 H          -3.1023    2.6904    0.8122 H       1  UNL1        0.0667
     35 H          -1.5897    4.6320    1.2099 H       1  UNL1        0.0832
     36 H           3.3089    4.0655    0.5802 H       1  UNL1        0.0855
     37 H           4.0303    2.4473   -1.5007 H       1  UNL1        0.0624
     38 H           5.5458    0.5713   -2.1643 H       1  UNL1        0.0624
     39 H           6.2351   -1.7606   -1.9897 H       1  UNL1        0.0624
     40 H           5.9441   -3.9962   -1.0259 H       1  UNL1        0.0618
     41 H           4.1296   -4.4008    0.6226 H       1  UNL1        0.0618
     42 H           2.6733   -2.5118    1.2324 H       1  UNL1        0.0624
     43 H           1.9826   -0.1867    1.0612 H       1  UNL1        0.0630
     44 H          -4.9349   -0.2714   -2.0492 H       1  UNL1        0.0622
@<TRIPOS>BOND
     1     1     2   ar
     2     2     3   ar
     3     3     4   ar
     4     4     5   ar
     5     5     6    1
     6     6     7    1
     7     7     8    1
     8     8     9   ar
     9     9    10   ar
    10    10    11   ar
    11    11    12   ar
    12    12    13   ar
    13    13    14   ar
    14    14    15    1
    15    15    16   ar
    16    16    17   ar
    17    17    18   ar
    18    18    19   ar
    19    19    20   ar
    20    20    21   ar
    21    21    22   ar
    22    22    23   ar
    23    23    24   ar
    24    14    25   ar
    25    25    26   ar
    26     5    27   ar
    27    27     1   ar
    28    26     8   ar
    29    25    11   ar
    30    24    15   ar
    31    23    18   ar
    32     1    28    1
    33     2    29    1
    34     4    30    1
    35     6    31    1
    36     6    32    1
    37     7    33    1
    38     9    34    1
    39    10    35    1
    40    13    36    1
    41    16    37    1
    42    17    38    1
    43    19    39    1
    44    20    40    1
    45    21    41    1
    46    22    42    1
    47    24    43    1
    48    27    44    1
