@<TRIPOS>MOLECULE
*****
 42 45 0 0 0
SMALL
GASTEIGER

@<TRIPOS>ATOM
      1 O           5.8542    1.6045    1.8444 O.2     1  UNL1       -0.2451
      2 C           5.2131    0.6018    2.1874 C.2     1  UNL1        0.3369
      3 O           5.7628   -0.2985    3.0662 O.3     1  UNL1       -0.4771
      4 C           3.8618    0.4207    1.6227 C.ar    1  UNL1        0.0608
      5 C           3.1018   -0.6876    1.9758 C.ar    1  UNL1       -0.0471
      6 C           1.8399   -0.8721    1.4583 C.ar    1  UNL1       -0.0515
      7 C           1.3055    0.0382    0.5803 C.ar    1  UNL1        0.0037
      8 C           0.0789    0.1483   -0.1164 C.ar    1  UNL1       -0.0112
      9 C          -0.9916   -0.8377    0.0327 C.3     1  UNL1       -0.0133
     10 C          -1.1681   -1.8171   -1.0898 C.3     1  UNL1       -0.0461
     11 C          -2.6154   -2.3032   -1.0511 C.3     1  UNL1       -0.0525
     12 C          -2.8970   -2.7414    0.3786 C.3     1  UNL1       -0.0530
     13 C          -2.9431   -1.5240    1.3016 C.3     1  UNL1       -0.0525
     14 C          -2.2810   -0.3324    0.5472 C.3     1  UNL1       -0.0461
     15 C           0.0986    1.2857   -0.8692 C.ar    1  UNL1        0.0540
     16 C          -0.9023    1.8990   -1.7648 C.ar    1  UNL1        0.0363
     17 C          -0.7906    3.2261   -2.2039 C.ar    1  UNL1       -0.0148
     18 C          -1.8286    3.4588   -3.0520 C.ar    1  UNL1        0.0923
     19 O          -2.5343    2.3775   -3.1427 O.2     1  UNL1       -0.4704
     20 C          -2.0036    1.4232   -2.3821 C.ar    1  UNL1        0.1008
     21 N           1.3204    1.8620   -0.6308 N.ar    1  UNL1       -0.3538
     22 C           2.0457    1.1322    0.2267 C.ar    1  UNL1        0.0480
     23 C           3.3208    1.3193    0.7491 C.ar    1  UNL1       -0.0238
     24 H           6.7140   -0.2264    3.4035 H       1  UNL1        0.2954
     25 H           3.5128   -1.4149    2.6692 H       1  UNL1        0.0626
     26 H           1.2836   -1.7393    1.7541 H       1  UNL1        0.0624
     27 H          -0.6202   -1.5432    0.9145 H       1  UNL1        0.0350
     28 H          -0.9838   -1.3730   -2.0836 H       1  UNL1        0.0271
     29 H          -0.4747   -2.6951   -0.9866 H       1  UNL1        0.0271
     30 H          -2.6447   -3.2334   -1.6676 H       1  UNL1        0.0265
     31 H          -3.3373   -1.5858   -1.4219 H       1  UNL1        0.0265
     32 H          -2.1070   -3.4321    0.7306 H       1  UNL1        0.0265
     33 H          -3.8620   -3.2627    0.4791 H       1  UNL1        0.0265
     34 H          -3.9659   -1.2971    1.5907 H       1  UNL1        0.0265
     35 H          -2.3242   -1.7613    2.1816 H       1  UNL1        0.0265
     36 H          -3.0031    0.0038   -0.1924 H       1  UNL1        0.0271
     37 H          -2.1123    0.4151    1.3610 H       1  UNL1        0.0271
     38 H          -0.0085    3.9484   -1.9155 H       1  UNL1        0.0655
     39 H          -1.9945    4.4157   -3.5479 H       1  UNL1        0.1029
     40 H          -2.4040    0.4245   -2.2858 H       1  UNL1        0.1036
     41 H           1.6355    2.7720   -1.0804 H       1  UNL1        0.1659
     42 H           3.8486    2.2014    0.4291 H       1  UNL1        0.0646
@<TRIPOS>BOND
     1     1     2    2
     2     2     3    1
     3     2     4    1
     4     4     5   ar
     5     5     6   ar
     6     6     7   ar
     7     7     8   ar
     8     8     9    1
     9     9    10    1
    10    10    11    1
    11    11    12    1
    12    12    13    1
    13    13    14    1
    14     8    15   ar
    15    15    16    1
    16    16    17   ar
    17    17    18   ar
    18    18    19   ar
    19    19    20   ar
    20    15    21   ar
    21    21    22   ar
    22    22    23   ar
    23    23     4   ar
    24    22     7   ar
    25    14     9    1
    26    20    16   ar
    27     3    24    1
    28     5    25    1
    29     6    26    1
    30     9    27    1
    31    10    28    1
    32    10    29    1
    33    11    30    1
    34    11    31    1
    35    12    32    1
    36    12    33    1
    37    13    34    1
    38    13    35    1
    39    14    36    1
    40    14    37    1
    41    17    38    1
    42    18    39    1
    43    20    40    1
    44    21    41    1
    45    23    42    1
