
     RDKit          3D

 42 45  0  0  0  0  0  0  0  0999 V2000
    5.8542    1.6045    1.8444 O   0  0  0  0  0  0  0  0  0  0  0  0
    5.2131    0.6018    2.1874 C   0  0  0  0  0  0  0  0  0  0  0  0
    5.7628   -0.2985    3.0662 O   0  0  0  0  0  0  0  0  0  0  0  0
    3.8618    0.4207    1.6227 C   0  0  0  0  0  0  0  0  0  0  0  0
    3.1018   -0.6876    1.9758 C   0  0  0  0  0  0  0  0  0  0  0  0
    1.8399   -0.8721    1.4583 C   0  0  0  0  0  0  0  0  0  0  0  0
    1.3055    0.0382    0.5803 C   0  0  0  0  0  0  0  0  0  0  0  0
    0.0789    0.1483   -0.1164 C   0  0  0  0  0  0  0  0  0  0  0  0
   -0.9916   -0.8377    0.0327 C   0  0  0  0  0  0  0  0  0  0  0  0
   -1.1681   -1.8171   -1.0898 C   0  0  0  0  0  0  0  0  0  0  0  0
   -2.6154   -2.3032   -1.0511 C   0  0  0  0  0  0  0  0  0  0  0  0
   -2.8970   -2.7414    0.3786 C   0  0  0  0  0  0  0  0  0  0  0  0
   -2.9431   -1.5240    1.3016 C   0  0  0  0  0  0  0  0  0  0  0  0
   -2.2810   -0.3324    0.5472 C   0  0  0  0  0  0  0  0  0  0  0  0
    0.0986    1.2857   -0.8692 C   0  0  0  0  0  0  0  0  0  0  0  0
   -0.9023    1.8990   -1.7648 C   0  0  0  0  0  0  0  0  0  0  0  0
   -0.7906    3.2261   -2.2039 C   0  0  0  0  0  0  0  0  0  0  0  0
   -1.8286    3.4588   -3.0520 C   0  0  0  0  0  0  0  0  0  0  0  0
   -2.5343    2.3775   -3.1427 O   0  0  0  0  0  0  0  0  0  0  0  0
   -2.0036    1.4232   -2.3821 C   0  0  0  0  0  0  0  0  0  0  0  0
    1.3204    1.8620   -0.6308 N   0  0  0  0  0  0  0  0  0  0  0  0
    2.0457    1.1322    0.2267 C   0  0  0  0  0  0  0  0  0  0  0  0
    3.3208    1.3193    0.7491 C   0  0  0  0  0  0  0  0  0  0  0  0
    6.7140   -0.2264    3.4035 H   0  0  0  0  0  0  0  0  0  0  0  0
    3.5128   -1.4149    2.6692 H   0  0  0  0  0  0  0  0  0  0  0  0
    1.2836   -1.7393    1.7541 H   0  0  0  0  0  0  0  0  0  0  0  0
   -0.6202   -1.5432    0.9145 H   0  0  0  0  0  0  0  0  0  0  0  0
   -0.9838   -1.3730   -2.0836 H   0  0  0  0  0  0  0  0  0  0  0  0
   -0.4747   -2.6951   -0.9866 H   0  0  0  0  0  0  0  0  0  0  0  0
   -2.6447   -3.2334   -1.6676 H   0  0  0  0  0  0  0  0  0  0  0  0
   -3.3373   -1.5858   -1.4219 H   0  0  0  0  0  0  0  0  0  0  0  0
   -2.1070   -3.4321    0.7306 H   0  0  0  0  0  0  0  0  0  0  0  0
   -3.8620   -3.2627    0.4791 H   0  0  0  0  0  0  0  0  0  0  0  0
   -3.9659   -1.2971    1.5907 H   0  0  0  0  0  0  0  0  0  0  0  0
   -2.3242   -1.7613    2.1816 H   0  0  0  0  0  0  0  0  0  0  0  0
   -3.0031    0.0038   -0.1924 H   0  0  0  0  0  0  0  0  0  0  0  0
   -2.1123    0.4151    1.3610 H   0  0  0  0  0  0  0  0  0  0  0  0
   -0.0085    3.9484   -1.9155 H   0  0  0  0  0  0  0  0  0  0  0  0
   -1.9945    4.4157   -3.5479 H   0  0  0  0  0  0  0  0  0  0  0  0
   -2.4040    0.4245   -2.2858 H   0  0  0  0  0  0  0  0  0  0  0  0
    1.6355    2.7720   -1.0804 H   0  0  0  0  0  0  0  0  0  0  0  0
    3.8486    2.2014    0.4291 H   0  0  0  0  0  0  0  0  0  0  0  0
  1  2  2  0
  2  3  1  0
  2  4  1  0
  4  5  2  0
  5  6  1  0
  6  7  2  0
  7  8  1  0
  8  9  1  0
  9 10  1  0
 10 11  1  0
 11 12  1  0
 12 13  1  0
 13 14  1  0
  8 15  2  0
 15 16  1  0
 16 17  1  0
 17 18  2  0
 18 19  1  0
 19 20  1  0
 15 21  1  0
 21 22  1  0
 22 23  2  0
 23  4  1  0
 22  7  1  0
 14  9  1  0
 20 16  2  0
  3 24  1  0
  5 25  1  0
  6 26  1  0
  9 27  1  0
 10 28  1  0
 10 29  1  0
 11 30  1  0
 11 31  1  0
 12 32  1  0
 12 33  1  0
 13 34  1  0
 13 35  1  0
 14 36  1  0
 14 37  1  0
 17 38  1  0
 18 39  1  0
 20 40  1  0
 21 41  1  0
 23 42  1  0
M  END
$$$$
