@<TRIPOS>MOLECULE
*****
 51 56 0 0 0
SMALL
GASTEIGER

@<TRIPOS>ATOM
      1 C          -6.6060   -2.0058    2.1935 C.ar    1  UNL1       -0.0591
      2 C          -5.5355   -1.1525    2.3059 C.ar    1  UNL1       -0.0532
      3 C          -5.1780   -0.3149    1.2744 C.ar    1  UNL1       -0.0037
      4 C          -4.0391    0.5978    1.3845 C.ar    1  UNL1        0.0466
      5 C          -4.0807    1.8932    1.8537 C.ar    1  UNL1        0.0597
      6 N          -2.8297    2.3836    1.7921 N.ar    1  UNL1       -0.1727
      7 N          -1.9971    1.4878    1.3159 N.ar    1  UNL1       -0.2205
      8 C          -0.6608    1.5299    1.0786 C.ar    1  UNL1        0.0420
      9 C          -0.0002    0.4501    0.5693 C.ar    1  UNL1        0.0366
     10 C           1.4268    0.4007    0.2823 C.ar    1  UNL1        0.0741
     11 C           2.1974    1.5085    0.5313 C.ar    1  UNL1       -0.0321
     12 C           3.5452    1.4501    0.2561 C.ar    1  UNL1       -0.0164
     13 C           4.1025    0.2988   -0.2592 C.ar    1  UNL1        0.1390
     14 O           5.4800    0.3115   -0.5147 O.3     1  UNL1       -0.4860
     15 C           6.2298   -0.7418   -1.0314 C.3     1  UNL1        0.1138
     16 C           7.0816   -0.2747   -2.2266 C.3     1  UNL1       -0.0020
     17 C           8.0354    0.6746   -1.5062 C.3     1  UNL1       -0.0006
     18 N           8.3300    0.0493   -0.2492 N.3     1  UNL1       -0.3124
     19 C           7.3691   -0.9860   -0.0246 C.3     1  UNL1        0.0330
     20 C           3.3000   -0.7923   -0.4962 C.ar    1  UNL1        0.0699
     21 N           1.9829   -0.7398   -0.2288 N.ar    1  UNL1       -0.2513
     22 C          -0.7628   -0.6906    0.3071 C.ar    1  UNL1        0.0406
     23 N          -2.0786   -0.6858    0.5572 N.ar    1  UNL1       -0.2349
     24 C          -2.7155    0.3769    1.0559 C.ar    1  UNL1        0.1632
     25 C          -5.9373   -0.3588    0.1089 C.ar    1  UNL1        0.0082
     26 C          -5.6024    0.4728   -0.9483 C.ar    1  UNL1       -0.0506
     27 C          -6.3612    0.4196   -2.0951 C.ar    1  UNL1       -0.0430
     28 C          -7.4315   -0.4246   -2.2247 C.ar    1  UNL1        0.0283
     29 N          -7.7469   -1.2264   -1.1932 N.ar    1  UNL1       -0.2550
     30 C          -7.0179   -1.2004   -0.0429 C.ar    1  UNL1        0.0715
     31 C          -7.3299   -2.0164    1.0218 C.ar    1  UNL1       -0.0357
     32 H          -6.8968   -2.6783    3.0155 H       1  UNL1        0.0618
     33 H          -4.9626   -1.1346    3.2149 H       1  UNL1        0.0624
     34 H          -4.9551    2.4287    2.2095 H       1  UNL1        0.0855
     35 H          -0.1169    2.4319    1.2971 H       1  UNL1        0.0838
     36 H           1.8099    2.4455    0.9382 H       1  UNL1        0.0640
     37 H           4.1781    2.3362    0.4521 H       1  UNL1        0.0655
     38 H           5.7020   -1.6629   -1.2599 H       1  UNL1        0.0746
     39 H           6.4818    0.2195   -2.9843 H       1  UNL1        0.0314
     40 H           7.6689   -1.1304   -2.5558 H       1  UNL1        0.0314
     41 H           7.4453    1.5975   -1.2926 H       1  UNL1        0.0425
     42 H           8.9309    0.8838   -2.1208 H       1  UNL1        0.0425
     43 H           8.3306    0.7058    0.5629 H       1  UNL1        0.1221
     44 H           6.9683   -0.9997    1.0092 H       1  UNL1        0.0460
     45 H           7.8181   -1.9565   -0.3207 H       1  UNL1        0.0460
     46 H           3.7444   -1.7152   -0.9087 H       1  UNL1        0.0867
     47 H          -0.2856   -1.5889   -0.1029 H       1  UNL1        0.0837
     48 H          -4.7486    1.1558   -0.8631 H       1  UNL1        0.0625
     49 H          -6.1001    1.0770   -2.9367 H       1  UNL1        0.0633
     50 H          -7.9966   -0.4223   -3.1598 H       1  UNL1        0.0830
     51 H          -8.1853   -2.6876    0.9112 H       1  UNL1        0.0639
@<TRIPOS>BOND
     1     1     2   ar
     2     2     3   ar
     3     3     4    1
     4     4     5   ar
     5     5     6   ar
     6     6     7   ar
     7     7     8   ar
     8     8     9   ar
     9     9    10    1
    10    10    11   ar
    11    11    12   ar
    12    12    13   ar
    13    13    14    1
    14    14    15    1
    15    15    16    1
    16    16    17    1
    17    17    18    1
    18    18    19    1
    19    13    20   ar
    20    20    21   ar
    21     9    22   ar
    22    22    23   ar
    23    23    24   ar
    24     3    25   ar
    25    25    26   ar
    26    26    27   ar
    27    27    28   ar
    28    28    29   ar
    29    29    30   ar
    30    30    31   ar
    31    31     1   ar
    32    24     4   ar
    33    30    25   ar
    34    24     7   ar
    35    21    10   ar
    36    19    15    1
    37     1    32    1
    38     2    33    1
    39     5    34    1
    40     8    35    1
    41    11    36    1
    42    12    37    1
    43    15    38    1
    44    16    39    1
    45    16    40    1
    46    17    41    1
    47    17    42    1
    48    18    43    1
    49    19    44    1
    50    19    45    1
    51    20    46    1
    52    22    47    1
    53    26    48    1
    54    27    49    1
    55    28    50    1
    56    31    51    1
