@<TRIPOS>MOLECULE
*****
 74 77 0 0 0
SMALL
GASTEIGER

@<TRIPOS>ATOM
      1 C          -3.8860    1.6749    3.7481 C.3     1  UNL1        0.0372
      2 O          -3.0128    0.7863    4.3062 O.3     1  UNL1       -0.3718
      3 C          -1.7166    0.8222    3.8384 C.3     1  UNL1        0.1441
      4 C          -1.5283    0.5010    2.4163 C.2     1  UNL1        0.3337
      5 O          -0.2716    0.6258    2.3001 O.2     1  UNL1       -0.2482
      6 O          -2.2136    0.1469    1.3053 O.3     1  UNL1       -0.4558
      7 C          -1.6873   -0.1214    0.0182 C.3     1  UNL1        0.1220
      8 C          -0.7445   -1.2762    0.0660 C.3     1  UNL1        0.0006
      9 C          -0.0925   -1.6864   -1.2029 C.3     1  UNL1        0.0022
     10 N           0.7815   -2.8386   -1.0161 N.3     1  UNL1       -0.3052
     11 C           1.3401   -3.2607   -2.2978 C.3     1  UNL1       -0.0128
     12 C           1.8256   -2.6264   -0.0477 C.3     1  UNL1       -0.0010
     13 C           2.8859   -1.6530   -0.4683 C.3     1  UNL1       -0.0334
     14 C           3.8788   -1.5743    0.6980 C.3     1  UNL1        0.0066
     15 C           4.9957   -0.6532    0.3866 C.ar    1  UNL1        0.1082
     16 N           5.3225    0.1047   -0.6761 N.ar    1  UNL1       -0.2325
     17 C           6.4856    0.7565   -0.3822 C.ar    1  UNL1        0.0891
     18 C           7.1773    1.6325   -1.1834 C.ar    1  UNL1       -0.0342
     19 C           8.3374    2.1658   -0.6596 C.ar    1  UNL1       -0.0596
     20 C           8.7823    1.8301    0.6190 C.ar    1  UNL1       -0.0597
     21 C           8.0164    0.9376    1.3512 C.ar    1  UNL1       -0.0363
     22 C           6.8458    0.3663    0.8888 C.ar    1  UNL1        0.0662
     23 N           5.9284   -0.4974    1.3539 N.ar    1  UNL1       -0.3418
     24 C          -1.0703    1.1715   -0.4373 C.3     1  UNL1       -0.0082
     25 C          -2.1270    2.2424   -0.0814 C.3     1  UNL1       -0.0237
     26 C          -3.1215    2.0832   -1.2078 C.ar    1  UNL1       -0.0409
     27 C          -3.3878    0.7529   -1.5592 C.ar    1  UNL1       -0.0369
     28 C          -4.2514    0.7311   -2.6334 C.ar    1  UNL1       -0.0552
     29 C          -4.7836    1.8217   -3.2734 C.ar    1  UNL1       -0.0262
     30 C          -4.4545    3.0842   -2.8403 C.ar    1  UNL1        0.1237
     31 F          -4.9262    4.2104   -3.4018 F       1  UNL1       -0.2055
     32 C          -3.5975    3.2379   -1.7757 C.ar    1  UNL1       -0.0230
     33 C          -2.8556   -0.4615   -0.8990 C.3     1  UNL1        0.0267
     34 C          -3.8557   -1.3381   -0.2344 C.3     1  UNL1       -0.0362
     35 C          -5.0014   -1.7107   -1.1434 C.3     1  UNL1       -0.0620
     36 C          -4.5029   -0.7876    1.0111 C.3     1  UNL1       -0.0620
     37 H          -4.0625    1.6168    2.6831 H       1  UNL1        0.0524
     38 H          -4.8825    1.5463    4.2655 H       1  UNL1        0.0524
     39 H          -3.5745    2.7313    3.9567 H       1  UNL1        0.0524
     40 H          -1.1584    0.0732    4.4907 H       1  UNL1        0.0676
     41 H          -1.3345    1.8479    4.1037 H       1  UNL1        0.0676
     42 H           0.0041   -1.0697    0.8722 H       1  UNL1        0.0316
     43 H          -1.2806   -2.1951    0.4529 H       1  UNL1        0.0316
     44 H          -0.7192   -1.9128   -2.0532 H       1  UNL1        0.0428
     45 H           0.6116   -0.8598   -1.5305 H       1  UNL1        0.0428
     46 H           1.7883   -2.4405   -2.8642 H       1  UNL1        0.0391
     47 H           2.0339   -4.0842   -2.0653 H       1  UNL1        0.0391
     48 H           0.4902   -3.6915   -2.8733 H       1  UNL1        0.0391
     49 H           1.4940   -2.3812    0.9641 H       1  UNL1        0.0426
     50 H           2.3494   -3.6191    0.0413 H       1  UNL1        0.0426
     51 H           2.5264   -0.6255   -0.6491 H       1  UNL1        0.0282
     52 H           3.4548   -1.9680   -1.3623 H       1  UNL1        0.0282
     53 H           3.3618   -1.1671    1.6084 H       1  UNL1        0.0344
     54 H           4.2535   -2.5641    0.9778 H       1  UNL1        0.0344
     55 H           6.8703    1.9136   -2.1670 H       1  UNL1        0.0639
     56 H           8.9076    2.8643   -1.2721 H       1  UNL1        0.0618
     57 H           9.6905    2.2550    1.0142 H       1  UNL1        0.0618
     58 H           8.3649    0.6802    2.3413 H       1  UNL1        0.0639
     59 H           6.0643   -0.8858    2.3132 H       1  UNL1        0.1671
     60 H          -0.9259    1.2508   -1.5293 H       1  UNL1        0.0307
     61 H          -0.1608    1.4422    0.1318 H       1  UNL1        0.0307
     62 H          -2.6100    2.0575    0.8700 H       1  UNL1        0.0315
     63 H          -1.7055    3.2449   -0.0743 H       1  UNL1        0.0315
     64 H          -4.5817   -0.1786   -3.1031 H       1  UNL1        0.0621
     65 H          -5.4585    1.7962   -4.1106 H       1  UNL1        0.0646
     66 H          -3.2932    4.1927   -1.3800 H       1  UNL1        0.0649
     67 H          -2.4222   -1.0642   -1.7225 H       1  UNL1        0.0390
     68 H          -3.3187   -2.2640    0.0943 H       1  UNL1        0.0303
     69 H          -5.5762   -2.4946   -0.5260 H       1  UNL1        0.0233
     70 H          -5.7153   -0.8942   -1.2236 H       1  UNL1        0.0233
     71 H          -4.7041   -2.2266   -2.0697 H       1  UNL1        0.0233
     72 H          -4.0034   -1.0725    1.9551 H       1  UNL1        0.0233
     73 H          -4.7884    0.2665    0.9142 H       1  UNL1        0.0233
     74 H          -5.5046   -1.3203    1.1009 H       1  UNL1        0.0233
@<TRIPOS>BOND
     1     1     2    1
     2     2     3    1
     3     3     4    1
     4     4     5    2
     5     4     6    1
     6     7     6    1
     7     7     8    1
     8     8     9    1
     9     9    10    1
    10    10    11    1
    11    10    12    1
    12    12    13    1
    13    13    14    1
    14    14    15    1
    15    15    16   ar
    16    16    17   ar
    17    17    18   ar
    18    18    19   ar
    19    19    20   ar
    20    20    21   ar
    21    21    22   ar
    22    22    23   ar
    23     7    24    1
    24    24    25    1
    25    25    26    1
    26    26    27   ar
    27    27    28   ar
    28    28    29   ar
    29    29    30   ar
    30    30    31    1
    31    30    32   ar
    32    27    33    1
    33    33    34    1
    34    34    35    1
    35    34    36    1
    36    33     7    1
    37    23    15   ar
    38    32    26   ar
    39    22    17   ar
    40     1    37    1
    41     1    38    1
    42     1    39    1
    43     3    40    1
    44     3    41    1
    45     8    42    1
    46     8    43    1
    47     9    44    1
    48     9    45    1
    49    11    46    1
    50    11    47    1
    51    11    48    1
    52    12    49    1
    53    12    50    1
    54    13    51    1
    55    13    52    1
    56    14    53    1
    57    14    54    1
    58    18    55    1
    59    19    56    1
    60    20    57    1
    61    21    58    1
    62    23    59    1
    63    24    60    1
    64    24    61    1
    65    25    62    1
    66    25    63    1
    67    28    64    1
    68    29    65    1
    69    32    66    1
    70    33    67    1
    71    34    68    1
    72    35    69    1
    73    35    70    1
    74    35    71    1
    75    36    72    1
    76    36    73    1
    77    36    74    1
