
     RDKit          3D

 70 74  0  0  0  0  0  0  0  0999 V2000
   -5.2795   -0.3719    2.9234 C   0  0  0  0  0  0  0  0  0  0  0  0
   -5.5392    0.0289    1.4994 C   0  0  0  0  0  0  0  0  0  0  0  0
   -5.0489   -0.8840    0.4652 C   0  0  2  0  0  0  0  0  0  0  0  0
   -3.6336   -1.1637    0.3001 C   0  0  0  0  0  0  0  0  0  0  0  0
   -3.2578   -1.6031   -0.8728 O   0  0  0  0  0  0  0  0  0  0  0  0
   -2.6284   -1.0077    1.2700 N   0  0  0  0  0  0  0  0  0  0  0  0
   -1.2479   -1.3368    0.9442 C   0  0  0  0  0  0  0  0  0  0  0  0
   -0.7370   -2.5908    1.1742 C   0  0  0  0  0  0  0  0  0  0  0  0
    0.5683   -2.9123    0.8665 C   0  0  0  0  0  0  0  0  0  0  0  0
    1.4117   -1.9708    0.3108 C   0  0  0  0  0  0  0  0  0  0  0  0
    0.8823   -0.7136    0.0854 C   0  0  0  0  0  0  0  0  0  0  0  0
    1.4611    0.4292   -0.4550 C   0  0  0  0  0  0  0  0  0  0  0  0
    2.8441    0.5700   -0.9254 C   0  0  0  0  0  0  0  0  0  0  0  0
    3.8460    0.2795   -0.1128 N   0  0  0  0  0  0  0  0  0  0  0  0
    5.1713    0.3735   -0.4622 C   0  0  0  0  0  0  0  0  0  0  0  0
    6.0987    0.0286    0.5350 N   0  0  0  0  0  0  0  0  0  0  0  0
    7.4966    0.0751    0.2694 C   0  0  0  0  0  0  0  0  0  0  0  0
    8.1593    0.4041   -0.8874 C   0  0  0  0  0  0  0  0  0  0  0  0
    9.4980    0.3059   -0.6806 N   0  0  0  0  0  0  0  0  0  0  0  0
   10.5370    0.5781   -1.6855 C   0  0  0  0  0  0  0  0  0  0  0  0
    9.6581   -0.0713    0.5632 N   0  0  0  0  0  0  0  0  0  0  0  0
    8.5083   -0.2291    1.1934 C   0  0  0  0  0  0  0  0  0  0  0  0
    8.2367   -0.6133    2.5005 O   0  0  0  0  0  0  0  0  0  0  0  0
    9.1994   -0.9264    3.4586 C   0  0  0  0  0  0  0  0  0  0  0  0
    5.4321    0.7831   -1.6953 N   0  0  0  0  0  0  0  0  0  0  0  0
    4.4613    1.0922   -2.5643 C   0  0  0  0  0  0  0  0  0  0  0  0
    3.1138    0.9960   -2.2071 C   0  0  0  0  0  0  0  0  0  0  0  0
    2.1295    1.3065   -3.0807 F   0  0  0  0  0  0  0  0  0  0  0  0
    0.4699    1.3862   -0.4455 C   0  0  0  0  0  0  0  0  0  0  0  0
   -0.6603    0.9159    0.0563 N   0  0  0  0  0  0  0  0  0  0  0  0
   -0.4156   -0.3839    0.3882 C   0  0  0  0  0  0  0  0  0  0  0  0
   -5.6802   -0.7725   -0.8224 N   0  0  0  0  0  0  0  0  0  0  0  0
   -7.0710   -1.0186   -0.8614 C   0  0  0  0  0  0  0  0  0  0  0  0
   -7.8461   -0.0218   -1.6886 C   0  0  0  0  0  0  0  0  0  0  0  0
   -7.4326    1.3272   -1.5099 N   0  0  0  0  0  0  0  0  0  0  0  0
   -8.1498    2.0764   -0.5336 C   0  0  0  0  0  0  0  0  0  0  0  0
   -6.0319    1.5550   -1.5712 C   0  0  0  0  0  0  0  0  0  0  0  0
   -5.2102    0.2806   -1.6520 C   0  0  0  0  0  0  0  0  0  0  0  0
   -4.9000   -1.4170    2.9330 H   0  0  0  0  0  0  0  0  0  0  0  0
   -4.5551    0.2791    3.4046 H   0  0  0  0  0  0  0  0  0  0  0  0
   -6.2646   -0.3499    3.5008 H   0  0  0  0  0  0  0  0  0  0  0  0
   -6.6319    0.2565    1.4243 H   0  0  0  0  0  0  0  0  0  0  0  0
   -5.0820    1.0748    1.4108 H   0  0  0  0  0  0  0  0  0  0  0  0
   -5.4603   -1.9285    0.8160 H   0  0  0  0  0  0  0  0  0  0  0  0
   -2.8723   -0.6540    2.2015 H   0  0  0  0  0  0  0  0  0  0  0  0
   -1.3827   -3.3562    1.6132 H   0  0  0  0  0  0  0  0  0  0  0  0
    0.9262   -3.9280    1.0707 H   0  0  0  0  0  0  0  0  0  0  0  0
    2.4271   -2.1731    0.0563 H   0  0  0  0  0  0  0  0  0  0  0  0
    5.7728   -0.2658    1.4824 H   0  0  0  0  0  0  0  0  0  0  0  0
    7.7236    0.7009   -1.8400 H   0  0  0  0  0  0  0  0  0  0  0  0
   10.1866    0.1874   -2.6663 H   0  0  0  0  0  0  0  0  0  0  0  0
   11.4895    0.1362   -1.3674 H   0  0  0  0  0  0  0  0  0  0  0  0
   10.5741    1.6842   -1.7874 H   0  0  0  0  0  0  0  0  0  0  0  0
    9.3157   -1.9997    3.6689 H   0  0  0  0  0  0  0  0  0  0  0  0
   10.1813   -0.5027    3.1625 H   0  0  0  0  0  0  0  0  0  0  0  0
    8.9742   -0.4492    4.4541 H   0  0  0  0  0  0  0  0  0  0  0  0
    4.6734    1.4273   -3.5739 H   0  0  0  0  0  0  0  0  0  0  0  0
    0.6408    2.3903   -0.8145 H   0  0  0  0  0  0  0  0  0  0  0  0
   -1.5545    1.4350    0.1735 H   0  0  0  0  0  0  0  0  0  0  0  0
   -7.4628   -1.1101    0.1702 H   0  0  0  0  0  0  0  0  0  0  0  0
   -7.2479   -2.0348   -1.3236 H   0  0  0  0  0  0  0  0  0  0  0  0
   -7.7781   -0.3239   -2.7694 H   0  0  0  0  0  0  0  0  0  0  0  0
   -8.9140   -0.1147   -1.4132 H   0  0  0  0  0  0  0  0  0  0  0  0
   -9.0979    2.4829   -0.9791 H   0  0  0  0  0  0  0  0  0  0  0  0
   -7.5760    2.9615   -0.2147 H   0  0  0  0  0  0  0  0  0  0  0  0
   -8.4094    1.4712    0.3748 H   0  0  0  0  0  0  0  0  0  0  0  0
   -5.8227    2.2251   -2.4301 H   0  0  0  0  0  0  0  0  0  0  0  0
   -5.7497    2.1557   -0.6582 H   0  0  0  0  0  0  0  0  0  0  0  0
   -5.2883   -0.0607   -2.7109 H   0  0  0  0  0  0  0  0  0  0  0  0
   -4.1488    0.4571   -1.4591 H   0  0  0  0  0  0  0  0  0  0  0  0
  1  2  1  0
  2  3  1  0
  3  4  1  0
  4  5  2  0
  4  6  1  0
  6  7  1  0
  7  8  2  0
  8  9  1  0
  9 10  2  0
 10 11  1  0
 11 12  1  0
 12 13  1  0
 13 14  2  0
 14 15  1  0
 15 16  1  0
 16 17  1  0
 17 18  2  0
 18 19  1  0
 19 20  1  0
 19 21  1  0
 21 22  2  0
 22 23  1  0
 23 24  1  0
 15 25  2  0
 25 26  1  0
 26 27  2  0
 27 28  1  0
 12 29  2  0
 29 30  1  0
 30 31  1  0
  3 32  1  0
 32 33  1  0
 33 34  1  0
 34 35  1  0
 35 36  1  0
 35 37  1  0
 37 38  1  0
 31  7  1  0
 38 32  1  0
 31 11  2  0
 27 13  1  0
 22 17  1  0
  1 39  1  0
  1 40  1  0
  1 41  1  0
  2 42  1  0
  2 43  1  0
  3 44  1  1
  6 45  1  0
  8 46  1  0
  9 47  1  0
 10 48  1  0
 16 49  1  0
 18 50  1  0
 20 51  1  0
 20 52  1  0
 20 53  1  0
 24 54  1  0
 24 55  1  0
 24 56  1  0
 26 57  1  0
 29 58  1  0
 30 59  1  0
 33 60  1  0
 33 61  1  0
 34 62  1  0
 34 63  1  0
 36 64  1  0
 36 65  1  0
 36 66  1  0
 37 67  1  0
 37 68  1  0
 38 69  1  0
 38 70  1  0
M  END
$$$$
