@<TRIPOS>MOLECULE
*****
 70 74 0 0 0
SMALL
GASTEIGER

@<TRIPOS>ATOM
      1 C          -5.2795   -0.3719    2.9234 C.3     1  UNL1       -0.0634
      2 C          -5.5392    0.0289    1.4994 C.3     1  UNL1       -0.0317
      3 C          -5.0489   -0.8840    0.4652 C.3     1  UNL1        0.0874
      4 C          -3.6336   -1.1637    0.3001 C.2     1  UNL1        0.2345
      5 O          -3.2578   -1.6031   -0.8728 O.2     1  UNL1       -0.2737
      6 N          -2.6284   -1.0077    1.2700 N.am    1  UNL1       -0.2825
      7 C          -1.2479   -1.3368    0.9442 C.ar    1  UNL1        0.0576
      8 C          -0.7370   -2.5908    1.1742 C.ar    1  UNL1       -0.0384
      9 C           0.5683   -2.9123    0.8665 C.ar    1  UNL1       -0.0593
     10 C           1.4117   -1.9708    0.3108 C.ar    1  UNL1       -0.0518
     11 C           0.8823   -0.7136    0.0854 C.ar    1  UNL1        0.0107
     12 C           1.4611    0.4292   -0.4550 C.ar    1  UNL1        0.0284
     13 C           2.8441    0.5700   -0.9254 C.ar    1  UNL1        0.1132
     14 N           3.8460    0.2795   -0.1128 N.ar    1  UNL1       -0.2113
     15 C           5.1713    0.3735   -0.4622 C.ar    1  UNL1        0.2203
     16 N           6.0987    0.0286    0.5350 N.pl3   1  UNL1       -0.2782
     17 C           7.4966    0.0751    0.2694 C.ar    1  UNL1        0.1152
     18 C           8.1593    0.4041   -0.8874 C.ar    1  UNL1        0.0503
     19 N           9.4980    0.3059   -0.6806 N.ar    1  UNL1       -0.2692
     20 C          10.5370    0.5781   -1.6855 C.3     1  UNL1        0.0304
     21 N           9.6581   -0.0713    0.5632 N.ar    1  UNL1       -0.1317
     22 C           8.5083   -0.2291    1.1934 C.ar    1  UNL1        0.2552
     23 O           8.2367   -0.6133    2.5005 O.3     1  UNL1       -0.4774
     24 C           9.1994   -0.9264    3.4586 C.3     1  UNL1        0.0805
     25 N           5.4321    0.7831   -1.6953 N.ar    1  UNL1       -0.2198
     26 C           4.4613    1.0922   -2.5643 C.ar    1  UNL1        0.0685
     27 C           3.1138    0.9960   -2.2071 C.ar    1  UNL1        0.1674
     28 F           2.1295    1.3065   -3.0807 F       1  UNL1       -0.2016
     29 C           0.4699    1.3862   -0.4455 C.ar    1  UNL1        0.0121
     30 N          -0.6603    0.9159    0.0563 N.ar    1  UNL1       -0.3586
     31 C          -0.4156   -0.3839    0.3882 C.ar    1  UNL1        0.0686
     32 N          -5.6802   -0.7725   -0.8224 N.3     1  UNL1       -0.2891
     33 C          -7.0710   -1.0186   -0.8614 C.3     1  UNL1        0.0124
     34 C          -7.8461   -0.0218   -1.6886 C.3     1  UNL1        0.0114
     35 N          -7.4326    1.3272   -1.5099 N.3     1  UNL1       -0.3029
     36 C          -8.1498    2.0764   -0.5336 C.3     1  UNL1       -0.0127
     37 C          -6.0319    1.5550   -1.5712 C.3     1  UNL1        0.0114
     38 C          -5.2102    0.2806   -1.6520 C.3     1  UNL1        0.0124
     39 H          -4.9000   -1.4170    2.9330 H       1  UNL1        0.0230
     40 H          -4.5551    0.2791    3.4046 H       1  UNL1        0.0230
     41 H          -6.2646   -0.3499    3.5008 H       1  UNL1        0.0230
     42 H          -6.6319    0.2565    1.4243 H       1  UNL1        0.0282
     43 H          -5.0820    1.0748    1.4108 H       1  UNL1        0.0282
     44 H          -5.4603   -1.9285    0.8160 H       1  UNL1        0.0558
     45 H          -2.8723   -0.6540    2.2015 H       1  UNL1        0.1549
     46 H          -1.3827   -3.3562    1.6132 H       1  UNL1        0.0637
     47 H           0.9262   -3.9280    1.0707 H       1  UNL1        0.0618
     48 H           2.4271   -2.1731    0.0563 H       1  UNL1        0.0624
     49 H           5.7728   -0.2658    1.4824 H       1  UNL1        0.1552
     50 H           7.7236    0.7009   -1.8400 H       1  UNL1        0.0846
     51 H          10.1866    0.1874   -2.6663 H       1  UNL1        0.0473
     52 H          11.4895    0.1362   -1.3674 H       1  UNL1        0.0473
     53 H          10.5741    1.6842   -1.7874 H       1  UNL1        0.0473
     54 H           9.3157   -1.9997    3.6689 H       1  UNL1        0.0660
     55 H          10.1813   -0.5027    3.1625 H       1  UNL1        0.0660
     56 H           8.9742   -0.4492    4.4541 H       1  UNL1        0.0660
     57 H           4.6734    1.4273   -3.5739 H       1  UNL1        0.0861
     58 H           0.6408    2.3903   -0.8145 H       1  UNL1        0.0814
     59 H          -1.5545    1.4350    0.1735 H       1  UNL1        0.1654
     60 H          -7.4628   -1.1101    0.1702 H       1  UNL1        0.0439
     61 H          -7.2479   -2.0348   -1.3236 H       1  UNL1        0.0439
     62 H          -7.7781   -0.3239   -2.7694 H       1  UNL1        0.0439
     63 H          -8.9140   -0.1147   -1.4132 H       1  UNL1        0.0439
     64 H          -9.0979    2.4829   -0.9791 H       1  UNL1        0.0391
     65 H          -7.5760    2.9615   -0.2147 H       1  UNL1        0.0391
     66 H          -8.4094    1.4712    0.3748 H       1  UNL1        0.0391
     67 H          -5.8227    2.2251   -2.4301 H       1  UNL1        0.0439
     68 H          -5.7497    2.1557   -0.6582 H       1  UNL1        0.0439
     69 H          -5.2883   -0.0607   -2.7109 H       1  UNL1        0.0439
     70 H          -4.1488    0.4571   -1.4591 H       1  UNL1        0.0439
@<TRIPOS>BOND
     1     1     2    1
     2     2     3    1
     3     3     4    1
     4     4     5    2
     5     4     6   am
     6     6     7    1
     7     7     8   ar
     8     8     9   ar
     9     9    10   ar
    10    10    11   ar
    11    11    12   ar
    12    12    13    1
    13    13    14   ar
    14    14    15   ar
    15    15    16    1
    16    16    17    1
    17    17    18   ar
    18    18    19   ar
    19    19    20    1
    20    19    21   ar
    21    21    22   ar
    22    22    23    1
    23    23    24    1
    24    15    25   ar
    25    25    26   ar
    26    26    27   ar
    27    27    28    1
    28    12    29   ar
    29    29    30   ar
    30    30    31   ar
    31     3    32    1
    32    32    33    1
    33    33    34    1
    34    34    35    1
    35    35    36    1
    36    35    37    1
    37    37    38    1
    38    31     7   ar
    39    38    32    1
    40    31    11   ar
    41    27    13   ar
    42    22    17   ar
    43     1    39    1
    44     1    40    1
    45     1    41    1
    46     2    42    1
    47     2    43    1
    48     3    44    1
    49     6    45    1
    50     8    46    1
    51     9    47    1
    52    10    48    1
    53    16    49    1
    54    18    50    1
    55    20    51    1
    56    20    52    1
    57    20    53    1
    58    24    54    1
    59    24    55    1
    60    24    56    1
    61    26    57    1
    62    29    58    1
    63    30    59    1
    64    33    60    1
    65    33    61    1
    66    34    62    1
    67    34    63    1
    68    36    64    1
    69    36    65    1
    70    36    66    1
    71    37    67    1
    72    37    68    1
    73    38    69    1
    74    38    70    1
