
     RDKit          3D

103105  0  0  0  0  0  0  0  0999 V2000
   -6.0544    3.0360    4.3846 C   0  0  0  0  0  0  0  0  0  0  0  0
   -5.6764    2.8201    3.0382 O   0  0  0  0  0  0  0  0  0  0  0  0
   -5.8897    1.6539    2.3553 C   0  0  0  0  0  0  0  0  0  0  0  0
   -6.4651    0.8187    3.0986 O   0  0  0  0  0  0  0  0  0  0  0  0
   -5.5233    1.3990    1.0039 N   0  0  0  0  0  0  0  0  0  0  0  0
   -5.7797    0.1329    0.3401 C   0  0  2  0  0  0  0  0  0  0  0  0
   -4.5610   -0.6806    0.1142 C   0  0  0  0  0  0  0  0  0  0  0  0
   -4.2958   -1.8129   -0.3644 O   0  0  0  0  0  0  0  0  0  0  0  0
   -3.3502   -0.0506    0.5406 N   0  0  0  0  0  0  0  0  0  0  0  0
   -1.9136   -0.4633    0.5485 C   0  0  1  0  0  0  0  0  0  0  0  0
   -1.2358    0.2271   -0.6098 C   0  0  0  0  0  0  0  0  0  0  0  0
   -1.9271   -0.2245   -1.8569 C   0  0  0  0  0  0  0  0  0  0  0  0
   -1.4585   -1.3948   -2.4572 C   0  0  0  0  0  0  0  0  0  0  0  0
   -1.9513   -1.9705   -3.6252 C   0  0  0  0  0  0  0  0  0  0  0  0
   -2.9976   -1.3180   -4.2383 C   0  0  0  0  0  0  0  0  0  0  0  0
   -3.4704   -0.1636   -3.6589 C   0  0  0  0  0  0  0  0  0  0  0  0
   -2.9791    0.4018   -2.5021 C   0  0  0  0  0  0  0  0  0  0  0  0
   -1.3363   -0.1816    1.8957 C   0  0  1  0  0  0  0  0  0  0  0  0
   -2.1376   -0.8884    2.8567 O   0  0  0  0  0  0  0  0  0  0  0  0
    0.0702   -0.6856    2.0060 C   0  0  0  0  0  0  0  0  0  0  0  0
    1.0442   -0.0879    1.1303 N   0  0  0  0  0  0  0  0  0  0  0  0
    1.2156    1.3037    1.5522 C   0  0  0  0  0  0  0  0  0  0  0  0
    2.2261    2.0222    0.7333 C   0  0  0  0  0  0  0  0  0  0  0  0
    1.7955    2.6498   -0.4189 C   0  0  0  0  0  0  0  0  0  0  0  0
    2.6118    3.3533   -1.2755 C   0  0  0  0  0  0  0  0  0  0  0  0
    3.9566    3.4587   -0.9941 C   0  0  0  0  0  0  0  0  0  0  0  0
    4.4127    2.8425    0.1488 C   0  0  0  0  0  0  0  0  0  0  0  0
    3.5832    2.1407    0.9985 C   0  0  0  0  0  0  0  0  0  0  0  0
    4.7861    4.2033   -1.9124 C   0  0  0  0  0  0  0  0  0  0  0  0
    6.1364    4.3867   -1.7387 C   0  0  0  0  0  0  0  0  0  0  0  0
    6.8771    5.1121   -2.6451 C   0  0  0  0  0  0  0  0  0  0  0  0
    6.2721    5.6704   -3.7497 C   0  0  0  0  0  0  0  0  0  0  0  0
    4.9080    5.4732   -3.9061 C   0  0  0  0  0  0  0  0  0  0  0  0
    4.2161    4.7598   -3.0019 N   0  0  0  0  0  0  0  0  0  0  0  0
    2.2979   -0.7134    1.4008 N   0  0  0  0  0  0  0  0  0  0  0  0
    2.4631   -1.9290    0.6388 C   0  0  0  0  0  0  0  0  0  0  0  0
    1.5119   -2.2769   -0.1455 O   0  0  0  0  0  0  0  0  0  0  0  0
    3.6038   -2.8521    0.6376 C   0  0  1  0  0  0  0  0  0  0  0  0
    4.6909   -2.3653    1.4986 N   0  0  0  0  0  0  0  0  0  0  0  0
    5.9487   -2.1300    0.8847 C   0  0  0  0  0  0  0  0  0  0  0  0
    6.2880   -2.2786   -0.3249 O   0  0  0  0  0  0  0  0  0  0  0  0
    7.1416   -1.6724    1.4540 O   0  0  0  0  0  0  0  0  0  0  0  0
    8.2932   -1.5127    0.6182 C   0  0  0  0  0  0  0  0  0  0  0  0
    3.2159   -4.2600    1.0416 C   0  0  0  0  0  0  0  0  0  0  0  0
    2.2021   -4.7787    0.0793 C   0  0  0  0  0  0  0  0  0  0  0  0
    2.7784   -4.3354    2.4798 C   0  0  0  0  0  0  0  0  0  0  0  0
    4.4661   -5.1040    0.9242 C   0  0  0  0  0  0  0  0  0  0  0  0
   -6.7339    0.2150   -0.7829 C   0  0  0  0  0  0  0  0  0  0  0  0
   -6.9266   -1.1619   -1.4315 C   0  0  0  0  0  0  0  0  0  0  0  0
   -8.1115    0.5195   -0.1461 C   0  0  0  0  0  0  0  0  0  0  0  0
   -6.4448    1.1758   -1.8765 C   0  0  0  0  0  0  0  0  0  0  0  0
   -5.9558    4.0742    4.6974 H   0  0  0  0  0  0  0  0  0  0  0  0
   -5.3231    2.4370    5.0052 H   0  0  0  0  0  0  0  0  0  0  0  0
   -7.0722    2.6122    4.5556 H   0  0  0  0  0  0  0  0  0  0  0  0
   -5.0531    2.2515    0.5859 H   0  0  0  0  0  0  0  0  0  0  0  0
   -6.3384   -0.4583    1.1455 H   0  0  0  0  0  0  0  0  0  0  0  0
   -3.3613    0.9319    0.9578 H   0  0  0  0  0  0  0  0  0  0  0  0
   -1.8715   -1.5380    0.3207 H   0  0  0  0  0  0  0  0  0  0  0  0
   -0.1966   -0.0931   -0.7116 H   0  0  0  0  0  0  0  0  0  0  0  0
   -1.2548    1.3267   -0.5120 H   0  0  0  0  0  0  0  0  0  0  0  0
   -0.6197   -1.9190   -1.9678 H   0  0  0  0  0  0  0  0  0  0  0  0
   -1.5231   -2.8740   -4.0073 H   0  0  0  0  0  0  0  0  0  0  0  0
   -3.4382   -1.7040   -5.1544 H   0  0  0  0  0  0  0  0  0  0  0  0
   -4.3009    0.3280   -4.1827 H   0  0  0  0  0  0  0  0  0  0  0  0
   -3.3414    1.3060   -2.0412 H   0  0  0  0  0  0  0  0  0  0  0  0
   -1.4015    0.8889    2.1390 H   0  0  0  0  0  0  0  0  0  0  0  0
   -1.6133   -0.8603    3.6827 H   0  0  0  0  0  0  0  0  0  0  0  0
    0.4043   -0.5520    3.0861 H   0  0  0  0  0  0  0  0  0  0  0  0
    0.1218   -1.8007    1.8804 H   0  0  0  0  0  0  0  0  0  0  0  0
    0.2733    1.8807    1.5069 H   0  0  0  0  0  0  0  0  0  0  0  0
    1.5649    1.3500    2.6159 H   0  0  0  0  0  0  0  0  0  0  0  0
    0.7506    2.6008   -0.6867 H   0  0  0  0  0  0  0  0  0  0  0  0
    2.1776    3.8224   -2.1738 H   0  0  0  0  0  0  0  0  0  0  0  0
    5.4627    2.9072    0.3932 H   0  0  0  0  0  0  0  0  0  0  0  0
    3.9313    1.6564    1.8991 H   0  0  0  0  0  0  0  0  0  0  0  0
    6.6414    3.9633   -0.8856 H   0  0  0  0  0  0  0  0  0  0  0  0
    7.9530    5.2942   -2.5640 H   0  0  0  0  0  0  0  0  0  0  0  0
    6.7336    6.2626   -4.5401 H   0  0  0  0  0  0  0  0  0  0  0  0
    4.3760    5.8944   -4.7670 H   0  0  0  0  0  0  0  0  0  0  0  0
    3.1840   -0.6060    1.9803 H   0  0  0  0  0  0  0  0  0  0  0  0
    4.0175   -2.9085   -0.3834 H   0  0  0  0  0  0  0  0  0  0  0  0
    4.6868   -2.1584    2.5175 H   0  0  0  0  0  0  0  0  0  0  0  0
    8.0594   -0.9426   -0.3047 H   0  0  0  0  0  0  0  0  0  0  0  0
    9.0932   -1.0594    1.2093 H   0  0  0  0  0  0  0  0  0  0  0  0
    8.5970   -2.5446    0.2977 H   0  0  0  0  0  0  0  0  0  0  0  0
    1.1789   -4.4995    0.4478 H   0  0  0  0  0  0  0  0  0  0  0  0
    2.2186   -5.9022    0.1483 H   0  0  0  0  0  0  0  0  0  0  0  0
    2.3556   -4.4196   -0.9541 H   0  0  0  0  0  0  0  0  0  0  0  0
    3.0283   -5.3614    2.8810 H   0  0  0  0  0  0  0  0  0  0  0  0
    3.4022   -3.6425    3.0842 H   0  0  0  0  0  0  0  0  0  0  0  0
    1.6894   -4.2168    2.6340 H   0  0  0  0  0  0  0  0  0  0  0  0
    4.7925   -5.2480   -0.1154 H   0  0  0  0  0  0  0  0  0  0  0  0
    5.2885   -4.5614    1.4771 H   0  0  0  0  0  0  0  0  0  0  0  0
    4.3392   -6.1000    1.4195 H   0  0  0  0  0  0  0  0  0  0  0  0
   -6.8351   -1.9334   -0.6397 H   0  0  0  0  0  0  0  0  0  0  0  0
   -7.9142   -1.2585   -1.9233 H   0  0  0  0  0  0  0  0  0  0  0  0
   -6.0684   -1.3498   -2.1301 H   0  0  0  0  0  0  0  0  0  0  0  0
   -8.6697   -0.4141    0.0751 H   0  0  0  0  0  0  0  0  0  0  0  0
   -8.7440    1.0781   -0.8637 H   0  0  0  0  0  0  0  0  0  0  0  0
   -7.9631    1.1789    0.7326 H   0  0  0  0  0  0  0  0  0  0  0  0
   -5.6273    1.8905   -1.6713 H   0  0  0  0  0  0  0  0  0  0  0  0
   -7.3921    1.7728   -2.0640 H   0  0  0  0  0  0  0  0  0  0  0  0
   -6.2362    0.7337   -2.8724 H   0  0  0  0  0  0  0  0  0  0  0  0
  1  2  1  0
  2  3  1  0
  3  4  2  0
  3  5  1  0
  5  6  1  0
  6  7  1  0
  7  8  2  0
  7  9  1  0
  9 10  1  0
 10 11  1  0
 11 12  1  0
 12 13  2  0
 13 14  1  0
 14 15  2  0
 15 16  1  0
 16 17  2  0
 10 18  1  0
 18 19  1  0
 18 20  1  0
 20 21  1  0
 21 22  1  0
 22 23  1  0
 23 24  2  0
 24 25  1  0
 25 26  2  0
 26 27  1  0
 27 28  2  0
 26 29  1  0
 29 30  2  0
 30 31  1  0
 31 32  2  0
 32 33  1  0
 33 34  2  0
 21 35  1  0
 35 36  1  0
 36 37  2  0
 36 38  1  0
 38 39  1  0
 39 40  1  0
 40 41  2  0
 40 42  1  0
 42 43  1  0
 38 44  1  0
 44 45  1  0
 44 46  1  0
 44 47  1  0
  6 48  1  0
 48 49  1  0
 48 50  1  0
 48 51  1  0
 17 12  1  0
 28 23  1  0
 34 29  1  0
  1 52  1  0
  1 53  1  0
  1 54  1  0
  5 55  1  0
  6 56  1  1
  9 57  1  0
 10 58  1  6
 11 59  1  0
 11 60  1  0
 13 61  1  0
 14 62  1  0
 15 63  1  0
 16 64  1  0
 17 65  1  0
 18 66  1  1
 19 67  1  0
 20 68  1  0
 20 69  1  0
 22 70  1  0
 22 71  1  0
 24 72  1  0
 25 73  1  0
 27 74  1  0
 28 75  1  0
 30 76  1  0
 31 77  1  0
 32 78  1  0
 33 79  1  0
 35 80  1  0
 38 81  1  6
 39 82  1  0
 43 83  1  0
 43 84  1  0
 43 85  1  0
 45 86  1  0
 45 87  1  0
 45 88  1  0
 46 89  1  0
 46 90  1  0
 46 91  1  0
 47 92  1  0
 47 93  1  0
 47 94  1  0
 49 95  1  0
 49 96  1  0
 49 97  1  0
 50 98  1  0
 50 99  1  0
 50100  1  0
 51101  1  0
 51102  1  0
 51103  1  0
M  END
$$$$
