@<TRIPOS>MOLECULE
*****
 56 58 0 0 0
SMALL
GASTEIGER

@<TRIPOS>ATOM
      1 C          -3.2589    1.8734   -2.6752 C.3     1  UNL1       -0.0277
      2 C          -2.8312    1.4785   -1.2916 C.3     1  UNL1        0.1009
      3 C          -3.7666    0.4623   -0.6725 C.3     1  UNL1       -0.0119
      4 C          -5.1780    1.0033   -0.5635 C.3     1  UNL1       -0.0243
      5 C          -6.0469   -0.0347    0.0489 C.ar    1  UNL1       -0.0470
      6 C          -6.7131   -0.9632   -0.7324 C.ar    1  UNL1       -0.0551
      7 C          -7.5284   -1.9422   -0.2056 C.ar    1  UNL1       -0.0199
      8 C          -7.6807   -1.9902    1.1642 C.ar    1  UNL1        0.1169
      9 O          -8.4989   -2.9648    1.7666 O.3     1  UNL1       -0.5068
     10 C          -7.0162   -1.0641    1.9430 C.ar    1  UNL1       -0.0199
     11 C          -6.2001   -0.0836    1.4197 C.ar    1  UNL1       -0.0551
     12 O          -1.5076    1.0477   -1.2012 O.3     1  UNL1       -0.4581
     13 C          -0.5247    1.6735   -0.4581 C.2     1  UNL1        0.3397
     14 O          -0.8436    2.6969    0.1775 O.2     1  UNL1       -0.2449
     15 C           0.8217    1.1142   -0.4526 C.ar    1  UNL1        0.0659
     16 C           1.1210   -0.0230   -1.1753 C.ar    1  UNL1       -0.0053
     17 C           2.3786   -0.5768   -1.1917 C.ar    1  UNL1        0.1320
     18 O           2.6319   -1.7250   -1.9362 O.3     1  UNL1       -0.5059
     19 C           3.4292   -0.0044   -0.4653 C.ar    1  UNL1        0.1050
     20 C           4.7563   -0.5471   -0.5905 C.2     1  UNL1        0.2044
     21 O           4.9651   -1.1957   -1.6940 O.2     1  UNL1       -0.2863
     22 C           5.8802   -0.4715    0.3070 C.ar    1  UNL1        0.0778
     23 C           7.1581   -0.2967   -0.2853 C.ar    1  UNL1        0.1285
     24 O           7.2087   -0.1878   -1.6832 O.3     1  UNL1       -0.5060
     25 C           8.2855   -0.2377    0.4775 C.ar    1  UNL1       -0.0194
     26 C           8.2087   -0.3469    1.8431 C.ar    1  UNL1       -0.0575
     27 C           6.9983   -0.5203    2.4566 C.ar    1  UNL1       -0.0468
     28 C           5.8325   -0.5851    1.6682 C.ar    1  UNL1        0.0731
     29 C           4.5991   -1.0031    2.3707 C.2     1  UNL1        0.3376
     30 O           4.6202   -0.9677    3.6371 O.2     1  UNL1       -0.2451
     31 O           3.4442   -1.4318    1.7824 O.3     1  UNL1       -0.4771
     32 C           3.1412    1.1404    0.2642 C.ar    1  UNL1        0.1320
     33 O           4.1649    1.7303    0.9858 O.3     1  UNL1       -0.5059
     34 C           1.8588    1.6710    0.2575 C.ar    1  UNL1       -0.0053
     35 H          -3.2133    1.0394   -3.3979 H       1  UNL1        0.0265
     36 H          -2.5566    2.6666   -3.0192 H       1  UNL1        0.0265
     37 H          -4.2522    2.3432   -2.6197 H       1  UNL1        0.0265
     38 H          -2.9168    2.4028   -0.6567 H       1  UNL1        0.0731
     39 H          -3.4282    0.2157    0.3538 H       1  UNL1        0.0304
     40 H          -3.7362   -0.4686   -1.2740 H       1  UNL1        0.0304
     41 H          -5.1783    1.8674    0.1313 H       1  UNL1        0.0314
     42 H          -5.6118    1.2609   -1.5372 H       1  UNL1        0.0314
     43 H          -6.5561   -0.8780   -1.8075 H       1  UNL1        0.0621
     44 H          -8.0269   -2.6439   -0.8553 H       1  UNL1        0.0654
     45 H          -9.2225   -3.3849    1.1633 H       1  UNL1        0.2921
     46 H          -7.1627   -1.1350    3.0269 H       1  UNL1        0.0654
     47 H          -5.6893    0.6341    2.0737 H       1  UNL1        0.0621
     48 H           0.3513   -0.5097   -1.7556 H       1  UNL1        0.0662
     49 H           2.6964   -1.6988   -2.9500 H       1  UNL1        0.2922
     50 H           6.6048    0.4729   -2.1526 H       1  UNL1        0.2922
     51 H           9.2342   -0.1033   -0.0243 H       1  UNL1        0.0654
     52 H           9.1030   -0.2996    2.4810 H       1  UNL1        0.0619
     53 H           6.9325   -0.6073    3.5423 H       1  UNL1        0.0626
     54 H           3.0233   -2.3003    2.1426 H       1  UNL1        0.2954
     55 H           4.0141    1.8460    1.9814 H       1  UNL1        0.2922
     56 H           1.6820    2.5523    0.8341 H       1  UNL1        0.0662
@<TRIPOS>BOND
     1     1     2    1
     2     2     3    1
     3     3     4    1
     4     4     5    1
     5     5     6   ar
     6     6     7   ar
     7     7     8   ar
     8     8     9    1
     9     8    10   ar
    10    10    11   ar
    11     2    12    1
    12    12    13    1
    13    13    14    2
    14    13    15    1
    15    15    16   ar
    16    16    17   ar
    17    17    18    1
    18    17    19   ar
    19    19    20    1
    20    20    21    2
    21    20    22    1
    22    22    23   ar
    23    23    24    1
    24    23    25   ar
    25    25    26   ar
    26    26    27   ar
    27    27    28   ar
    28    28    29    1
    29    29    30    2
    30    29    31    1
    31    19    32   ar
    32    32    33    1
    33    32    34   ar
    34    11     5   ar
    35    34    15   ar
    36    28    22   ar
    37     1    35    1
    38     1    36    1
    39     1    37    1
    40     2    38    1
    41     3    39    1
    42     3    40    1
    43     4    41    1
    44     4    42    1
    45     6    43    1
    46     7    44    1
    47     9    45    1
    48    10    46    1
    49    11    47    1
    50    16    48    1
    51    18    49    1
    52    24    50    1
    53    25    51    1
    54    26    52    1
    55    27    53    1
    56    31    54    1
    57    33    55    1
    58    34    56    1
