@<TRIPOS>MOLECULE
*****
 39 43 0 0 0
SMALL
GASTEIGER

@<TRIPOS>ATOM
      1 N           2.6002   -3.0839   -0.5834 N.1     1  UNL1       -0.1908
      2 C           3.1332   -2.1372   -0.1828 C.1     1  UNL1        0.0999
      3 C           3.8249   -0.9597    0.3171 C.ar    1  UNL1        0.0636
      4 C           5.1695   -0.9860    0.5821 C.ar    1  UNL1       -0.0436
      5 C           5.8605    0.1076    1.0548 C.ar    1  UNL1       -0.0593
      6 C           5.1470    1.2638    1.2620 C.ar    1  UNL1       -0.0436
      7 C           3.7799    1.2846    0.9913 C.ar    1  UNL1        0.0636
      8 C           3.1059    2.5259    1.2674 C.1     1  UNL1        0.0999
      9 N           2.5753    3.5461    1.4921 N.1     1  UNL1       -0.1908
     10 C           3.0920    0.2094    0.5237 C.ar    1  UNL1        0.0519
     11 C           1.6480    0.1745    0.2374 C.ar    1  UNL1        0.1418
     12 N           0.9689   -0.9792   -0.0567 N.ar    1  UNL1       -0.2270
     13 C          -0.3302   -0.7126   -0.2441 C.ar    1  UNL1        0.0977
     14 C          -1.4390   -1.4781   -0.5543 C.ar    1  UNL1        0.0102
     15 C          -1.2479   -2.8375   -0.7267 C.ar    1  UNL1       -0.0519
     16 C          -2.3443   -3.6220   -1.0377 C.ar    1  UNL1       -0.0611
     17 C          -3.6072   -3.0717   -1.1757 C.ar    1  UNL1       -0.0611
     18 C          -3.7823   -1.6964   -0.9980 C.ar    1  UNL1       -0.0534
     19 C          -2.6902   -0.9177   -0.6886 C.ar    1  UNL1       -0.0080
     20 C          -2.8481    0.4390   -0.5108 C.ar    1  UNL1       -0.0067
     21 C          -4.0821    1.0321   -0.6374 C.ar    1  UNL1       -0.0350
     22 C          -4.2396    2.4121   -0.4561 C.ar    1  UNL1        0.0416
     23 CL         -5.8057    3.1724   -0.6154 Cl      1  UNL1       -0.0835
     24 C          -3.1525    3.1992   -0.1465 C.ar    1  UNL1       -0.0427
     25 C          -1.9173    2.5897   -0.0222 C.ar    1  UNL1       -0.0506
     26 C          -1.7451    1.2391   -0.1964 C.ar    1  UNL1        0.0082
     27 C          -0.5174    0.6364   -0.0726 C.ar    1  UNL1        0.0749
     28 N           0.7305    1.1283    0.2204 N.ar    1  UNL1       -0.3373
     29 H           5.7194   -1.9125    0.4121 H       1  UNL1        0.0631
     30 H           6.9186    0.1093    1.2698 H       1  UNL1        0.0618
     31 H           5.6361    2.1596    1.6336 H       1  UNL1        0.0631
     32 H          -0.2575   -3.2441   -0.6147 H       1  UNL1        0.0624
     33 H          -2.2160   -4.6934   -1.1775 H       1  UNL1        0.0618
     34 H          -4.4409   -3.7076   -1.4181 H       1  UNL1        0.0618
     35 H          -4.7878   -1.3485   -1.1214 H       1  UNL1        0.0624
     36 H          -4.9910    0.5153   -0.8749 H       1  UNL1        0.0638
     37 H          -3.2319    4.2639    0.0007 H       1  UNL1        0.0632
     38 H          -1.0831    3.2322    0.2211 H       1  UNL1        0.0625
     39 H           0.8474    2.1479    0.3826 H       1  UNL1        0.1674
@<TRIPOS>BOND
     1     1     2    3
     2     2     3    1
     3     3     4   ar
     4     4     5   ar
     5     5     6   ar
     6     6     7   ar
     7     7     8    1
     8     8     9    3
     9     7    10   ar
    10    10    11    1
    11    11    12   ar
    12    12    13   ar
    13    13    14   ar
    14    14    15   ar
    15    15    16   ar
    16    16    17   ar
    17    17    18   ar
    18    18    19   ar
    19    19    20   ar
    20    20    21   ar
    21    21    22   ar
    22    22    23    1
    23    22    24   ar
    24    24    25   ar
    25    25    26   ar
    26    26    27   ar
    27    27    28   ar
    28    10     3   ar
    29    28    11   ar
    30    27    13   ar
    31    19    14   ar
    32    26    20   ar
    33     4    29    1
    34     5    30    1
    35     6    31    1
    36    15    32    1
    37    16    33    1
    38    17    34    1
    39    18    35    1
    40    21    36    1
    41    24    37    1
    42    25    38    1
    43    28    39    1
