
     RDKit          3D

 77 81  0  0  0  0  0  0  0  0999 V2000
   10.9584    0.6330    2.3142 C   0  0  0  0  0  0  0  0  0  0  0  0
    9.7590   -0.1504    2.3620 O   0  0  0  0  0  0  0  0  0  0  0  0
    8.7627    0.0254    1.4126 C   0  0  0  0  0  0  0  0  0  0  0  0
    8.8188    0.9294    0.3726 C   0  0  0  0  0  0  0  0  0  0  0  0
    7.7491    0.9906   -0.4942 C   0  0  0  0  0  0  0  0  0  0  0  0
    6.6234    0.2015   -0.3851 C   0  0  0  0  0  0  0  0  0  0  0  0
    6.5533   -0.7170    0.6618 C   0  0  0  0  0  0  0  0  0  0  0  0
    7.6376   -0.7819    1.5440 C   0  0  0  0  0  0  0  0  0  0  0  0
    7.5565   -1.7076    2.5915 O   0  0  0  0  0  0  0  0  0  0  0  0
    5.4587    0.2206   -1.2726 C   0  0  2  0  0  0  0  0  0  0  0  0
    5.4243    1.3573   -2.2487 C   0  0  0  0  0  0  0  0  0  0  0  0
    4.3323    1.0358   -3.2354 C   0  0  0  0  0  0  0  0  0  0  0  0
    4.4488    1.1577   -4.4888 O   0  0  0  0  0  0  0  0  0  0  0  0
    3.0884    0.5563   -2.6012 C   0  0  0  0  0  0  0  0  0  0  0  0
    3.0612    0.1547   -1.2811 C   0  0  0  0  0  0  0  0  0  0  0  0
    4.2304    0.2039   -0.5361 O   0  0  0  0  0  0  0  0  0  0  0  0
    1.8451   -0.2881   -0.7480 C   0  0  0  0  0  0  0  0  0  0  0  0
    0.6784   -0.3284   -1.5206 C   0  0  0  0  0  0  0  0  0  0  0  0
   -0.3736   -0.7933   -0.7861 O   0  0  0  0  0  0  0  0  0  0  0  0
   -1.6902   -0.9717   -1.2040 C   0  0  2  0  0  0  0  0  0  0  0  0
   -2.5913   -0.1896   -0.5295 O   0  0  0  0  0  0  0  0  0  0  0  0
   -3.0421   -0.6717    0.6702 C   0  0  2  0  0  0  0  0  0  0  0  0
   -3.0694    0.4977    1.6382 C   0  0  0  0  0  0  0  0  0  0  0  0
   -3.8867    1.5252    1.2369 O   0  0  0  0  0  0  0  0  0  0  0  0
   -5.2257    1.1939    1.0872 C   0  0  2  0  0  0  0  0  0  0  0  0
   -5.6054    1.5491   -0.2037 O   0  0  0  0  0  0  0  0  0  0  0  0
   -6.8922    1.1190   -0.5062 C   0  0  1  0  0  0  0  0  0  0  0  0
   -6.7597   -0.2338   -1.1813 C   0  0  0  0  0  0  0  0  0  0  0  0
   -7.7291    0.9127    0.7327 C   0  0  2  0  0  0  0  0  0  0  0  0
   -9.0750    1.1040    0.3413 O   0  0  0  0  0  0  0  0  0  0  0  0
   -7.4486    1.8958    1.8118 C   0  0  1  0  0  0  0  0  0  0  0  0
   -8.0357    1.3770    2.9895 O   0  0  0  0  0  0  0  0  0  0  0  0
   -5.9921    2.0587    2.0605 C   0  0  1  0  0  0  0  0  0  0  0  0
   -5.6402    1.6859    3.3562 O   0  0  0  0  0  0  0  0  0  0  0  0
   -2.1688   -1.7569    1.2613 C   0  0  1  0  0  0  0  0  0  0  0  0
   -2.8180   -2.2434    2.3946 O   0  0  0  0  0  0  0  0  0  0  0  0
   -1.9693   -2.8872    0.3052 C   0  0  2  0  0  0  0  0  0  0  0  0
   -0.7414   -3.4944    0.5024 O   0  0  0  0  0  0  0  0  0  0  0  0
   -2.1337   -2.4172   -1.1379 C   0  0  1  0  0  0  0  0  0  0  0  0
   -3.4982   -2.4259   -1.4440 O   0  0  0  0  0  0  0  0  0  0  0  0
    0.7644    0.0846   -2.8327 C   0  0  0  0  0  0  0  0  0  0  0  0
    1.9512    0.5241   -3.3779 C   0  0  0  0  0  0  0  0  0  0  0  0
    1.9365    0.9213   -4.7157 O   0  0  0  0  0  0  0  0  0  0  0  0
   10.6957    1.6128    2.7943 H   0  0  0  0  0  0  0  0  0  0  0  0
   11.3038    0.7962    1.2678 H   0  0  0  0  0  0  0  0  0  0  0  0
   11.7436    0.2038    2.9437 H   0  0  0  0  0  0  0  0  0  0  0  0
    9.6910    1.5496    0.2770 H   0  0  0  0  0  0  0  0  0  0  0  0
    7.7787    1.6921   -1.3116 H   0  0  0  0  0  0  0  0  0  0  0  0
    5.6902   -1.3755    0.8093 H   0  0  0  0  0  0  0  0  0  0  0  0
    7.7236   -1.4330    3.5429 H   0  0  0  0  0  0  0  0  0  0  0  0
    5.4789   -0.7144   -1.8688 H   0  0  0  0  0  0  0  0  0  0  0  0
    6.3976    1.4124   -2.7843 H   0  0  0  0  0  0  0  0  0  0  0  0
    5.2466    2.3391   -1.7568 H   0  0  0  0  0  0  0  0  0  0  0  0
    1.9297   -0.5851    0.3100 H   0  0  0  0  0  0  0  0  0  0  0  0
   -1.7536   -0.6559   -2.2795 H   0  0  0  0  0  0  0  0  0  0  0  0
   -4.0575   -1.0692    0.5250 H   0  0  0  0  0  0  0  0  0  0  0  0
   -2.0608    0.9237    1.7857 H   0  0  0  0  0  0  0  0  0  0  0  0
   -3.3804    0.1272    2.6521 H   0  0  0  0  0  0  0  0  0  0  0  0
   -5.4672    0.1428    1.3176 H   0  0  0  0  0  0  0  0  0  0  0  0
   -7.4144    1.8095   -1.1866 H   0  0  0  0  0  0  0  0  0  0  0  0
   -5.7637   -0.3746   -1.6709 H   0  0  0  0  0  0  0  0  0  0  0  0
   -7.6065   -0.4726   -1.8476 H   0  0  0  0  0  0  0  0  0  0  0  0
   -6.7571   -1.0128   -0.3637 H   0  0  0  0  0  0  0  0  0  0  0  0
   -7.6540   -0.1423    1.0629 H   0  0  0  0  0  0  0  0  0  0  0  0
   -9.1708    1.1889   -0.6389 H   0  0  0  0  0  0  0  0  0  0  0  0
   -7.9457    2.8766    1.6628 H   0  0  0  0  0  0  0  0  0  0  0  0
   -8.9363    1.0029    2.8051 H   0  0  0  0  0  0  0  0  0  0  0  0
   -5.7059    3.1282    1.9660 H   0  0  0  0  0  0  0  0  0  0  0  0
   -5.3077    2.4160    3.9157 H   0  0  0  0  0  0  0  0  0  0  0  0
   -1.2046   -1.3162    1.6474 H   0  0  0  0  0  0  0  0  0  0  0  0
   -2.6479   -3.2149    2.5465 H   0  0  0  0  0  0  0  0  0  0  0  0
   -2.7347   -3.6622    0.5098 H   0  0  0  0  0  0  0  0  0  0  0  0
   -0.0805   -2.9834   -0.0272 H   0  0  0  0  0  0  0  0  0  0  0  0
   -1.6470   -3.0717   -1.8678 H   0  0  0  0  0  0  0  0  0  0  0  0
   -3.8948   -3.3165   -1.2259 H   0  0  0  0  0  0  0  0  0  0  0  0
   -0.1726    0.0218   -3.3525 H   0  0  0  0  0  0  0  0  0  0  0  0
    2.4318    0.2996   -5.3738 H   0  0  0  0  0  0  0  0  0  0  0  0
  1  2  1  0
  2  3  1  0
  3  4  2  0
  4  5  1  0
  5  6  2  0
  6  7  1  0
  7  8  2  0
  8  9  1  0
  6 10  1  0
 10 11  1  0
 11 12  1  0
 12 13  2  0
 12 14  1  0
 14 15  2  0
 15 16  1  0
 15 17  1  0
 17 18  2  0
 18 19  1  0
 19 20  1  0
 20 21  1  0
 21 22  1  0
 22 23  1  0
 23 24  1  0
 24 25  1  0
 25 26  1  0
 26 27  1  0
 27 28  1  0
 27 29  1  0
 29 30  1  0
 29 31  1  0
 31 32  1  0
 31 33  1  0
 33 34  1  0
 22 35  1  0
 35 36  1  0
 35 37  1  0
 37 38  1  0
 37 39  1  0
 39 40  1  0
 18 41  1  0
 41 42  2  0
 42 43  1  0
  8  3  1  0
 16 10  1  0
 39 20  1  0
 42 14  1  0
 33 25  1  0
  1 44  1  0
  1 45  1  0
  1 46  1  0
  4 47  1  0
  5 48  1  0
  7 49  1  0
  9 50  1  0
 10 51  1  6
 11 52  1  0
 11 53  1  0
 17 54  1  0
 20 55  1  6
 22 56  1  6
 23 57  1  0
 23 58  1  0
 25 59  1  1
 27 60  1  6
 28 61  1  0
 28 62  1  0
 28 63  1  0
 29 64  1  1
 30 65  1  0
 31 66  1  6
 32 67  1  0
 33 68  1  6
 34 69  1  0
 35 70  1  1
 36 71  1  0
 37 72  1  1
 38 73  1  0
 39 74  1  6
 40 75  1  0
 41 76  1  0
 43 77  1  0
M  END
$$$$
