@<TRIPOS>MOLECULE
*****
 77 81 0 0 0
SMALL
GASTEIGER

@<TRIPOS>ATOM
      1 C          10.9584    0.6330    2.3142 C.3     1  UNL1        0.0790
      2 O           9.7590   -0.1504    2.3620 O.3     1  UNL1       -0.4915
      3 C           8.7627    0.0254    1.4126 C.ar    1  UNL1        0.1613
      4 C           8.8188    0.9294    0.3726 C.ar    1  UNL1       -0.0159
      5 C           7.7491    0.9906   -0.4942 C.ar    1  UNL1       -0.0514
      6 C           6.6234    0.2015   -0.3851 C.ar    1  UNL1       -0.0033
      7 C           6.5533   -0.7170    0.6618 C.ar    1  UNL1       -0.0098
      8 C           7.6376   -0.7819    1.5440 C.ar    1  UNL1        0.1588
      9 O           7.5565   -1.7076    2.5915 O.3     1  UNL1       -0.5033
     10 C           5.4587    0.2206   -1.2726 C.3     1  UNL1        0.1323
     11 C           5.4243    1.3573   -2.2487 C.3     1  UNL1        0.0520
     12 C           4.3323    1.0358   -3.2354 C.2     1  UNL1        0.1740
     13 O           4.4488    1.1577   -4.4888 O.2     1  UNL1       -0.2917
     14 C           3.0884    0.5563   -2.6012 C.ar    1  UNL1        0.1007
     15 C           3.0612    0.1547   -1.2811 C.ar    1  UNL1        0.1389
     16 O           4.2304    0.2039   -0.5361 O.3     1  UNL1       -0.4828
     17 C           1.8451   -0.2881   -0.7480 C.ar    1  UNL1        0.0229
     18 C           0.6784   -0.3284   -1.5206 C.ar    1  UNL1        0.1310
     19 O          -0.3736   -0.7933   -0.7861 O.3     1  UNL1       -0.4606
     20 C          -1.6902   -0.9717   -1.2040 C.3     1  UNL1        0.2308
     21 O          -2.5913   -0.1896   -0.5295 O.3     1  UNL1       -0.3313
     22 C          -3.0421   -0.6717    0.6702 C.3     1  UNL1        0.1144
     23 C          -3.0694    0.4977    1.6382 C.3     1  UNL1        0.0796
     24 O          -3.8867    1.5252    1.2369 O.3     1  UNL1       -0.3461
     25 C          -5.2257    1.1939    1.0872 C.3     1  UNL1        0.1879
     26 O          -5.6054    1.5491   -0.2037 O.3     1  UNL1       -0.3431
     27 C          -6.8922    1.1190   -0.5062 C.3     1  UNL1        0.0873
     28 C          -6.7597   -0.2338   -1.1813 C.3     1  UNL1       -0.0361
     29 C          -7.7291    0.9127    0.7327 C.3     1  UNL1        0.1095
     30 O          -9.0750    1.1040    0.3413 O.3     1  UNL1       -0.3866
     31 C          -7.4486    1.8958    1.8118 C.3     1  UNL1        0.1140
     32 O          -8.0357    1.3770    2.9895 O.3     1  UNL1       -0.3864
     33 C          -5.9921    2.0587    2.0605 C.3     1  UNL1        0.1341
     34 O          -5.6402    1.6859    3.3562 O.3     1  UNL1       -0.3841
     35 C          -2.1688   -1.7569    1.2613 C.3     1  UNL1        0.1120
     36 O          -2.8180   -2.2434    2.3946 O.3     1  UNL1       -0.3865
     37 C          -1.9693   -2.8872    0.3052 C.3     1  UNL1        0.1152
     38 O          -0.7414   -3.4944    0.5024 O.3     1  UNL1       -0.3864
     39 C          -2.1337   -2.4172   -1.1379 C.3     1  UNL1        0.1454
     40 O          -3.4982   -2.4259   -1.4440 O.3     1  UNL1       -0.3829
     41 C           0.7644    0.0846   -2.8327 C.ar    1  UNL1        0.0226
     42 C           1.9512    0.5241   -3.3779 C.ar    1  UNL1        0.1343
     43 O           1.9365    0.9213   -4.7157 O.3     1  UNL1       -0.5058
     44 H          10.6957    1.6128    2.7943 H       1  UNL1        0.0660
     45 H          11.3038    0.7962    1.2678 H       1  UNL1        0.0660
     46 H          11.7436    0.2038    2.9437 H       1  UNL1        0.0660
     47 H           9.6910    1.5496    0.2770 H       1  UNL1        0.0655
     48 H           7.7787    1.6921   -1.3116 H       1  UNL1        0.0623
     49 H           5.6902   -1.3755    0.8093 H       1  UNL1        0.0659
     50 H           7.7236   -1.4330    3.5429 H       1  UNL1        0.2923
     51 H           5.4789   -0.7144   -1.8688 H       1  UNL1        0.0789
     52 H           6.3976    1.4124   -2.7843 H       1  UNL1        0.0385
     53 H           5.2466    2.3391   -1.7568 H       1  UNL1        0.0385
     54 H           1.9297   -0.5851    0.3100 H       1  UNL1        0.0691
     55 H          -1.7536   -0.6559   -2.2795 H       1  UNL1        0.1084
     56 H          -4.0575   -1.0692    0.5250 H       1  UNL1        0.0647
     57 H          -2.0608    0.9237    1.7857 H       1  UNL1        0.0587
     58 H          -3.3804    0.1272    2.6521 H       1  UNL1        0.0587
     59 H          -5.4672    0.1428    1.3176 H       1  UNL1        0.0937
     60 H          -7.4144    1.8095   -1.1866 H       1  UNL1        0.0621
     61 H          -5.7637   -0.3746   -1.6709 H       1  UNL1        0.0255
     62 H          -7.6065   -0.4726   -1.8476 H       1  UNL1        0.0255
     63 H          -6.7571   -1.0128   -0.3637 H       1  UNL1        0.0255
     64 H          -7.6540   -0.1423    1.0629 H       1  UNL1        0.0646
     65 H          -9.1708    1.1889   -0.6389 H       1  UNL1        0.2100
     66 H          -7.9457    2.8766    1.6628 H       1  UNL1        0.0648
     67 H          -8.9363    1.0029    2.8051 H       1  UNL1        0.2100
     68 H          -5.7059    3.1282    1.9660 H       1  UNL1        0.0671
     69 H          -5.3077    2.4160    3.9157 H       1  UNL1        0.2101
     70 H          -1.2046   -1.3162    1.6474 H       1  UNL1        0.0647
     71 H          -2.6479   -3.2149    2.5465 H       1  UNL1        0.2100
     72 H          -2.7347   -3.6622    0.5098 H       1  UNL1        0.0648
     73 H          -0.0805   -2.9834   -0.0272 H       1  UNL1        0.2100
     74 H          -1.6470   -3.0717   -1.8678 H       1  UNL1        0.0683
     75 H          -3.8948   -3.3165   -1.2259 H       1  UNL1        0.2102
     76 H          -0.1726    0.0218   -3.3525 H       1  UNL1        0.0691
     77 H           2.4318    0.2996   -5.3738 H       1  UNL1        0.2922
@<TRIPOS>BOND
     1     1     2    1
     2     2     3    1
     3     3     4   ar
     4     4     5   ar
     5     5     6   ar
     6     6     7   ar
     7     7     8   ar
     8     8     9    1
     9     6    10    1
    10    10    11    1
    11    11    12    1
    12    12    13    2
    13    12    14    1
    14    14    15   ar
    15    15    16    1
    16    15    17   ar
    17    17    18   ar
    18    18    19    1
    19    19    20    1
    20    20    21    1
    21    21    22    1
    22    22    23    1
    23    23    24    1
    24    24    25    1
    25    25    26    1
    26    26    27    1
    27    27    28    1
    28    27    29    1
    29    29    30    1
    30    29    31    1
    31    31    32    1
    32    31    33    1
    33    33    34    1
    34    22    35    1
    35    35    36    1
    36    35    37    1
    37    37    38    1
    38    37    39    1
    39    39    40    1
    40    18    41   ar
    41    41    42   ar
    42    42    43    1
    43     8     3   ar
    44    16    10    1
    45    39    20    1
    46    42    14   ar
    47    33    25    1
    48     1    44    1
    49     1    45    1
    50     1    46    1
    51     4    47    1
    52     5    48    1
    53     7    49    1
    54     9    50    1
    55    10    51    1
    56    11    52    1
    57    11    53    1
    58    17    54    1
    59    20    55    1
    60    22    56    1
    61    23    57    1
    62    23    58    1
    63    25    59    1
    64    27    60    1
    65    28    61    1
    66    28    62    1
    67    28    63    1
    68    29    64    1
    69    30    65    1
    70    31    66    1
    71    32    67    1
    72    33    68    1
    73    34    69    1
    74    35    70    1
    75    36    71    1
    76    37    72    1
    77    38    73    1
    78    39    74    1
    79    40    75    1
    80    41    76    1
    81    43    77    1
