
     RDKit          3D

 52 56  0  0  0  0  0  0  0  0999 V2000
   -2.4138   -1.2174   -2.5257 O   0  0  0  0  0  0  0  0  0  0  0  0
   -1.8574   -0.6659   -1.4965 C   0  0  0  0  0  0  0  0  0  0  0  0
   -0.4147   -0.5144   -1.6073 C   0  0  0  0  0  0  0  0  0  0  0  0
    0.3274    0.0714   -0.4209 C   0  0  0  0  0  0  0  0  0  0  0  0
   -0.2123    1.3950   -0.2083 C   0  0  0  0  0  0  0  0  0  0  0  0
   -0.9683    2.0013   -1.1961 C   0  0  0  0  0  0  0  0  0  0  0  0
   -1.5327    3.2659   -1.0823 C   0  0  0  0  0  0  0  0  0  0  0  0
   -1.3237    3.9563    0.0902 C   0  0  0  0  0  0  0  0  0  0  0  0
   -0.5762    3.3752    1.0860 C   0  0  0  0  0  0  0  0  0  0  0  0
   -0.0295    2.1362    0.9612 C   0  0  0  0  0  0  0  0  0  0  0  0
    0.4601   -0.9540    0.5846 C   0  0  0  0  0  0  0  0  0  0  0  0
    1.1275   -2.2112   -0.0254 C   0  0  0  0  0  0  0  0  0  0  0  0
    2.4990   -1.8993   -0.5461 C   0  0  0  0  0  0  0  0  0  0  0  0
    2.3814   -0.8307   -1.5743 C   0  0  0  0  0  0  0  0  0  0  0  0
    1.7654    0.3715   -0.9428 C   0  0  0  0  0  0  0  0  0  0  0  0
    2.6367    0.7911    0.2037 C   0  0  0  0  0  0  0  0  0  0  0  0
    2.6816   -0.2455    1.3027 C   0  0  0  0  0  0  0  0  0  0  0  0
    1.3688   -0.7323    1.7756 C   0  0  0  0  0  0  0  0  0  0  0  0
    3.3752   -1.4493    0.6274 C   0  0  0  0  0  0  0  0  0  0  0  0
    4.6186   -1.0988    0.1400 O   0  0  0  0  0  0  0  0  0  0  0  0
   -2.7484   -0.3178   -0.4671 N   0  0  0  0  0  0  0  0  0  0  0  0
   -2.8678    0.2789    0.8459 C   0  0  0  0  0  0  0  0  0  0  0  0
   -4.0018   -0.7111    1.1189 C   0  0  0  0  0  0  0  0  0  0  0  0
   -3.5126   -1.9611    1.3916 O   0  0  0  0  0  0  0  0  0  0  0  0
   -4.2402   -0.4850   -0.3396 C   0  0  0  0  0  0  0  0  0  0  0  0
   -0.0685    0.0472   -2.5245 H   0  0  0  0  0  0  0  0  0  0  0  0
   -0.0713   -1.5529   -1.8437 H   0  0  0  0  0  0  0  0  0  0  0  0
   -1.1983    1.5454   -2.1742 H   0  0  0  0  0  0  0  0  0  0  0  0
   -2.1206    3.7286   -1.8595 H   0  0  0  0  0  0  0  0  0  0  0  0
   -1.7153    4.9354    0.2758 H   0  0  0  0  0  0  0  0  0  0  0  0
   -0.3904    3.8986    2.0336 H   0  0  0  0  0  0  0  0  0  0  0  0
    0.5536    1.6646    1.7223 H   0  0  0  0  0  0  0  0  0  0  0  0
   -0.4846   -1.3800    1.0173 H   0  0  0  0  0  0  0  0  0  0  0  0
    0.5046   -2.8553   -0.6000 H   0  0  0  0  0  0  0  0  0  0  0  0
    1.3522   -2.8773    0.8863 H   0  0  0  0  0  0  0  0  0  0  0  0
    2.9337   -2.8336   -0.9134 H   0  0  0  0  0  0  0  0  0  0  0  0
    3.4089   -0.5361   -1.8758 H   0  0  0  0  0  0  0  0  0  0  0  0
    1.8801   -1.1845   -2.4804 H   0  0  0  0  0  0  0  0  0  0  0  0
    1.7115    1.2031   -1.6551 H   0  0  0  0  0  0  0  0  0  0  0  0
    2.5486    1.8227    0.5285 H   0  0  0  0  0  0  0  0  0  0  0  0
    3.6903    0.7530   -0.2404 H   0  0  0  0  0  0  0  0  0  0  0  0
    3.3484    0.1345    2.0890 H   0  0  0  0  0  0  0  0  0  0  0  0
    1.6085   -1.7822    2.1964 H   0  0  0  0  0  0  0  0  0  0  0  0
    0.9253   -0.3294    2.6710 H   0  0  0  0  0  0  0  0  0  0  0  0
    3.3729   -2.2559    1.3574 H   0  0  0  0  0  0  0  0  0  0  0  0
    5.1930   -1.9257    0.2214 H   0  0  0  0  0  0  0  0  0  0  0  0
   -2.0979    0.1309    1.5807 H   0  0  0  0  0  0  0  0  0  0  0  0
   -3.3334    1.2964    0.8270 H   0  0  0  0  0  0  0  0  0  0  0  0
   -4.8202   -0.3327    1.7210 H   0  0  0  0  0  0  0  0  0  0  0  0
   -3.9128   -2.6937    0.8947 H   0  0  0  0  0  0  0  0  0  0  0  0
   -4.5742   -1.3757   -0.9080 H   0  0  0  0  0  0  0  0  0  0  0  0
   -4.7865    0.4056   -0.6428 H   0  0  0  0  0  0  0  0  0  0  0  0
  1  2  2  0
  2  3  1  0
  3  4  1  0
  4  5  1  0
  5  6  2  0
  6  7  1  0
  7  8  2  0
  8  9  1  0
  9 10  2  0
  4 11  1  0
 11 12  1  0
 12 13  1  0
 13 14  1  0
 14 15  1  0
 15 16  1  0
 16 17  1  0
 17 18  1  0
 17 19  1  0
 19 20  1  0
  2 21  1  0
 21 22  1  0
 22 23  1  0
 23 24  1  0
 23 25  1  0
 15  4  1  0
 25 21  1  0
 10  5  1  0
 18 11  1  0
 19 13  1  0
  3 26  1  0
  3 27  1  0
  6 28  1  0
  7 29  1  0
  8 30  1  0
  9 31  1  0
 10 32  1  0
 11 33  1  0
 12 34  1  0
 12 35  1  0
 13 36  1  0
 14 37  1  0
 14 38  1  0
 15 39  1  0
 16 40  1  0
 16 41  1  0
 17 42  1  0
 18 43  1  0
 18 44  1  0
 19 45  1  0
 20 46  1  0
 22 47  1  0
 22 48  1  0
 23 49  1  0
 24 50  1  0
 25 51  1  0
 25 52  1  0
M  END
$$$$
