@<TRIPOS>MOLECULE
*****
 52 56 0 0 0
SMALL
GASTEIGER

@<TRIPOS>ATOM
      1 O          -2.4138   -1.2174   -2.5257 O.2     1  UNL1       -0.2756
      2 C          -1.8574   -0.6659   -1.4965 C.2     1  UNL1        0.2166
      3 C          -0.4147   -0.5144   -1.6073 C.3     1  UNL1        0.0343
      4 C           0.3274    0.0714   -0.4209 C.3     1  UNL1        0.0097
      5 C          -0.2123    1.3950   -0.2083 C.ar    1  UNL1       -0.0402
      6 C          -0.9683    2.0013   -1.1961 C.ar    1  UNL1       -0.0580
      7 C          -1.5327    3.2659   -1.0823 C.ar    1  UNL1       -0.0615
      8 C          -1.3237    3.9563    0.0902 C.ar    1  UNL1       -0.0617
      9 C          -0.5762    3.3752    1.0860 C.ar    1  UNL1       -0.0615
     10 C          -0.0295    2.1362    0.9612 C.ar    1  UNL1       -0.0580
     11 C           0.4601   -0.9540    0.5846 C.3     1  UNL1       -0.0300
     12 C           1.1275   -2.2112   -0.0254 C.3     1  UNL1       -0.0442
     13 C           2.4990   -1.8993   -0.5461 C.3     1  UNL1       -0.0141
     14 C           2.3814   -0.8307   -1.5743 C.3     1  UNL1       -0.0442
     15 C           1.7654    0.3715   -0.9428 C.3     1  UNL1       -0.0300
     16 C           2.6367    0.7911    0.2037 C.3     1  UNL1       -0.0442
     17 C           2.6816   -0.2455    1.3027 C.3     1  UNL1       -0.0141
     18 C           1.3688   -0.7323    1.7756 C.3     1  UNL1       -0.0442
     19 C           3.3752   -1.4493    0.6274 C.3     1  UNL1        0.0609
     20 O           4.6186   -1.0988    0.1400 O.3     1  UNL1       -0.3912
     21 N          -2.7484   -0.3178   -0.4671 N.am    1  UNL1       -0.2964
     22 C          -2.8678    0.2789    0.8459 C.3     1  UNL1        0.0422
     23 C          -4.0018   -0.7111    1.1189 C.3     1  UNL1        0.0866
     24 O          -3.5126   -1.9611    1.3916 O.3     1  UNL1       -0.3887
     25 C          -4.2402   -0.4850   -0.3396 C.3     1  UNL1        0.0422
     26 H          -0.0685    0.0472   -2.5245 H       1  UNL1        0.0367
     27 H          -0.0713   -1.5529   -1.8437 H       1  UNL1        0.0367
     28 H          -1.1983    1.5454   -2.1742 H       1  UNL1        0.0620
     29 H          -2.1206    3.7286   -1.8595 H       1  UNL1        0.0618
     30 H          -1.7153    4.9354    0.2758 H       1  UNL1        0.0618
     31 H          -0.3904    3.8986    2.0336 H       1  UNL1        0.0618
     32 H           0.5536    1.6646    1.7223 H       1  UNL1        0.0620
     33 H          -0.4846   -1.3800    1.0173 H       1  UNL1        0.0310
     34 H           0.5046   -2.8553   -0.6000 H       1  UNL1        0.0272
     35 H           1.3522   -2.8773    0.8863 H       1  UNL1        0.0272
     36 H           2.9337   -2.8336   -0.9134 H       1  UNL1        0.0326
     37 H           3.4089   -0.5361   -1.8758 H       1  UNL1        0.0272
     38 H           1.8801   -1.1845   -2.4804 H       1  UNL1        0.0272
     39 H           1.7115    1.2031   -1.6551 H       1  UNL1        0.0310
     40 H           2.5486    1.8227    0.5285 H       1  UNL1        0.0272
     41 H           3.6903    0.7530   -0.2404 H       1  UNL1        0.0272
     42 H           3.3484    0.1345    2.0890 H       1  UNL1        0.0326
     43 H           1.6085   -1.7822    2.1964 H       1  UNL1        0.0272
     44 H           0.9253   -0.3294    2.6710 H       1  UNL1        0.0272
     45 H           3.3729   -2.2559    1.3574 H       1  UNL1        0.0599
     46 H           5.1930   -1.9257    0.2214 H       1  UNL1        0.2098
     47 H          -2.0979    0.1309    1.5807 H       1  UNL1        0.0490
     48 H          -3.3334    1.2964    0.8270 H       1  UNL1        0.0490
     49 H          -4.8202   -0.3327    1.7210 H       1  UNL1        0.0625
     50 H          -3.9128   -2.6937    0.8947 H       1  UNL1        0.2099
     51 H          -4.5742   -1.3757   -0.9080 H       1  UNL1        0.0490
     52 H          -4.7865    0.4056   -0.6428 H       1  UNL1        0.0490
@<TRIPOS>BOND
     1     1     2    2
     2     2     3    1
     3     3     4    1
     4     4     5    1
     5     5     6   ar
     6     6     7   ar
     7     7     8   ar
     8     8     9   ar
     9     9    10   ar
    10     4    11    1
    11    11    12    1
    12    12    13    1
    13    13    14    1
    14    14    15    1
    15    15    16    1
    16    16    17    1
    17    17    18    1
    18    17    19    1
    19    19    20    1
    20     2    21   am
    21    21    22    1
    22    22    23    1
    23    23    24    1
    24    23    25    1
    25    15     4    1
    26    25    21    1
    27    10     5   ar
    28    18    11    1
    29    19    13    1
    30     3    26    1
    31     3    27    1
    32     6    28    1
    33     7    29    1
    34     8    30    1
    35     9    31    1
    36    10    32    1
    37    11    33    1
    38    12    34    1
    39    12    35    1
    40    13    36    1
    41    14    37    1
    42    14    38    1
    43    15    39    1
    44    16    40    1
    45    16    41    1
    46    17    42    1
    47    18    43    1
    48    18    44    1
    49    19    45    1
    50    20    46    1
    51    22    47    1
    52    22    48    1
    53    23    49    1
    54    24    50    1
    55    25    51    1
    56    25    52    1
