@<TRIPOS>MOLECULE
*****
 54 57 0 0 0
SMALL
GASTEIGER

@<TRIPOS>ATOM
      1 C          -8.1284   -1.2531   -0.5624 C.3     1  UNL1        0.0375
      2 O          -6.9447   -1.7259   -1.1082 O.3     1  UNL1       -0.3683
      3 C          -5.8261   -0.9832   -0.7696 C.3     1  UNL1        0.1584
      4 C          -4.8010   -1.7942   -0.0217 C.3     1  UNL1        0.0102
      5 C          -3.5947   -1.0536    0.3593 C.ar    1  UNL1       -0.0299
      6 C          -2.3943   -1.1948   -0.3027 C.ar    1  UNL1       -0.0539
      7 C          -1.3750   -0.4204    0.1985 C.ar    1  UNL1       -0.0190
      8 C          -1.3593    0.4669    1.2485 C.ar    1  UNL1        0.1287
      9 O          -0.2724    1.1901    1.6595 O.3     1  UNL1       -0.4910
     10 C           1.0220    1.2347    1.2036 C.3     1  UNL1        0.0951
     11 C           1.8327   -0.0169    1.3068 C.3     1  UNL1        0.0272
     12 C           3.2145    0.2286    0.7538 C.ar    1  UNL1        0.0860
     13 C           4.2378    0.9221    1.3613 C.ar    1  UNL1        0.1258
     14 C           4.2193    1.5907    2.6805 C.3     1  UNL1       -0.0045
     15 O           5.3109    0.9199    0.5733 O.2     1  UNL1       -0.4402
     16 C           4.9669    0.2408   -0.5025 C.ar    1  UNL1        0.2276
     17 N           3.7075   -0.1865   -0.4183 N.ar    1  UNL1       -0.2136
     18 C           5.8886    0.0181   -1.6095 C.ar    1  UNL1        0.0369
     19 C           7.1742    0.4919   -1.6016 C.ar    1  UNL1       -0.0495
     20 C           8.0610    0.2838   -2.6554 C.ar    1  UNL1       -0.0610
     21 C           7.5827   -0.4336   -3.7290 C.ar    1  UNL1       -0.0617
     22 C           6.3009   -0.9305   -3.7849 C.ar    1  UNL1       -0.0610
     23 C           5.4727   -0.6917   -2.7134 C.ar    1  UNL1       -0.0495
     24 C          -2.5886    0.5915    1.9015 C.ar    1  UNL1        0.0311
     25 C          -3.6730   -0.1663    1.4463 C.ar    1  UNL1        0.0261
     26 S          -5.0625    0.2020    2.4530 S.2     1  UNL1       -0.0963
     27 C          -4.1236    1.4436    3.5424 C.ar    1  UNL1       -0.0231
     28 C          -2.8369    1.4052    2.9693 C.ar    1  UNL1       -0.0435
     29 C          -5.2678   -0.4215   -2.0312 C.2     1  UNL1        0.3342
     30 O          -4.5267    0.2342   -3.0328 O.3     1  UNL1       -0.4788
     31 O          -5.7344   -0.5934   -3.2098 O.2     1  UNL1       -0.2481
     32 H          -8.1332   -1.2248    0.5369 H       1  UNL1        0.0524
     33 H          -8.4929   -0.3414   -1.0573 H       1  UNL1        0.0524
     34 H          -8.8937   -2.0431   -0.8259 H       1  UNL1        0.0524
     35 H          -6.1787   -0.1661   -0.1074 H       1  UNL1        0.0716
     36 H          -5.2213   -2.2351    0.9012 H       1  UNL1        0.0344
     37 H          -4.5103   -2.6460   -0.6676 H       1  UNL1        0.0344
     38 H          -2.3068   -1.8631   -1.1335 H       1  UNL1        0.0622
     39 H          -0.4555   -0.5637   -0.3800 H       1  UNL1        0.0654
     40 H           1.0627    1.5443    0.1243 H       1  UNL1        0.0700
     41 H           1.5752    1.9988    1.8313 H       1  UNL1        0.0700
     42 H           2.0314   -0.2156    2.4104 H       1  UNL1        0.0362
     43 H           1.4349   -0.9188    0.8683 H       1  UNL1        0.0362
     44 H           3.5383    1.1285    3.4136 H       1  UNL1        0.0308
     45 H           5.2334    1.5835    3.1406 H       1  UNL1        0.0308
     46 H           3.9799    2.6810    2.5111 H       1  UNL1        0.0308
     47 H           7.4796    1.0501   -0.7159 H       1  UNL1        0.0625
     48 H           9.0407    0.7154   -2.5089 H       1  UNL1        0.0618
     49 H           8.3368   -0.5573   -4.5199 H       1  UNL1        0.0618
     50 H           6.1047   -1.4640   -4.6996 H       1  UNL1        0.0618
     51 H           4.4725   -1.1064   -2.8097 H       1  UNL1        0.0625
     52 H          -4.5244    2.0181    4.3889 H       1  UNL1        0.0694
     53 H          -2.1618    2.0719    3.4834 H       1  UNL1        0.0630
     54 H          -3.8939    0.9552   -2.6799 H       1  UNL1        0.2951
@<TRIPOS>BOND
     1     1     2    1
     2     2     3    1
     3     3     4    1
     4     4     5    1
     5     5     6   ar
     6     6     7   ar
     7     7     8   ar
     8     8     9    1
     9     9    10    1
    10    10    11    1
    11    11    12    1
    12    12    13   ar
    13    13    14    1
    14    13    15   ar
    15    15    16   ar
    16    16    17   ar
    17    16    18    1
    18    18    19   ar
    19    19    20   ar
    20    20    21   ar
    21    21    22   ar
    22    22    23   ar
    23     8    24   ar
    24    24    25   ar
    25    25    26   ar
    26    26    27   ar
    27    27    28   ar
    28     3    29    1
    29    29    30    1
    30    29    31    2
    31    25     5   ar
    32    17    12   ar
    33    23    18   ar
    34    28    24   ar
    35     1    32    1
    36     1    33    1
    37     1    34    1
    38     3    35    1
    39     4    36    1
    40     4    37    1
    41     6    38    1
    42     7    39    1
    43    10    40    1
    44    10    41    1
    45    11    42    1
    46    11    43    1
    47    14    44    1
    48    14    45    1
    49    14    46    1
    50    19    47    1
    51    20    48    1
    52    21    49    1
    53    22    50    1
    54    23    51    1
    55    27    52    1
    56    28    53    1
    57    30    54    1
