
     RDKit          3D

 54 57  0  0  0  0  0  0  0  0999 V2000
   -8.1284   -1.2531   -0.5624 C   0  0  0  0  0  0  0  0  0  0  0  0
   -6.9447   -1.7259   -1.1082 O   0  0  0  0  0  0  0  0  0  0  0  0
   -5.8261   -0.9832   -0.7696 C   0  0  1  0  0  0  0  0  0  0  0  0
   -4.8010   -1.7942   -0.0217 C   0  0  0  0  0  0  0  0  0  0  0  0
   -3.5947   -1.0536    0.3593 C   0  0  0  0  0  0  0  0  0  0  0  0
   -2.3943   -1.1948   -0.3027 C   0  0  0  0  0  0  0  0  0  0  0  0
   -1.3750   -0.4204    0.1985 C   0  0  0  0  0  0  0  0  0  0  0  0
   -1.3593    0.4669    1.2485 C   0  0  0  0  0  0  0  0  0  0  0  0
   -0.2724    1.1901    1.6595 O   0  0  0  0  0  0  0  0  0  0  0  0
    1.0220    1.2347    1.2036 C   0  0  0  0  0  0  0  0  0  0  0  0
    1.8327   -0.0169    1.3068 C   0  0  0  0  0  0  0  0  0  0  0  0
    3.2145    0.2286    0.7538 C   0  0  0  0  0  0  0  0  0  0  0  0
    4.2378    0.9221    1.3613 C   0  0  0  0  0  0  0  0  0  0  0  0
    4.2193    1.5907    2.6805 C   0  0  0  0  0  0  0  0  0  0  0  0
    5.3109    0.9199    0.5733 O   0  0  0  0  0  0  0  0  0  0  0  0
    4.9669    0.2408   -0.5025 C   0  0  0  0  0  0  0  0  0  0  0  0
    3.7075   -0.1865   -0.4183 N   0  0  0  0  0  0  0  0  0  0  0  0
    5.8886    0.0181   -1.6095 C   0  0  0  0  0  0  0  0  0  0  0  0
    7.1742    0.4919   -1.6016 C   0  0  0  0  0  0  0  0  0  0  0  0
    8.0610    0.2838   -2.6554 C   0  0  0  0  0  0  0  0  0  0  0  0
    7.5827   -0.4336   -3.7290 C   0  0  0  0  0  0  0  0  0  0  0  0
    6.3009   -0.9305   -3.7849 C   0  0  0  0  0  0  0  0  0  0  0  0
    5.4727   -0.6917   -2.7134 C   0  0  0  0  0  0  0  0  0  0  0  0
   -2.5886    0.5915    1.9015 C   0  0  0  0  0  0  0  0  0  0  0  0
   -3.6730   -0.1663    1.4463 C   0  0  0  0  0  0  0  0  0  0  0  0
   -5.0625    0.2020    2.4530 S   0  0  0  0  0  0  0  0  0  0  0  0
   -4.1236    1.4436    3.5424 C   0  0  0  0  0  0  0  0  0  0  0  0
   -2.8369    1.4052    2.9693 C   0  0  0  0  0  0  0  0  0  0  0  0
   -5.2678   -0.4215   -2.0312 C   0  0  0  0  0  0  0  0  0  0  0  0
   -4.5267    0.2342   -3.0328 O   0  0  0  0  0  0  0  0  0  0  0  0
   -5.7344   -0.5934   -3.2098 O   0  0  0  0  0  0  0  0  0  0  0  0
   -8.1332   -1.2248    0.5369 H   0  0  0  0  0  0  0  0  0  0  0  0
   -8.4929   -0.3414   -1.0573 H   0  0  0  0  0  0  0  0  0  0  0  0
   -8.8937   -2.0431   -0.8259 H   0  0  0  0  0  0  0  0  0  0  0  0
   -6.1787   -0.1661   -0.1074 H   0  0  0  0  0  0  0  0  0  0  0  0
   -5.2213   -2.2351    0.9012 H   0  0  0  0  0  0  0  0  0  0  0  0
   -4.5103   -2.6460   -0.6676 H   0  0  0  0  0  0  0  0  0  0  0  0
   -2.3068   -1.8631   -1.1335 H   0  0  0  0  0  0  0  0  0  0  0  0
   -0.4555   -0.5637   -0.3800 H   0  0  0  0  0  0  0  0  0  0  0  0
    1.0627    1.5443    0.1243 H   0  0  0  0  0  0  0  0  0  0  0  0
    1.5752    1.9988    1.8313 H   0  0  0  0  0  0  0  0  0  0  0  0
    2.0314   -0.2156    2.4104 H   0  0  0  0  0  0  0  0  0  0  0  0
    1.4349   -0.9188    0.8683 H   0  0  0  0  0  0  0  0  0  0  0  0
    3.5383    1.1285    3.4136 H   0  0  0  0  0  0  0  0  0  0  0  0
    5.2334    1.5835    3.1406 H   0  0  0  0  0  0  0  0  0  0  0  0
    3.9799    2.6810    2.5111 H   0  0  0  0  0  0  0  0  0  0  0  0
    7.4796    1.0501   -0.7159 H   0  0  0  0  0  0  0  0  0  0  0  0
    9.0407    0.7154   -2.5089 H   0  0  0  0  0  0  0  0  0  0  0  0
    8.3368   -0.5573   -4.5199 H   0  0  0  0  0  0  0  0  0  0  0  0
    6.1047   -1.4640   -4.6996 H   0  0  0  0  0  0  0  0  0  0  0  0
    4.4725   -1.1064   -2.8097 H   0  0  0  0  0  0  0  0  0  0  0  0
   -4.5244    2.0181    4.3889 H   0  0  0  0  0  0  0  0  0  0  0  0
   -2.1618    2.0719    3.4834 H   0  0  0  0  0  0  0  0  0  0  0  0
   -3.8939    0.9552   -2.6799 H   0  0  0  0  0  0  0  0  0  0  0  0
  1  2  1  0
  2  3  1  0
  3  4  1  0
  4  5  1  0
  5  6  2  0
  6  7  1  0
  7  8  2  0
  8  9  1  0
  9 10  1  0
 10 11  1  0
 11 12  1  0
 12 13  2  0
 13 14  1  0
 13 15  1  0
 15 16  1  0
 16 17  2  0
 16 18  1  0
 18 19  2  0
 19 20  1  0
 20 21  2  0
 21 22  1  0
 22 23  2  0
  8 24  1  0
 24 25  2  0
 25 26  1  0
 26 27  1  0
 27 28  2  0
  3 29  1  0
 29 30  1  0
 29 31  2  0
 25  5  1  0
 17 12  1  0
 23 18  1  0
 28 24  1  0
  1 32  1  0
  1 33  1  0
  1 34  1  0
  3 35  1  1
  4 36  1  0
  4 37  1  0
  6 38  1  0
  7 39  1  0
 10 40  1  0
 10 41  1  0
 11 42  1  0
 11 43  1  0
 14 44  1  0
 14 45  1  0
 14 46  1  0
 19 47  1  0
 20 48  1  0
 21 49  1  0
 22 50  1  0
 23 51  1  0
 27 52  1  0
 28 53  1  0
 30 54  1  0
M  END
$$$$
