@<TRIPOS>MOLECULE
*****
 53 58 0 0 0
SMALL
GASTEIGER

@<TRIPOS>ATOM
      1 C          -3.7447    1.6117    1.9533 C.3     1  UNL1       -0.0203
      2 C          -3.3111    0.4292    1.1259 C.ar    1  UNL1        0.0660
      3 N          -4.0603   -0.4890    0.5350 N.ar    1  UNL1       -0.1750
      4 N          -3.3229   -1.3759   -0.1045 N.ar    1  UNL1       -0.2512
      5 C          -3.7437   -2.5210   -0.8661 C.3     1  UNL1        0.1000
      6 C          -4.3256   -2.2281   -2.2175 C.3     1  UNL1        0.0723
      7 O          -5.3127   -3.1933   -1.9755 O.3     1  UNL1       -0.3754
      8 C          -5.1793   -2.9390   -0.6063 C.3     1  UNL1        0.0723
      9 C          -2.0344   -1.0066    0.0873 C.ar    1  UNL1        0.1298
     10 C          -1.9922    0.1322    0.8609 C.ar    1  UNL1        0.0304
     11 C          -0.5823    0.5613    1.0657 C.3     1  UNL1        0.0854
     12 C          -0.3768    1.9223    0.4635 C.ar    1  UNL1       -0.0221
     13 C          -0.2776    2.0597   -0.9246 C.ar    1  UNL1       -0.0551
     14 C          -0.1010    3.3062   -1.4987 C.ar    1  UNL1       -0.0431
     15 C          -0.0181    4.4466   -0.7185 C.ar    1  UNL1        0.0410
     16 CL          0.2050    6.0187   -1.4504 Cl      1  UNL1       -0.0835
     17 C          -0.1153    4.3174    0.6508 C.ar    1  UNL1       -0.0431
     18 C          -0.2920    3.0598    1.2051 C.ar    1  UNL1       -0.0551
     19 N           0.2406   -0.4468    0.4014 N.am    1  UNL1       -0.2531
     20 C           1.6762   -0.4592    0.3873 C.ar    1  UNL1        0.0545
     21 C           2.3811    0.5073    1.0923 C.ar    1  UNL1       -0.0324
     22 C           3.7794    0.4792    1.0574 C.ar    1  UNL1       -0.0041
     23 C           4.5497    1.4931    1.7963 C.3     1  UNL1       -0.0361
     24 C           4.4544   -0.4802    0.3439 C.ar    1  UNL1        0.1641
     25 N           5.7607   -0.7079    0.1630 N.ar    1  UNL1       -0.1292
     26 N           5.9178   -1.7811   -0.6290 N.ar    1  UNL1       -0.1340
     27 C           4.6714   -2.1887   -0.9166 C.ar    1  UNL1        0.1347
     28 C           4.3456   -3.3714   -1.7843 C.3     1  UNL1       -0.0041
     29 N           3.7529   -1.4031   -0.3287 N.ar    1  UNL1       -0.2846
     30 C           2.3839   -1.3839   -0.3009 C.ar    1  UNL1        0.0344
     31 C          -0.6619   -1.3553   -0.1927 C.2     1  UNL1        0.2700
     32 O          -0.3401   -2.3523   -0.8843 O.2     1  UNL1       -0.2679
     33 H          -4.1793    2.4056    1.3306 H       1  UNL1        0.0293
     34 H          -4.5570    1.2273    2.6324 H       1  UNL1        0.0293
     35 H          -2.9369    1.9477    2.6201 H       1  UNL1        0.0293
     36 H          -3.0240   -3.3552   -0.9168 H       1  UNL1        0.0591
     37 H          -3.7231   -2.5422   -3.0916 H       1  UNL1        0.0582
     38 H          -4.7456   -1.2106   -2.3531 H       1  UNL1        0.0582
     39 H          -5.2525   -3.8513    0.0393 H       1  UNL1        0.0582
     40 H          -5.7730   -2.0769   -0.2704 H       1  UNL1        0.0582
     41 H          -0.3084    0.6218    2.1299 H       1  UNL1        0.0606
     42 H          -0.3424    1.1775   -1.5161 H       1  UNL1        0.0621
     43 H          -0.0281    3.3746   -2.5793 H       1  UNL1        0.0632
     44 H          -0.0489    5.2152    1.2444 H       1  UNL1        0.0632
     45 H          -0.3619    3.0142    2.2796 H       1  UNL1        0.0621
     46 H           1.8749    1.2676    1.6638 H       1  UNL1        0.0640
     47 H           5.3328    0.9706    2.3969 H       1  UNL1        0.0279
     48 H           5.1012    2.1056    1.0557 H       1  UNL1        0.0279
     49 H           3.9049    2.1135    2.4545 H       1  UNL1        0.0279
     50 H           4.3902   -4.3095   -1.1895 H       1  UNL1        0.0308
     51 H           3.3550   -3.2275   -2.2501 H       1  UNL1        0.0308
     52 H           5.0956   -3.3717   -2.6035 H       1  UNL1        0.0308
     53 H           1.9001   -2.1585   -0.8673 H       1  UNL1        0.0833
@<TRIPOS>BOND
     1     1     2    1
     2     2     3   ar
     3     3     4   ar
     4     4     5    1
     5     5     6    1
     6     6     7    1
     7     7     8    1
     8     4     9   ar
     9     9    10   ar
    10    10    11    1
    11    11    12    1
    12    12    13   ar
    13    13    14   ar
    14    14    15   ar
    15    15    16    1
    16    15    17   ar
    17    17    18   ar
    18    11    19    1
    19    19    20    1
    20    20    21   ar
    21    21    22   ar
    22    22    23    1
    23    22    24   ar
    24    24    25   ar
    25    25    26   ar
    26    26    27   ar
    27    27    28    1
    28    27    29   ar
    29    29    30   ar
    30    19    31   am
    31    31    32    2
    32    10     2   ar
    33    18    12   ar
    34    30    20   ar
    35     8     5    1
    36    31     9    1
    37    29    24   ar
    38     1    33    1
    39     1    34    1
    40     1    35    1
    41     5    36    1
    42     6    37    1
    43     6    38    1
    44     8    39    1
    45     8    40    1
    46    11    41    1
    47    13    42    1
    48    14    43    1
    49    17    44    1
    50    18    45    1
    51    21    46    1
    52    23    47    1
    53    23    48    1
    54    23    49    1
    55    28    50    1
    56    28    51    1
    57    28    52    1
    58    30    53    1
