@<TRIPOS>MOLECULE
*****
 49 53 0 0 0
SMALL
GASTEIGER

@<TRIPOS>ATOM
      1 C          -7.9782    0.2894    0.5383 C.3     1  UNL1       -0.0281
      2 C          -6.7952   -0.5204    1.0501 C.3     1  UNL1        0.0946
      3 C          -7.3980   -1.7707    1.6950 C.3     1  UNL1       -0.0281
      4 O          -5.9642   -0.8203   -0.0008 O.3     1  UNL1       -0.4894
      5 C          -4.6328   -0.5085   -0.0755 C.ar    1  UNL1        0.1209
      6 C          -3.9387    0.1428    0.8808 C.ar    1  UNL1       -0.0194
      7 C          -2.5758    0.4124    0.7037 C.ar    1  UNL1       -0.0505
      8 C          -1.8751    0.0437   -0.4209 C.ar    1  UNL1       -0.0148
      9 C          -0.4610    0.3233   -0.6008 C.ar    1  UNL1        0.0184
     10 C           0.3653    0.3513    0.5140 C.ar    1  UNL1        0.0391
     11 N           1.6764    0.6073    0.3537 N.ar    1  UNL1       -0.2350
     12 C           2.2325    0.8406   -0.8516 C.ar    1  UNL1        0.1632
     13 C           3.5278    1.1218   -1.2732 C.ar    1  UNL1        0.0467
     14 C           4.6684    1.2305   -0.3763 C.ar    1  UNL1       -0.0022
     15 C           5.0012    2.4489    0.1757 C.ar    1  UNL1       -0.0351
     16 C           6.0918    2.5531    1.0323 C.ar    1  UNL1        0.0288
     17 N           6.8166    1.4561    1.3163 N.ar    1  UNL1       -0.2549
     18 C           6.5362    0.2619    0.8103 C.ar    1  UNL1        0.0715
     19 C           7.3096   -0.8291    1.1331 C.ar    1  UNL1       -0.0357
     20 C           6.9726   -2.0450    0.5789 C.ar    1  UNL1       -0.0597
     21 C           5.8973   -2.1533   -0.2675 C.ar    1  UNL1       -0.0611
     22 C           5.1078   -1.0752   -0.6058 C.ar    1  UNL1       -0.0520
     23 C           5.4511    0.1437   -0.0459 C.ar    1  UNL1        0.0082
     24 C           3.4787    1.2631   -2.6445 C.ar    1  UNL1        0.0597
     25 N           2.2075    1.0728   -3.0130 N.ar    1  UNL1       -0.1727
     26 N           1.4509    0.8184   -1.9443 N.ar    1  UNL1       -0.2206
     27 C           0.1235    0.5637   -1.8232 C.ar    1  UNL1        0.0406
     28 C          -2.6085   -0.6220   -1.3856 C.ar    1  UNL1       -0.0505
     29 C          -3.9330   -0.8936   -1.2328 C.ar    1  UNL1       -0.0194
     30 H          -7.6976    1.3566    0.4643 H       1  UNL1        0.0265
     31 H          -8.2460   -0.1345   -0.4540 H       1  UNL1        0.0265
     32 H          -8.8147    0.2142    1.2664 H       1  UNL1        0.0265
     33 H          -6.2972    0.0200    1.8456 H       1  UNL1        0.0727
     34 H          -8.2689   -2.0508    1.0775 H       1  UNL1        0.0265
     35 H          -6.6833   -2.6100    1.6959 H       1  UNL1        0.0265
     36 H          -7.7716   -1.5478    2.7113 H       1  UNL1        0.0265
     37 H          -4.4242    0.4727    1.8109 H       1  UNL1        0.0654
     38 H          -2.0923    0.9319    1.5044 H       1  UNL1        0.0625
     39 H          -0.0870    0.1634    1.4819 H       1  UNL1        0.0837
     40 H           4.4243    3.3288   -0.0478 H       1  UNL1        0.0639
     41 H           6.3984    3.4801    1.4928 H       1  UNL1        0.0830
     42 H           8.1624   -0.7758    1.7965 H       1  UNL1        0.0639
     43 H           7.5320   -2.9540    0.7836 H       1  UNL1        0.0618
     44 H           5.6382   -3.1109   -0.7004 H       1  UNL1        0.0618
     45 H           4.2541   -1.1502   -1.2752 H       1  UNL1        0.0624
     46 H           4.3619    1.4902   -3.2494 H       1  UNL1        0.0855
     47 H          -0.5048    0.5442   -2.6872 H       1  UNL1        0.0837
     48 H          -2.1444   -0.9600   -2.3214 H       1  UNL1        0.0625
     49 H          -4.4939   -1.4144   -1.9940 H       1  UNL1        0.0654
@<TRIPOS>BOND
     1     1     2    1
     2     2     3    1
     3     2     4    1
     4     4     5    1
     5     5     6   ar
     6     6     7   ar
     7     7     8   ar
     8     8     9    1
     9     9    10   ar
    10    10    11   ar
    11    11    12   ar
    12    12    13   ar
    13    13    14    1
    14    14    15   ar
    15    15    16   ar
    16    16    17   ar
    17    17    18   ar
    18    18    19   ar
    19    19    20   ar
    20    20    21   ar
    21    21    22   ar
    22    22    23   ar
    23    13    24   ar
    24    24    25   ar
    25    25    26   ar
    26    26    27   ar
    27     8    28   ar
    28    28    29   ar
    29    29     5   ar
    30    27     9   ar
    31    26    12   ar
    32    23    14   ar
    33    23    18   ar
    34     1    30    1
    35     1    31    1
    36     1    32    1
    37     2    33    1
    38     3    34    1
    39     3    35    1
    40     3    36    1
    41     6    37    1
    42     7    38    1
    43    10    39    1
    44    15    40    1
    45    16    41    1
    46    19    42    1
    47    20    43    1
    48    21    44    1
    49    22    45    1
    50    24    46    1
    51    27    47    1
    52    28    48    1
    53    29    49    1
