@<TRIPOS>MOLECULE
*****
 46 50 0 0 0
SMALL
GASTEIGER

@<TRIPOS>ATOM
      1 N           6.7702   -0.5697   -3.8021 N.1     1  UNL1       -0.1908
      2 C           6.0304   -0.6531   -2.9653 C.1     1  UNL1        0.1007
      3 C           5.0588   -0.7370   -1.8648 C.ar    1  UNL1        0.0705
      4 C           4.7263    0.4118   -1.1951 C.ar    1  UNL1        0.0458
      5 N           3.8623    0.3628   -0.1718 N.ar    1  UNL1       -0.2502
      6 C           3.3271   -0.8149    0.1891 C.ar    1  UNL1        0.1137
      7 C           2.4297   -0.8958    1.2658 C.ar    1  UNL1        0.1492
      8 N           2.0989    0.3116    1.9377 N.pl3   1  UNL1       -0.2977
      9 C           0.8941    1.0141    1.7013 C.ar    1  UNL1        0.0328
     10 C           0.7187    2.2712    2.2342 C.ar    1  UNL1       -0.0391
     11 C          -0.4751    2.9140    1.9880 C.ar    1  UNL1       -0.0413
     12 C          -1.4640    2.3056    1.2260 C.ar    1  UNL1        0.0466
     13 CL         -2.9658    3.1401    0.9319 Cl      1  UNL1       -0.0832
     14 C          -1.2841    1.0246    0.6846 C.ar    1  UNL1        0.0030
     15 C          -2.4021    0.4505   -0.0943 C.3     1  UNL1        0.1271
     16 C          -2.0986   -0.9765   -0.5241 C.3     1  UNL1        0.1199
     17 F          -1.0090   -1.0939   -1.3283 F       1  UNL1       -0.2462
     18 N          -3.5331    0.3844    0.7943 N.2     1  UNL1       -0.2225
     19 C          -4.7239    0.2730    0.3433 C.2     1  UNL1        0.2763
     20 N          -5.8368    0.2074    1.2201 N.pl3   1  UNL1       -0.3134
     21 O          -4.8534    0.2209   -1.0607 O.2     1  UNL1       -0.4622
     22 C          -4.1010    1.1606   -1.8299 C.3     1  UNL1        0.1090
     23 C          -2.9083    0.6610   -2.6277 C.3     1  UNL1       -0.0065
     24 C          -2.7356    1.3067   -1.3003 C.3     1  UNL1        0.0314
     25 C          -0.0959    0.3992    0.9363 C.ar    1  UNL1       -0.0335
     26 N           1.8966   -2.0423    1.6501 N.ar    1  UNL1       -0.2351
     27 C           2.2218   -3.1905    0.9858 C.ar    1  UNL1        0.0656
     28 C           3.0968   -3.1664   -0.0767 C.ar    1  UNL1        0.1507
     29 F           3.4018   -4.3255   -0.7196 F       1  UNL1       -0.2032
     30 C           3.6501   -1.9916   -0.4778 C.ar    1  UNL1        0.0417
     31 C           4.5412   -1.9680   -1.5392 C.ar    1  UNL1       -0.0308
     32 H           5.1831    1.3644   -1.5167 H       1  UNL1        0.0843
     33 H           2.7719    0.6934    2.6287 H       1  UNL1        0.1536
     34 H           1.5321    2.6806    2.8164 H       1  UNL1        0.0636
     35 H          -0.6249    3.9002    2.4020 H       1  UNL1        0.0633
     36 H          -1.9733   -1.5580    0.4418 H       1  UNL1        0.0643
     37 H          -2.9861   -1.4113   -0.9994 H       1  UNL1        0.0643
     38 H          -6.7243   -0.2244    0.9176 H       1  UNL1        0.1466
     39 H          -5.7501    0.5996    2.1706 H       1  UNL1        0.1466
     40 H          -4.6158    2.0667   -2.2294 H       1  UNL1        0.0737
     41 H          -2.8801   -0.4255   -2.7721 H       1  UNL1        0.0306
     42 H          -2.6456    1.2214   -3.5377 H       1  UNL1        0.0306
     43 H          -2.1859    2.2699   -1.3296 H       1  UNL1        0.0365
     44 H           0.0707   -0.5967    0.5345 H       1  UNL1        0.0640
     45 H           1.7734   -4.1121    1.3191 H       1  UNL1        0.0860
     46 H           4.8167   -2.8626   -2.0826 H       1  UNL1        0.0638
@<TRIPOS>BOND
     1     1     2    3
     2     2     3    1
     3     3     4   ar
     4     4     5   ar
     5     5     6   ar
     6     6     7   ar
     7     7     8    1
     8     8     9    1
     9     9    10   ar
    10    10    11   ar
    11    11    12   ar
    12    12    13    1
    13    12    14   ar
    14    14    15    1
    15    15    16    1
    16    16    17    1
    17    15    18    1
    18    18    19    2
    19    19    20    1
    20    19    21    1
    21    21    22    1
    22    22    23    1
    23    23    24    1
    24    14    25   ar
    25     7    26   ar
    26    26    27   ar
    27    27    28   ar
    28    28    29    1
    29    28    30   ar
    30    30    31   ar
    31    31     3   ar
    32    30     6   ar
    33    25     9   ar
    34    24    15    1
    35    24    22    1
    36     4    32    1
    37     8    33    1
    38    10    34    1
    39    11    35    1
    40    16    36    1
    41    16    37    1
    42    20    38    1
    43    20    39    1
    44    22    40    1
    45    23    41    1
    46    23    42    1
    47    24    43    1
    48    25    44    1
    49    27    45    1
    50    31    46    1
