
     RDKit          3D

 47 51  0  0  0  0  0  0  0  0999 V2000
   -7.1280   -2.4597    2.7870 C   0  0  0  0  0  0  0  0  0  0  0  0
   -6.4945   -1.9066    1.5587 C   0  0  0  0  0  0  0  0  0  0  0  0
   -7.3831   -1.2533    0.6249 N   0  0  0  0  0  0  0  0  0  0  0  0
   -6.2986   -0.7285   -0.6806 S   0  0  0  0  0  0  0  0  0  0  0  0
   -4.7778   -1.4547    0.1929 C   0  0  0  0  0  0  0  0  0  0  0  0
   -3.4671   -1.2835   -0.5166 C   0  0  0  0  0  0  0  0  0  0  0  0
   -2.9148   -2.0905   -1.4186 N   0  0  0  0  0  0  0  0  0  0  0  0
   -1.7575   -1.5723   -1.7881 N   0  0  0  0  0  0  0  0  0  0  0  0
   -1.5523   -0.4068   -1.1154 C   0  0  0  0  0  0  0  0  0  0  0  0
   -2.6109   -0.2401   -0.3365 N   0  0  0  0  0  0  0  0  0  0  0  0
   -2.8325    0.8830    0.5726 C   0  0  0  0  0  0  0  0  0  0  0  0
   -1.9009    2.0296    0.2152 C   0  0  0  0  0  0  0  0  0  0  0  0
   -0.5733    1.4734   -0.0460 N   0  0  0  0  0  0  0  0  0  0  0  0
    0.5177    1.8198    0.7613 C   0  0  0  0  0  0  0  0  0  0  0  0
    0.3440    2.6280    1.7231 O   0  0  0  0  0  0  0  0  0  0  0  0
    1.8344    1.2458    0.4824 C   0  0  0  0  0  0  0  0  0  0  0  0
    2.8679    2.0320    0.0042 C   0  0  0  0  0  0  0  0  0  0  0  0
    4.1216    1.5335   -0.2624 C   0  0  0  0  0  0  0  0  0  0  0  0
    4.4326    0.2008   -0.0680 C   0  0  0  0  0  0  0  0  0  0  0  0
    5.7339   -0.3346   -0.3385 C   0  0  0  0  0  0  0  0  0  0  0  0
    6.2324   -1.6630   -0.2125 C   0  0  0  0  0  0  0  0  0  0  0  0
    7.4799   -1.8784   -0.5343 C   0  0  0  0  0  0  0  0  0  0  0  0
    8.3323   -0.8957   -0.9862 C   0  0  0  0  0  0  0  0  0  0  0  0
    7.0970    0.5152   -0.9128 S   0  0  0  0  0  0  0  0  0  0  0  0
    3.3930   -0.5866    0.4123 C   0  0  0  0  0  0  0  0  0  0  0  0
    2.1350   -0.0881    0.6804 C   0  0  0  0  0  0  0  0  0  0  0  0
   -0.4359    0.5773   -1.1453 C   0  0  2  0  0  0  0  0  0  0  0  0
   -0.5697    1.4205   -2.4218 C   0  0  0  0  0  0  0  0  0  0  0  0
   -5.2804   -1.8783    1.1311 N   0  0  0  0  0  0  0  0  0  0  0  0
   -7.1319   -1.6473    3.5493 H   0  0  0  0  0  0  0  0  0  0  0  0
   -8.1601   -2.8159    2.6007 H   0  0  0  0  0  0  0  0  0  0  0  0
   -6.4870   -3.2891    3.1466 H   0  0  0  0  0  0  0  0  0  0  0  0
   -2.6736    0.5848    1.6320 H   0  0  0  0  0  0  0  0  0  0  0  0
   -3.8648    1.2416    0.3867 H   0  0  0  0  0  0  0  0  0  0  0  0
   -1.8918    2.7353    1.0515 H   0  0  0  0  0  0  0  0  0  0  0  0
   -2.2748    2.5612   -0.6706 H   0  0  0  0  0  0  0  0  0  0  0  0
    2.6574    3.0889   -0.1591 H   0  0  0  0  0  0  0  0  0  0  0  0
    4.9394    2.1621   -0.6415 H   0  0  0  0  0  0  0  0  0  0  0  0
    5.5170   -2.4523    0.1591 H   0  0  0  0  0  0  0  0  0  0  0  0
    7.9388   -2.9224   -0.4556 H   0  0  0  0  0  0  0  0  0  0  0  0
    9.2788   -0.7976   -1.2836 H   0  0  0  0  0  0  0  0  0  0  0  0
    3.6295   -1.6460    0.5672 H   0  0  0  0  0  0  0  0  0  0  0  0
    1.3346   -0.7345    1.0570 H   0  0  0  0  0  0  0  0  0  0  0  0
    0.5479    0.0518   -1.1467 H   0  0  0  0  0  0  0  0  0  0  0  0
    0.0869    2.2876   -2.4175 H   0  0  0  0  0  0  0  0  0  0  0  0
   -1.6202    1.7662   -2.4486 H   0  0  0  0  0  0  0  0  0  0  0  0
   -0.3708    0.7575   -3.2894 H   0  0  0  0  0  0  0  0  0  0  0  0
  1  2  1  0
  2  3  2  0
  3  4  1  0
  4  5  1  0
  5  6  1  0
  6  7  2  0
  7  8  1  0
  8  9  2  0
  9 10  1  0
 10 11  1  0
 11 12  1  0
 12 13  1  0
 13 14  1  0
 14 15  2  0
 14 16  1  0
 16 17  2  0
 17 18  1  0
 18 19  2  0
 19 20  1  0
 20 21  2  0
 21 22  1  0
 22 23  2  0
 23 24  1  0
 19 25  1  0
 25 26  2  0
 13 27  1  0
 27 28  1  0
  5 29  2  0
 29  2  1  0
 10  6  1  0
 26 16  1  0
 27  9  1  0
 24 20  1  0
  1 30  1  0
  1 31  1  0
  1 32  1  0
 11 33  1  0
 11 34  1  0
 12 35  1  0
 12 36  1  0
 17 37  1  0
 18 38  1  0
 21 39  1  0
 22 40  1  0
 23 41  1  0
 25 42  1  0
 26 43  1  0
 27 44  1  6
 28 45  1  0
 28 46  1  0
 28 47  1  0
M  END
$$$$
