@<TRIPOS>MOLECULE
*****
 47 51 0 0 0
SMALL
GASTEIGER

@<TRIPOS>ATOM
      1 C          -7.1280   -2.4597    2.7870 C.3     1  UNL1       -0.0039
      2 C          -6.4945   -1.9066    1.5587 C.ar    1  UNL1        0.1359
      3 N          -7.3831   -1.2533    0.6249 N.ar    1  UNL1       -0.1939
      4 S          -6.2986   -0.7285   -0.6806 S.2     1  UNL1        0.0369
      5 C          -4.7778   -1.4547    0.1929 C.ar    1  UNL1        0.1652
      6 C          -3.4671   -1.2835   -0.5166 C.ar    1  UNL1        0.1910
      7 N          -2.9148   -2.0905   -1.4186 N.ar    1  UNL1       -0.1269
      8 N          -1.7575   -1.5723   -1.7881 N.ar    1  UNL1       -0.1320
      9 C          -1.5523   -0.4068   -1.1154 C.ar    1  UNL1        0.1542
     10 N          -2.6109   -0.2401   -0.3365 N.ar    1  UNL1       -0.3062
     11 C          -2.8325    0.8830    0.5726 C.3     1  UNL1        0.0423
     12 C          -1.9009    2.0296    0.2152 C.3     1  UNL1        0.0338
     13 N          -0.5733    1.4734   -0.0460 N.am    1  UNL1       -0.2860
     14 C           0.5177    1.8198    0.7613 C.2     1  UNL1        0.2472
     15 O           0.3440    2.6280    1.7231 O.2     1  UNL1       -0.2700
     16 C           1.8344    1.2458    0.4824 C.ar    1  UNL1        0.0370
     17 C           2.8679    2.0320    0.0042 C.ar    1  UNL1       -0.0490
     18 C           4.1216    1.5335   -0.2624 C.ar    1  UNL1       -0.0528
     19 C           4.4326    0.2008   -0.0680 C.ar    1  UNL1       -0.0113
     20 C           5.7339   -0.3346   -0.3385 C.ar    1  UNL1        0.0193
     21 C           6.2324   -1.6630   -0.2125 C.ar    1  UNL1       -0.0469
     22 C           7.4799   -1.8784   -0.5343 C.ar    1  UNL1       -0.0541
     23 C           8.3323   -0.8957   -0.9862 C.ar    1  UNL1       -0.0237
     24 S           7.0970    0.5152   -0.9128 S.2     1  UNL1       -0.0967
     25 C           3.3930   -0.5866    0.4123 C.ar    1  UNL1       -0.0528
     26 C           2.1350   -0.0881    0.6804 C.ar    1  UNL1       -0.0490
     27 C          -0.4359    0.5773   -1.1453 C.3     1  UNL1        0.0834
     28 C          -0.5697    1.4205   -2.4218 C.3     1  UNL1       -0.0393
     29 N          -5.2804   -1.8783    1.1311 N.ar    1  UNL1       -0.2199
     30 H          -7.1319   -1.6473    3.5493 H       1  UNL1        0.0308
     31 H          -8.1601   -2.8159    2.6007 H       1  UNL1        0.0308
     32 H          -6.4870   -3.2891    3.1466 H       1  UNL1        0.0308
     33 H          -2.6736    0.5848    1.6320 H       1  UNL1        0.0508
     34 H          -3.8648    1.2416    0.3867 H       1  UNL1        0.0508
     35 H          -1.8918    2.7353    1.0515 H       1  UNL1        0.0482
     36 H          -2.2748    2.5612   -0.6706 H       1  UNL1        0.0482
     37 H           2.6574    3.0889   -0.1591 H       1  UNL1        0.0625
     38 H           4.9394    2.1621   -0.6415 H       1  UNL1        0.0624
     39 H           5.5170   -2.4523    0.1591 H       1  UNL1        0.0629
     40 H           7.9388   -2.9224   -0.4556 H       1  UNL1        0.0623
     41 H           9.2788   -0.7976   -1.2836 H       1  UNL1        0.0693
     42 H           3.6295   -1.6460    0.5672 H       1  UNL1        0.0624
     43 H           1.3346   -0.7345    1.0570 H       1  UNL1        0.0625
     44 H           0.5479    0.0518   -1.1467 H       1  UNL1        0.0579
     45 H           0.0869    2.2876   -2.4175 H       1  UNL1        0.0252
     46 H          -1.6202    1.7662   -2.4486 H       1  UNL1        0.0252
     47 H          -0.3708    0.7575   -3.2894 H       1  UNL1        0.0252
@<TRIPOS>BOND
     1     1     2    1
     2     2     3   ar
     3     3     4   ar
     4     4     5   ar
     5     5     6    1
     6     6     7   ar
     7     7     8   ar
     8     8     9   ar
     9     9    10   ar
    10    10    11    1
    11    11    12    1
    12    12    13    1
    13    13    14   am
    14    14    15    2
    15    14    16    1
    16    16    17   ar
    17    17    18   ar
    18    18    19   ar
    19    19    20    1
    20    20    21   ar
    21    21    22   ar
    22    22    23   ar
    23    23    24   ar
    24    19    25   ar
    25    25    26   ar
    26    13    27    1
    27    27    28    1
    28     5    29   ar
    29    29     2   ar
    30    10     6   ar
    31    26    16   ar
    32    27     9    1
    33    24    20   ar
    34     1    30    1
    35     1    31    1
    36     1    32    1
    37    11    33    1
    38    11    34    1
    39    12    35    1
    40    12    36    1
    41    17    37    1
    42    18    38    1
    43    21    39    1
    44    22    40    1
    45    23    41    1
    46    25    42    1
    47    26    43    1
    48    27    44    1
    49    28    45    1
    50    28    46    1
    51    28    47    1
