@<TRIPOS>MOLECULE
*****
 67 71 0 0 0
SMALL
GASTEIGER

@<TRIPOS>ATOM
      1 C          -3.7495   -2.6670    0.0106 C.3     1  UNL1       -0.0345
      2 C          -2.8743   -1.4312    0.1354 C.3     1  UNL1        0.0812
      3 O          -1.6479   -1.5947   -0.5014 O.3     1  UNL1       -0.3684
      4 C          -0.6033   -1.5503    0.3906 C.3     1  UNL1        0.0666
      5 C           0.1940   -2.8174    0.4628 C.3     1  UNL1       -0.0257
      6 C           1.1990   -3.0069   -0.6226 C.3     1  UNL1       -0.0461
      7 C           1.8926   -1.7352   -0.9457 C.3     1  UNL1       -0.0203
      8 C           3.3940   -1.8061   -0.9921 C.3     1  UNL1        0.0151
      9 N           3.8816   -0.5773   -0.4042 N.pl3   1  UNL1       -0.3325
     10 C           5.2469   -0.2322   -0.2670 C.2     1  UNL1        0.0102
     11 C           6.0087    0.3614   -1.2008 C.2     1  UNL1       -0.0023
     12 C           7.3479    0.5484   -0.6845 C.2     1  UNL1        0.1579
     13 O           8.2356    1.2950   -1.1385 O.2     1  UNL1       -0.2926
     14 C           7.4824   -0.3201    0.5021 C.3     1  UNL1        0.0151
     15 C           6.0487   -0.4821    0.9555 C.3     1  UNL1       -0.0076
     16 C           2.7487    0.2217    0.0087 C.3     1  UNL1        0.0157
     17 C           1.6999   -0.8015    0.2609 C.3     1  UNL1       -0.0119
     18 C           0.2864   -0.3219    0.1566 C.3     1  UNL1        0.0150
     19 C          -0.0475    0.7890    1.0465 C.ar    1  UNL1       -0.0413
     20 C          -0.5100    1.9821    0.4994 C.ar    1  UNL1       -0.0555
     21 C          -0.8458    3.0724    1.2538 C.ar    1  UNL1       -0.0262
     22 C          -0.7189    2.9842    2.6328 C.ar    1  UNL1        0.1234
     23 F          -1.0418    4.0477    3.4243 F       1  UNL1       -0.2055
     24 C          -0.2637    1.8136    3.1889 C.ar    1  UNL1       -0.0262
     25 C           0.0741    0.7110    2.4000 C.ar    1  UNL1       -0.0555
     26 C          -3.5951   -0.2135   -0.3215 C.ar    1  UNL1       -0.0181
     27 C          -3.6949    0.1270   -1.6735 C.ar    1  UNL1       -0.0445
     28 C          -4.3607    1.2505   -2.0887 C.ar    1  UNL1        0.0557
     29 C          -4.4635    1.6080   -3.5281 C.3     1  UNL1        0.4174
     30 F          -5.3977    0.7295   -4.0786 F       1  UNL1       -0.1659
     31 F          -4.8694    2.8912   -3.7248 F       1  UNL1       -0.1659
     32 F          -3.2099    1.3570   -4.0804 F       1  UNL1       -0.1659
     33 C          -4.9639    2.0971   -1.1822 C.ar    1  UNL1       -0.0385
     34 C          -4.8805    1.7871    0.1405 C.ar    1  UNL1        0.0557
     35 C          -5.4964    2.6326    1.2086 C.3     1  UNL1        0.4174
     36 F          -4.5323    3.4580    1.7578 F       1  UNL1       -0.1659
     37 F          -6.4417    3.4282    0.6198 F       1  UNL1       -0.1659
     38 F          -6.0033    1.8704    2.2382 F       1  UNL1       -0.1659
     39 C          -4.2096    0.6554    0.5560 C.ar    1  UNL1       -0.0445
     40 H          -3.4359   -3.2913   -0.8508 H       1  UNL1        0.0258
     41 H          -4.8285   -2.3906   -0.0960 H       1  UNL1        0.0258
     42 H          -3.6948   -3.3162    0.9085 H       1  UNL1        0.0258
     43 H          -2.7036   -1.3018    1.2444 H       1  UNL1        0.0643
     44 H          -1.0358   -1.3898    1.4094 H       1  UNL1        0.0602
     45 H           0.6583   -2.8922    1.4884 H       1  UNL1        0.0290
     46 H          -0.5247   -3.6586    0.4123 H       1  UNL1        0.0290
     47 H           1.9737   -3.7288   -0.2361 H       1  UNL1        0.0269
     48 H           0.7723   -3.5138   -1.5215 H       1  UNL1        0.0269
     49 H           1.4547   -1.2162   -1.8310 H       1  UNL1        0.0319
     50 H           3.6816   -1.7574   -2.0806 H       1  UNL1        0.0466
     51 H           3.8153   -2.7075   -0.5454 H       1  UNL1        0.0466
     52 H           5.6256    0.6316   -2.1641 H       1  UNL1        0.0668
     53 H           8.1160    0.1196    1.2991 H       1  UNL1        0.0348
     54 H           7.9394   -1.3089    0.2357 H       1  UNL1        0.0348
     55 H           5.8657    0.2864    1.7296 H       1  UNL1        0.0330
     56 H           5.9436   -1.5168    1.3352 H       1  UNL1        0.0330
     57 H           2.4473    0.9598   -0.7532 H       1  UNL1        0.0467
     58 H           2.9642    0.7700    0.9701 H       1  UNL1        0.0467
     59 H           1.9322   -1.3246    1.2052 H       1  UNL1        0.0326
     60 H           0.1143   -0.0433   -0.9103 H       1  UNL1        0.0377
     61 H          -0.6208    2.0822   -0.5819 H       1  UNL1        0.0621
     62 H          -1.2053    4.0004    0.8311 H       1  UNL1        0.0646
     63 H          -0.1507    1.7034    4.2523 H       1  UNL1        0.0646
     64 H           0.4323   -0.2097    2.8391 H       1  UNL1        0.0621
     65 H          -3.2230   -0.5373   -2.3690 H       1  UNL1        0.0627
     66 H          -5.4954    2.9939   -1.5110 H       1  UNL1        0.0629
     67 H          -4.1370    0.3965    1.6190 H       1  UNL1        0.0627
@<TRIPOS>BOND
     1     1     2    1
     2     2     3    1
     3     3     4    1
     4     4     5    1
     5     5     6    1
     6     6     7    1
     7     7     8    1
     8     8     9    1
     9     9    10    1
    10    10    11    2
    11    11    12    1
    12    12    13    2
    13    12    14    1
    14    14    15    1
    15     9    16    1
    16    16    17    1
    17    17    18    1
    18    18    19    1
    19    19    20   ar
    20    20    21   ar
    21    21    22   ar
    22    22    23    1
    23    22    24   ar
    24    24    25   ar
    25     2    26    1
    26    26    27   ar
    27    27    28   ar
    28    28    29    1
    29    29    30    1
    30    29    31    1
    31    29    32    1
    32    28    33   ar
    33    33    34   ar
    34    34    35    1
    35    35    36    1
    36    35    37    1
    37    35    38    1
    38    34    39   ar
    39    18     4    1
    40    25    19   ar
    41    39    26   ar
    42    17     7    1
    43    15    10    1
    44     1    40    1
    45     1    41    1
    46     1    42    1
    47     2    43    1
    48     4    44    1
    49     5    45    1
    50     5    46    1
    51     6    47    1
    52     6    48    1
    53     7    49    1
    54     8    50    1
    55     8    51    1
    56    11    52    1
    57    14    53    1
    58    14    54    1
    59    15    55    1
    60    15    56    1
    61    16    57    1
    62    16    58    1
    63    17    59    1
    64    18    60    1
    65    20    61    1
    66    21    62    1
    67    24    63    1
    68    25    64    1
    69    27    65    1
    70    33    66    1
    71    39    67    1
