
     RDKit          3D

 67 71  0  0  0  0  0  0  0  0999 V2000
   -3.7495   -2.6670    0.0106 C   0  0  0  0  0  0  0  0  0  0  0  0
   -2.8743   -1.4312    0.1354 C   0  0  1  0  0  0  0  0  0  0  0  0
   -1.6479   -1.5947   -0.5014 O   0  0  0  0  0  0  0  0  0  0  0  0
   -0.6033   -1.5503    0.3906 C   0  0  1  0  0  0  0  0  0  0  0  0
    0.1940   -2.8174    0.4628 C   0  0  0  0  0  0  0  0  0  0  0  0
    1.1990   -3.0069   -0.6226 C   0  0  0  0  0  0  0  0  0  0  0  0
    1.8926   -1.7352   -0.9457 C   0  0  2  0  0  0  0  0  0  0  0  0
    3.3940   -1.8061   -0.9921 C   0  0  0  0  0  0  0  0  0  0  0  0
    3.8816   -0.5773   -0.4042 N   0  0  0  0  0  0  0  0  0  0  0  0
    5.2469   -0.2322   -0.2670 C   0  0  0  0  0  0  0  0  0  0  0  0
    6.0087    0.3614   -1.2008 C   0  0  0  0  0  0  0  0  0  0  0  0
    7.3479    0.5484   -0.6845 C   0  0  0  0  0  0  0  0  0  0  0  0
    8.2356    1.2950   -1.1385 O   0  0  0  0  0  0  0  0  0  0  0  0
    7.4824   -0.3201    0.5021 C   0  0  0  0  0  0  0  0  0  0  0  0
    6.0487   -0.4821    0.9555 C   0  0  0  0  0  0  0  0  0  0  0  0
    2.7487    0.2217    0.0087 C   0  0  0  0  0  0  0  0  0  0  0  0
    1.6999   -0.8015    0.2609 C   0  0  1  0  0  0  0  0  0  0  0  0
    0.2864   -0.3219    0.1566 C   0  0  2  0  0  0  0  0  0  0  0  0
   -0.0475    0.7890    1.0465 C   0  0  0  0  0  0  0  0  0  0  0  0
   -0.5100    1.9821    0.4994 C   0  0  0  0  0  0  0  0  0  0  0  0
   -0.8458    3.0724    1.2538 C   0  0  0  0  0  0  0  0  0  0  0  0
   -0.7189    2.9842    2.6328 C   0  0  0  0  0  0  0  0  0  0  0  0
   -1.0418    4.0477    3.4243 F   0  0  0  0  0  0  0  0  0  0  0  0
   -0.2637    1.8136    3.1889 C   0  0  0  0  0  0  0  0  0  0  0  0
    0.0741    0.7110    2.4000 C   0  0  0  0  0  0  0  0  0  0  0  0
   -3.5951   -0.2135   -0.3215 C   0  0  0  0  0  0  0  0  0  0  0  0
   -3.6949    0.1270   -1.6735 C   0  0  0  0  0  0  0  0  0  0  0  0
   -4.3607    1.2505   -2.0887 C   0  0  0  0  0  0  0  0  0  0  0  0
   -4.4635    1.6080   -3.5281 C   0  0  0  0  0  0  0  0  0  0  0  0
   -5.3977    0.7295   -4.0786 F   0  0  0  0  0  0  0  0  0  0  0  0
   -4.8694    2.8912   -3.7248 F   0  0  0  0  0  0  0  0  0  0  0  0
   -3.2099    1.3570   -4.0804 F   0  0  0  0  0  0  0  0  0  0  0  0
   -4.9639    2.0971   -1.1822 C   0  0  0  0  0  0  0  0  0  0  0  0
   -4.8805    1.7871    0.1405 C   0  0  0  0  0  0  0  0  0  0  0  0
   -5.4964    2.6326    1.2086 C   0  0  0  0  0  0  0  0  0  0  0  0
   -4.5323    3.4580    1.7578 F   0  0  0  0  0  0  0  0  0  0  0  0
   -6.4417    3.4282    0.6198 F   0  0  0  0  0  0  0  0  0  0  0  0
   -6.0033    1.8704    2.2382 F   0  0  0  0  0  0  0  0  0  0  0  0
   -4.2096    0.6554    0.5560 C   0  0  0  0  0  0  0  0  0  0  0  0
   -3.4359   -3.2913   -0.8508 H   0  0  0  0  0  0  0  0  0  0  0  0
   -4.8285   -2.3906   -0.0960 H   0  0  0  0  0  0  0  0  0  0  0  0
   -3.6948   -3.3162    0.9085 H   0  0  0  0  0  0  0  0  0  0  0  0
   -2.7036   -1.3018    1.2444 H   0  0  0  0  0  0  0  0  0  0  0  0
   -1.0358   -1.3898    1.4094 H   0  0  0  0  0  0  0  0  0  0  0  0
    0.6583   -2.8922    1.4884 H   0  0  0  0  0  0  0  0  0  0  0  0
   -0.5247   -3.6586    0.4123 H   0  0  0  0  0  0  0  0  0  0  0  0
    1.9737   -3.7288   -0.2361 H   0  0  0  0  0  0  0  0  0  0  0  0
    0.7723   -3.5138   -1.5215 H   0  0  0  0  0  0  0  0  0  0  0  0
    1.4547   -1.2162   -1.8310 H   0  0  0  0  0  0  0  0  0  0  0  0
    3.6816   -1.7574   -2.0806 H   0  0  0  0  0  0  0  0  0  0  0  0
    3.8153   -2.7075   -0.5454 H   0  0  0  0  0  0  0  0  0  0  0  0
    5.6256    0.6316   -2.1641 H   0  0  0  0  0  0  0  0  0  0  0  0
    8.1160    0.1196    1.2991 H   0  0  0  0  0  0  0  0  0  0  0  0
    7.9394   -1.3089    0.2357 H   0  0  0  0  0  0  0  0  0  0  0  0
    5.8657    0.2864    1.7296 H   0  0  0  0  0  0  0  0  0  0  0  0
    5.9436   -1.5168    1.3352 H   0  0  0  0  0  0  0  0  0  0  0  0
    2.4473    0.9598   -0.7532 H   0  0  0  0  0  0  0  0  0  0  0  0
    2.9642    0.7700    0.9701 H   0  0  0  0  0  0  0  0  0  0  0  0
    1.9322   -1.3246    1.2052 H   0  0  0  0  0  0  0  0  0  0  0  0
    0.1143   -0.0433   -0.9103 H   0  0  0  0  0  0  0  0  0  0  0  0
   -0.6208    2.0822   -0.5819 H   0  0  0  0  0  0  0  0  0  0  0  0
   -1.2053    4.0004    0.8311 H   0  0  0  0  0  0  0  0  0  0  0  0
   -0.1507    1.7034    4.2523 H   0  0  0  0  0  0  0  0  0  0  0  0
    0.4323   -0.2097    2.8391 H   0  0  0  0  0  0  0  0  0  0  0  0
   -3.2230   -0.5373   -2.3690 H   0  0  0  0  0  0  0  0  0  0  0  0
   -5.4954    2.9939   -1.5110 H   0  0  0  0  0  0  0  0  0  0  0  0
   -4.1370    0.3965    1.6190 H   0  0  0  0  0  0  0  0  0  0  0  0
  1  2  1  0
  2  3  1  0
  3  4  1  0
  4  5  1  0
  5  6  1  0
  6  7  1  0
  7  8  1  0
  8  9  1  0
  9 10  1  0
 10 11  2  0
 11 12  1  0
 12 13  2  0
 12 14  1  0
 14 15  1  0
  9 16  1  0
 16 17  1  0
 17 18  1  0
 18 19  1  0
 19 20  2  0
 20 21  1  0
 21 22  2  0
 22 23  1  0
 22 24  1  0
 24 25  2  0
  2 26  1  0
 26 27  2  0
 27 28  1  0
 28 29  1  0
 29 30  1  0
 29 31  1  0
 29 32  1  0
 28 33  2  0
 33 34  1  0
 34 35  1  0
 35 36  1  0
 35 37  1  0
 35 38  1  0
 34 39  2  0
 18  4  1  0
 25 19  1  0
 39 26  1  0
 17  7  1  0
 15 10  1  0
  1 40  1  0
  1 41  1  0
  1 42  1  0
  2 43  1  1
  4 44  1  1
  5 45  1  0
  5 46  1  0
  6 47  1  0
  6 48  1  0
  7 49  1  6
  8 50  1  0
  8 51  1  0
 11 52  1  0
 14 53  1  0
 14 54  1  0
 15 55  1  0
 15 56  1  0
 16 57  1  0
 16 58  1  0
 17 59  1  1
 18 60  1  6
 20 61  1  0
 21 62  1  0
 24 63  1  0
 25 64  1  0
 27 65  1  0
 33 66  1  0
 39 67  1  0
M  END
$$$$
