
     RDKit          3D

 30 32  0  0  0  0  0  0  0  0999 V2000
   -1.9584   -2.9832    0.1092 O   0  0  0  0  0  0  0  0  0  0  0  0
   -1.4292   -1.8624    0.0431 C   0  0  0  0  0  0  0  0  0  0  0  0
   -0.0464   -1.6808   -0.0127 C   0  0  0  0  0  0  0  0  0  0  0  0
    0.4940   -0.4308   -0.0846 C   0  0  0  0  0  0  0  0  0  0  0  0
    1.9250   -0.1656   -0.1456 C   0  0  0  0  0  0  0  0  0  0  0  0
    2.3840    1.1322   -0.2168 C   0  0  0  0  0  0  0  0  0  0  0  0
    3.7317    1.4394   -0.2768 C   0  0  0  0  0  0  0  0  0  0  0  0
    4.6890    0.4438   -0.2676 C   0  0  0  0  0  0  0  0  0  0  0  0
    6.0452    0.7325   -0.3271 O   0  0  0  0  0  0  0  0  0  0  0  0
    4.2357   -0.8549   -0.1966 C   0  0  0  0  0  0  0  0  0  0  0  0
    2.8760   -1.1674   -0.1360 C   0  0  0  0  0  0  0  0  0  0  0  0
   -0.3183    0.5867   -0.0995 O   0  0  0  0  0  0  0  0  0  0  0  0
   -1.6195    0.4838   -0.0499 C   0  0  0  0  0  0  0  0  0  0  0  0
   -2.4333    1.5940   -0.0687 C   0  0  0  0  0  0  0  0  0  0  0  0
   -3.8105    1.5317   -0.0182 C   0  0  0  0  0  0  0  0  0  0  0  0
   -4.6192    2.6706   -0.0384 O   0  0  0  0  0  0  0  0  0  0  0  0
   -4.4149    0.2754    0.0562 C   0  0  0  0  0  0  0  0  0  0  0  0
   -3.6162   -0.8393    0.0758 C   0  0  0  0  0  0  0  0  0  0  0  0
   -4.2103   -2.0840    0.1493 O   0  0  0  0  0  0  0  0  0  0  0  0
   -2.2472   -0.7576    0.0247 C   0  0  0  0  0  0  0  0  0  0  0  0
    0.5760   -2.5432    0.0023 H   0  0  0  0  0  0  0  0  0  0  0  0
    1.7061    1.9899   -0.2298 H   0  0  0  0  0  0  0  0  0  0  0  0
    4.0808    2.4616   -0.3324 H   0  0  0  0  0  0  0  0  0  0  0  0
    6.7089   -0.0030   -0.1350 H   0  0  0  0  0  0  0  0  0  0  0  0
    4.9472   -1.6650   -0.1868 H   0  0  0  0  0  0  0  0  0  0  0  0
    2.5710   -2.2134   -0.0809 H   0  0  0  0  0  0  0  0  0  0  0  0
   -1.9425    2.5577   -0.1268 H   0  0  0  0  0  0  0  0  0  0  0  0
   -4.1491    3.5431   -0.2426 H   0  0  0  0  0  0  0  0  0  0  0  0
   -5.5001    0.2413    0.0954 H   0  0  0  0  0  0  0  0  0  0  0  0
   -4.6554   -2.4332   -0.7056 H   0  0  0  0  0  0  0  0  0  0  0  0
  1  2  2  0
  2  3  1  0
  3  4  2  0
  4  5  1  0
  5  6  2  0
  6  7  1  0
  7  8  2  0
  8  9  1  0
  8 10  1  0
 10 11  2  0
  4 12  1  0
 12 13  1  0
 13 14  2  0
 14 15  1  0
 15 16  1  0
 15 17  2  0
 17 18  1  0
 18 19  1  0
 18 20  2  0
 20  2  1  0
 11  5  1  0
 20 13  1  0
  3 21  1  0
  6 22  1  0
  7 23  1  0
  9 24  1  0
 10 25  1  0
 11 26  1  0
 14 27  1  0
 16 28  1  0
 17 29  1  0
 19 30  1  0
M  END
$$$$
