@<TRIPOS>MOLECULE
*****
 30 32 0 0 0
SMALL
GASTEIGER

@<TRIPOS>ATOM
      1 O          -1.9584   -2.9832    0.1092 O.2     1  UNL1       -0.2869
      2 C          -1.4292   -1.8624    0.0431 C.ar    1  UNL1        0.1966
      3 C          -0.0464   -1.6808   -0.0127 C.ar    1  UNL1        0.0288
      4 C           0.4940   -0.4308   -0.0846 C.ar    1  UNL1        0.1392
      5 C           1.9250   -0.1656   -0.1456 C.ar    1  UNL1        0.0176
      6 C           2.3840    1.1322   -0.2168 C.ar    1  UNL1       -0.0476
      7 C           3.7317    1.4394   -0.2768 C.ar    1  UNL1       -0.0195
      8 C           4.6890    0.4438   -0.2676 C.ar    1  UNL1        0.1169
      9 O           6.0452    0.7325   -0.3271 O.3     1  UNL1       -0.5068
     10 C           4.2357   -0.8549   -0.1966 C.ar    1  UNL1       -0.0195
     11 C           2.8760   -1.1674   -0.1360 C.ar    1  UNL1       -0.0476
     12 O          -0.3183    0.5867   -0.0995 O.2     1  UNL1       -0.4544
     13 C          -1.6195    0.4838   -0.0499 C.ar    1  UNL1        0.1462
     14 C          -2.4333    1.5940   -0.0687 C.ar    1  UNL1        0.0231
     15 C          -3.8105    1.5317   -0.0182 C.ar    1  UNL1        0.1239
     16 O          -4.6192    2.6706   -0.0384 O.3     1  UNL1       -0.5065
     17 C          -4.4149    0.2754    0.0562 C.ar    1  UNL1        0.0223
     18 C          -3.6162   -0.8393    0.0758 C.ar    1  UNL1        0.1347
     19 O          -4.2103   -2.0840    0.1493 O.3     1  UNL1       -0.5058
     20 C          -2.2472   -0.7576    0.0247 C.ar    1  UNL1        0.1055
     21 H           0.5760   -2.5432    0.0023 H       1  UNL1        0.0693
     22 H           1.7061    1.9899   -0.2298 H       1  UNL1        0.0626
     23 H           4.0808    2.4616   -0.3324 H       1  UNL1        0.0654
     24 H           6.7089   -0.0030   -0.1350 H       1  UNL1        0.2921
     25 H           4.9472   -1.6650   -0.1868 H       1  UNL1        0.0654
     26 H           2.5710   -2.2134   -0.0809 H       1  UNL1        0.0626
     27 H          -1.9425    2.5577   -0.1268 H       1  UNL1        0.0691
     28 H          -4.1491    3.5431   -0.2426 H       1  UNL1        0.2921
     29 H          -5.5001    0.2413    0.0954 H       1  UNL1        0.0691
     30 H          -4.6554   -2.4332   -0.7056 H       1  UNL1        0.2922
@<TRIPOS>BOND
     1     1     2    2
     2     2     3   ar
     3     3     4   ar
     4     4     5    1
     5     5     6   ar
     6     6     7   ar
     7     7     8   ar
     8     8     9    1
     9     8    10   ar
    10    10    11   ar
    11     4    12   ar
    12    12    13   ar
    13    13    14   ar
    14    14    15   ar
    15    15    16    1
    16    15    17   ar
    17    17    18   ar
    18    18    19    1
    19    18    20   ar
    20    20     2   ar
    21    11     5   ar
    22    20    13   ar
    23     3    21    1
    24     6    22    1
    25     7    23    1
    26     9    24    1
    27    10    25    1
    28    11    26    1
    29    14    27    1
    30    16    28    1
    31    17    29    1
    32    19    30    1
