@<TRIPOS>MOLECULE
*****
 17 16 0 0 0
SMALL
GASTEIGER

@<TRIPOS>ATOM
      1 C          -1.5077   -1.1325   -0.8059 C.3     1  UNL1       -0.0276
      2 C          -0.5934   -0.1883   -0.0267 C.3     1  UNL1        0.1634
      3 O           0.4412    0.1244   -0.8750 O.3     1  UNL1       -0.2724
      4 P           1.9654   -0.1742   -0.2918 P.3     1  UNL1        0.4731
      5 O           2.7174    1.3167    0.0093 O.3     1  UNL1       -0.3026
      6 O           2.0768   -1.1325    1.0569 O.3     1  UNL1       -0.3026
      7 O           2.7575   -0.8620   -1.3829 O.2     1  UNL1       -0.2275
      8 C          -1.3810    1.0697    0.1760 C.2     1  UNL1        0.3342
      9 O          -2.5222    1.1831    0.9760 O.3     1  UNL1       -0.4788
     10 O          -1.1619    2.2195   -0.3246 O.2     1  UNL1       -0.2481
     11 H          -1.8857   -0.5405   -1.6642 H       1  UNL1        0.0260
     12 H          -2.3211   -1.5005   -0.1611 H       1  UNL1        0.0260
     13 H          -0.8272   -1.9455   -1.1636 H       1  UNL1        0.0260
     14 H          -0.3289   -0.5992    0.9418 H       1  UNL1        0.0716
     15 H           3.7102    1.1853    0.0452 H       1  UNL1        0.2220
     16 H           1.4895   -0.9383    1.8066 H       1  UNL1        0.2220
     17 H          -2.6289    1.9149    1.6840 H       1  UNL1        0.2951
@<TRIPOS>BOND
     1     1     2    1
     2     2     3    1
     3     3     4    1
     4     4     5    1
     5     4     6    1
     6     4     7    2
     7     2     8    1
     8     8     9    1
     9     8    10    2
    10     1    11    1
    11     1    12    1
    12     1    13    1
    13     2    14    1
    14     5    15    1
    15     6    16    1
    16     9    17    1
