@<TRIPOS>MOLECULE
*****
 43 46 0 0 0
SMALL
GASTEIGER

@<TRIPOS>ATOM
      1 C           3.0544    2.9767    2.2786 C.3     1  UNL1       -0.0306
      2 C           4.1049    1.8929    2.3479 C.3     1  UNL1        0.0901
      3 O           4.0038    0.9760    1.2821 O.3     1  UNL1       -0.4593
      4 C           2.8433    0.2340    1.0956 C.2     1  UNL1        0.3768
      5 O           1.9136    0.4267    1.9158 O.2     1  UNL1       -0.2414
      6 C           2.7169   -0.7273   -0.0090 C.ar    1  UNL1        0.2336
      7 O           3.6112   -1.0147   -0.9234 O.2     1  UNL1       -0.4448
      8 C           3.1552   -1.9218   -1.7547 C.ar    1  UNL1        0.1558
      9 C           3.7219   -2.5254   -2.8534 C.ar    1  UNL1        0.0704
     10 N           2.9867   -3.4414   -3.5206 N.ar    1  UNL1       -0.2596
     11 C           1.7488   -3.7821   -3.1644 C.ar    1  UNL1        0.0284
     12 C           1.1745   -3.1824   -2.0658 C.ar    1  UNL1       -0.0310
     13 C           1.8722   -2.2436   -1.3469 C.ar    1  UNL1        0.0452
     14 C           1.5806   -1.4792   -0.2227 C.ar    1  UNL1        0.0923
     15 N           0.3593   -1.5147    0.4990 N.pl3   1  UNL1       -0.3109
     16 C          -0.7395   -0.6604    0.1772 C.ar    1  UNL1        0.0317
     17 C          -0.6776    0.2488   -0.8541 C.ar    1  UNL1       -0.0402
     18 C          -1.7584    1.0795   -1.1599 C.ar    1  UNL1       -0.0544
     19 C          -2.9254    0.9947   -0.4139 C.ar    1  UNL1       -0.0166
     20 C          -2.9963    0.0961    0.6105 C.ar    1  UNL1       -0.0402
     21 C          -1.9065   -0.7269    0.9030 C.ar    1  UNL1       -0.0370
     22 C          -4.3361    0.2132    1.2233 C.3     1  UNL1       -0.0250
     23 C          -4.7657    1.6078    0.8922 C.3     1  UNL1       -0.0191
     24 C          -4.2101    1.7559   -0.5208 C.3     1  UNL1        0.1175
     25 N          -5.1394    1.1013   -1.3996 N.2     1  UNL1       -0.0610
     26 O          -6.3071    1.3379   -1.1876 O.2     1  UNL1       -0.1484
     27 H           2.0833    2.6475    2.7466 H       1  UNL1        0.0262
     28 H           2.9060    3.3803    1.2670 H       1  UNL1        0.0262
     29 H           3.4106    3.8144    2.9140 H       1  UNL1        0.0262
     30 H           5.0892    2.3992    2.2397 H       1  UNL1        0.0695
     31 H           4.0045    1.4010    3.3400 H       1  UNL1        0.0695
     32 H           4.7262   -2.2897   -3.1925 H       1  UNL1        0.0867
     33 H           1.1531   -4.5233   -3.7039 H       1  UNL1        0.0830
     34 H           0.1728   -3.4132   -1.7223 H       1  UNL1        0.0640
     35 H           0.2574   -2.1852    1.2907 H       1  UNL1        0.1523
     36 H           0.2470    0.2908   -1.4175 H       1  UNL1        0.0636
     37 H          -1.6334    1.7681   -1.9847 H       1  UNL1        0.0622
     38 H          -2.0004   -1.4196    1.7148 H       1  UNL1        0.0639
     39 H          -5.0017   -0.5047    0.6996 H       1  UNL1        0.0314
     40 H          -4.2861    0.0209    2.3144 H       1  UNL1        0.0314
     41 H          -5.8727    1.7433    0.8924 H       1  UNL1        0.0293
     42 H          -4.2855    2.3425    1.5673 H       1  UNL1        0.0293
     43 H          -4.0556    2.8060   -0.7941 H       1  UNL1        0.0629
@<TRIPOS>BOND
     1     1     2    1
     2     2     3    1
     3     3     4    1
     4     4     5    2
     5     4     6    1
     6     6     7   ar
     7     7     8   ar
     8     8     9   ar
     9     9    10   ar
    10    10    11   ar
    11    11    12   ar
    12    12    13   ar
    13    13    14   ar
    14    14    15    1
    15    15    16    1
    16    16    17   ar
    17    17    18   ar
    18    18    19   ar
    19    19    20   ar
    20    20    21   ar
    21    20    22    1
    22    22    23    1
    23    23    24    1
    24    24    25    1
    25    25    26    2
    26    14     6   ar
    27    21    16   ar
    28    13     8   ar
    29    24    19    1
    30     1    27    1
    31     1    28    1
    32     1    29    1
    33     2    30    1
    34     2    31    1
    35     9    32    1
    36    11    33    1
    37    12    34    1
    38    15    35    1
    39    17    36    1
    40    18    37    1
    41    21    38    1
    42    22    39    1
    43    22    40    1
    44    23    41    1
    45    23    42    1
    46    24    43    1
