@<TRIPOS>MOLECULE
*****
 44 46 0 0 0
SMALL
GASTEIGER

@<TRIPOS>ATOM
      1 C          -5.4309   -1.1290   -1.3549 C.3     1  UNL1        0.0790
      2 O          -5.3032   -0.0515   -0.4782 O.3     1  UNL1       -0.4914
      3 C          -4.1064    0.2967    0.0922 C.ar    1  UNL1        0.1616
      4 C          -2.9408   -0.4224   -0.1820 C.ar    1  UNL1       -0.0109
      5 C          -1.7376   -0.0779    0.3873 C.ar    1  UNL1       -0.0129
      6 C          -1.6638    1.0018    1.2512 C.ar    1  UNL1       -0.0372
      7 C          -2.7954    1.7099    1.5257 C.ar    1  UNL1       -0.0130
      8 C          -3.9916    1.3582    0.9531 C.ar    1  UNL1        0.1587
      9 O          -5.1515    2.0824    1.2333 O.3     1  UNL1       -0.5033
     10 C          -0.3094    1.2930    1.7892 C.3     1  UNL1       -0.0127
     11 C           0.5875    1.3143    0.5424 C.3     1  UNL1        0.0257
     12 N           0.6689    0.0361   -0.0771 N.3     1  UNL1       -0.1599
     13 S           2.0627   -0.8529    0.4160 S.O2    1  UNL1        0.0618
     14 O           1.9361   -1.0651    1.9122 O.2     1  UNL1       -0.1528
     15 O           2.0141   -2.2151   -0.2002 O.2     1  UNL1       -0.1528
     16 C           3.5520   -0.0909    0.0108 C.ar    1  UNL1        0.1055
     17 C           4.2046   -0.3136   -1.1815 C.ar    1  UNL1       -0.0353
     18 C           5.3970    0.3290   -1.4465 C.ar    1  UNL1       -0.0599
     19 C           5.9357    1.1951   -0.5167 C.ar    1  UNL1       -0.0616
     20 C           5.3087    1.4417    0.6884 C.ar    1  UNL1       -0.0599
     21 C           4.1135    0.7781    0.9186 C.ar    1  UNL1       -0.0353
     22 C          -0.4633   -0.8056    0.1522 C.3     1  UNL1        0.1350
     23 C          -0.5956   -1.8549   -0.9000 C.2     1  UNL1        0.2588
     24 O          -1.3578   -2.8212   -0.7449 O.2     1  UNL1       -0.2716
     25 N           0.1766   -1.7230   -2.0969 N.am    1  UNL1       -0.1959
     26 O           0.0409   -2.6823   -3.0285 O.3     1  UNL1       -0.2951
     27 H          -5.0622   -0.8381   -2.3539 H       1  UNL1        0.0660
     28 H          -6.5084   -1.4214   -1.4590 H       1  UNL1        0.0660
     29 H          -4.8873   -2.0072   -0.9800 H       1  UNL1        0.0660
     30 H          -2.9959   -1.2529   -0.8525 H       1  UNL1        0.0659
     31 H          -2.7345    2.5536    2.2022 H       1  UNL1        0.0658
     32 H          -5.9540    1.5282    1.5160 H       1  UNL1        0.2923
     33 H          -0.2668    2.3100    2.2086 H       1  UNL1        0.0326
     34 H           0.0834    0.5070    2.4375 H       1  UNL1        0.0326
     35 H           0.0558    2.0004   -0.1782 H       1  UNL1        0.0447
     36 H           1.5432    1.7699    0.8013 H       1  UNL1        0.0447
     37 H           3.7940   -1.0010   -1.9399 H       1  UNL1        0.0637
     38 H           5.9467    0.1829   -2.3751 H       1  UNL1        0.0618
     39 H           6.8758    1.7107   -0.7093 H       1  UNL1        0.0618
     40 H           5.7365    2.1265    1.4214 H       1  UNL1        0.0618
     41 H           3.6436    0.9976    1.8848 H       1  UNL1        0.0637
     42 H          -0.2710   -1.3785    1.1071 H       1  UNL1        0.0626
     43 H           0.8215   -0.9354   -2.2809 H       1  UNL1        0.1823
     44 H           0.0287   -3.5832   -2.6299 H       1  UNL1        0.2414
@<TRIPOS>BOND
     1     1     2    1
     2     2     3    1
     3     3     4   ar
     4     4     5   ar
     5     5     6   ar
     6     6     7   ar
     7     7     8   ar
     8     8     9    1
     9     6    10    1
    10    10    11    1
    11    11    12    1
    12    12    13    1
    13    13    14    2
    14    13    15    2
    15    13    16    1
    16    16    17   ar
    17    17    18   ar
    18    18    19   ar
    19    19    20   ar
    20    20    21   ar
    21    12    22    1
    22    22    23    1
    23    23    24    2
    24    23    25   am
    25    25    26    1
    26     8     3   ar
    27    21    16   ar
    28    22     5    1
    29     1    27    1
    30     1    28    1
    31     1    29    1
    32     4    30    1
    33     7    31    1
    34     9    32    1
    35    10    33    1
    36    10    34    1
    37    11    35    1
    38    11    36    1
    39    17    37    1
    40    18    38    1
    41    19    39    1
    42    20    40    1
    43    21    41    1
    44    22    42    1
    45    25    43    1
    46    26    44    1
