
     RDKit          3D

 44 46  0  0  0  0  0  0  0  0999 V2000
   -5.4309   -1.1290   -1.3549 C   0  0  0  0  0  0  0  0  0  0  0  0
   -5.3032   -0.0515   -0.4782 O   0  0  0  0  0  0  0  0  0  0  0  0
   -4.1064    0.2967    0.0922 C   0  0  0  0  0  0  0  0  0  0  0  0
   -2.9408   -0.4224   -0.1820 C   0  0  0  0  0  0  0  0  0  0  0  0
   -1.7376   -0.0779    0.3873 C   0  0  0  0  0  0  0  0  0  0  0  0
   -1.6638    1.0018    1.2512 C   0  0  0  0  0  0  0  0  0  0  0  0
   -2.7954    1.7099    1.5257 C   0  0  0  0  0  0  0  0  0  0  0  0
   -3.9916    1.3582    0.9531 C   0  0  0  0  0  0  0  0  0  0  0  0
   -5.1515    2.0824    1.2333 O   0  0  0  0  0  0  0  0  0  0  0  0
   -0.3094    1.2930    1.7892 C   0  0  0  0  0  0  0  0  0  0  0  0
    0.5875    1.3143    0.5424 C   0  0  0  0  0  0  0  0  0  0  0  0
    0.6689    0.0361   -0.0771 N   0  0  0  0  0  0  0  0  0  0  0  0
    2.0627   -0.8529    0.4160 S   0  0  0  0  0  6  0  0  0  0  0  0
    1.9361   -1.0651    1.9122 O   0  0  0  0  0  0  0  0  0  0  0  0
    2.0141   -2.2151   -0.2002 O   0  0  0  0  0  0  0  0  0  0  0  0
    3.5520   -0.0909    0.0108 C   0  0  0  0  0  0  0  0  0  0  0  0
    4.2046   -0.3136   -1.1815 C   0  0  0  0  0  0  0  0  0  0  0  0
    5.3970    0.3290   -1.4465 C   0  0  0  0  0  0  0  0  0  0  0  0
    5.9357    1.1951   -0.5167 C   0  0  0  0  0  0  0  0  0  0  0  0
    5.3087    1.4417    0.6884 C   0  0  0  0  0  0  0  0  0  0  0  0
    4.1135    0.7781    0.9186 C   0  0  0  0  0  0  0  0  0  0  0  0
   -0.4633   -0.8056    0.1522 C   0  0  0  0  0  0  0  0  0  0  0  0
   -0.5956   -1.8549   -0.9000 C   0  0  0  0  0  0  0  0  0  0  0  0
   -1.3578   -2.8212   -0.7449 O   0  0  0  0  0  0  0  0  0  0  0  0
    0.1766   -1.7230   -2.0969 N   0  0  0  0  0  0  0  0  0  0  0  0
    0.0409   -2.6823   -3.0285 O   0  0  0  0  0  0  0  0  0  0  0  0
   -5.0622   -0.8381   -2.3539 H   0  0  0  0  0  0  0  0  0  0  0  0
   -6.5084   -1.4214   -1.4590 H   0  0  0  0  0  0  0  0  0  0  0  0
   -4.8873   -2.0072   -0.9800 H   0  0  0  0  0  0  0  0  0  0  0  0
   -2.9959   -1.2529   -0.8525 H   0  0  0  0  0  0  0  0  0  0  0  0
   -2.7345    2.5536    2.2022 H   0  0  0  0  0  0  0  0  0  0  0  0
   -5.9540    1.5282    1.5160 H   0  0  0  0  0  0  0  0  0  0  0  0
   -0.2668    2.3100    2.2086 H   0  0  0  0  0  0  0  0  0  0  0  0
    0.0834    0.5070    2.4375 H   0  0  0  0  0  0  0  0  0  0  0  0
    0.0558    2.0004   -0.1782 H   0  0  0  0  0  0  0  0  0  0  0  0
    1.5432    1.7699    0.8013 H   0  0  0  0  0  0  0  0  0  0  0  0
    3.7940   -1.0010   -1.9399 H   0  0  0  0  0  0  0  0  0  0  0  0
    5.9467    0.1829   -2.3751 H   0  0  0  0  0  0  0  0  0  0  0  0
    6.8758    1.7107   -0.7093 H   0  0  0  0  0  0  0  0  0  0  0  0
    5.7365    2.1265    1.4214 H   0  0  0  0  0  0  0  0  0  0  0  0
    3.6436    0.9976    1.8848 H   0  0  0  0  0  0  0  0  0  0  0  0
   -0.2710   -1.3785    1.1071 H   0  0  0  0  0  0  0  0  0  0  0  0
    0.8215   -0.9354   -2.2809 H   0  0  0  0  0  0  0  0  0  0  0  0
    0.0287   -3.5832   -2.6299 H   0  0  0  0  0  0  0  0  0  0  0  0
  1  2  1  0
  2  3  1  0
  3  4  2  0
  4  5  1  0
  5  6  2  0
  6  7  1  0
  7  8  2  0
  8  9  1  0
  6 10  1  0
 10 11  1  0
 11 12  1  0
 12 13  1  0
 13 14  2  0
 13 15  2  0
 13 16  1  0
 16 17  2  0
 17 18  1  0
 18 19  2  0
 19 20  1  0
 20 21  2  0
 12 22  1  0
 22 23  1  0
 23 24  2  0
 23 25  1  0
 25 26  1  0
  8  3  1  0
 21 16  1  0
 22  5  1  0
  1 27  1  0
  1 28  1  0
  1 29  1  0
  4 30  1  0
  7 31  1  0
  9 32  1  0
 10 33  1  0
 10 34  1  0
 11 35  1  0
 11 36  1  0
 17 37  1  0
 18 38  1  0
 19 39  1  0
 20 40  1  0
 21 41  1  0
 22 42  1  0
 25 43  1  0
 26 44  1  0
M  END
$$$$
