
     RDKit          3D

 49 53  0  0  0  0  0  0  0  0999 V2000
   -3.5758   -2.2367    0.3768 C   0  0  0  0  0  0  0  0  0  0  0  0
   -2.8362   -0.9540    0.4329 C   0  0  2  0  0  0  0  0  0  0  0  0
   -3.9028    0.1961    0.4402 C   0  0  0  0  0  0  0  0  0  0  0  0
   -4.5887    0.2715   -0.9029 C   0  0  0  0  0  0  0  0  0  0  0  0
   -3.6352    0.2090   -2.0843 C   0  0  0  0  0  0  0  0  0  0  0  0
   -2.7677   -0.9135   -1.9418 O   0  0  0  0  0  0  0  0  0  0  0  0
   -2.0295   -0.7217   -0.8318 C   0  0  2  0  0  0  0  0  0  0  0  0
   -0.5965   -1.1558   -0.8202 C   0  0  1  0  0  0  0  0  0  0  0  0
   -0.4170   -2.6813   -0.3193 C   0  0  0  0  0  0  0  0  0  0  0  0
    1.0810   -3.1341   -1.4373 S   0  0  0  0  0  0  0  0  0  0  0  0
    0.3802   -1.8487   -2.8111 C   0  0  0  0  0  0  0  0  0  0  0  0
    1.0098   -2.2214   -4.0799 N   0  0  0  0  0  0  0  0  0  0  0  0
   -0.1755   -1.3422   -2.0848 N   0  0  0  0  0  0  0  0  0  0  0  0
    0.0348   -0.3845    0.1958 C   0  0  0  0  0  0  0  0  0  0  0  0
    1.2379    0.2122    0.2365 C   0  0  0  0  0  0  0  0  0  0  0  0
    1.8660    0.9402    1.3400 C   0  0  0  0  0  0  0  0  0  0  0  0
    3.1908    1.4499    1.3144 C   0  0  0  0  0  0  0  0  0  0  0  0
    4.1804    0.7072    0.7710 C   0  0  0  0  0  0  0  0  0  0  0  0
    5.4521    1.2467    0.5415 C   0  0  0  0  0  0  0  0  0  0  0  0
    5.7774    2.6216    0.8584 C   0  0  0  0  0  0  0  0  0  0  0  0
    4.6501    3.2083    1.4059 C   0  0  0  0  0  0  0  0  0  0  0  0
    4.9952    4.5484    2.0063 C   0  0  0  0  0  0  0  0  0  0  0  0
    5.3409    5.7902    2.5672 N   0  0  0  0  0  0  0  0  0  0  0  0
    3.4821    2.7893    1.6469 C   0  0  0  0  0  0  0  0  0  0  0  0
    1.0227    0.9515    2.5274 C   0  0  0  0  0  0  0  0  0  0  0  0
   -0.1763    0.3574    2.4801 C   0  0  0  0  0  0  0  0  0  0  0  0
   -0.7306   -0.2774    1.4323 C   0  0  0  0  0  0  0  0  0  0  0  0
   -1.9877   -0.7781    1.5305 O   0  0  0  0  0  0  0  0  0  0  0  0
   -3.2931   -3.0510    1.0224 H   0  0  0  0  0  0  0  0  0  0  0  0
   -3.6629   -2.5349   -0.7079 H   0  0  0  0  0  0  0  0  0  0  0  0
   -4.6557   -1.9974    0.6900 H   0  0  0  0  0  0  0  0  0  0  0  0
   -4.6847   -0.0797    1.1885 H   0  0  0  0  0  0  0  0  0  0  0  0
   -3.4370    1.1150    0.7849 H   0  0  0  0  0  0  0  0  0  0  0  0
   -5.1672    1.2817   -0.9704 H   0  0  0  0  0  0  0  0  0  0  0  0
   -5.3786   -0.4923   -0.9811 H   0  0  0  0  0  0  0  0  0  0  0  0
   -4.2186    0.1238   -3.0174 H   0  0  0  0  0  0  0  0  0  0  0  0
   -2.9764    1.0980   -2.0945 H   0  0  0  0  0  0  0  0  0  0  0  0
   -1.8722    0.4313   -0.8287 H   0  0  0  0  0  0  0  0  0  0  0  0
   -1.2448   -3.2252   -0.7691 H   0  0  0  0  0  0  0  0  0  0  0  0
   -0.1145   -2.7847    0.6689 H   0  0  0  0  0  0  0  0  0  0  0  0
    1.6693   -1.8865   -4.6772 H   0  0  0  0  0  0  0  0  0  0  0  0
    0.5873   -3.2270   -4.4022 H   0  0  0  0  0  0  0  0  0  0  0  0
    1.8563    0.0923   -0.6305 H   0  0  0  0  0  0  0  0  0  0  0  0
    4.0021   -0.3664    0.5268 H   0  0  0  0  0  0  0  0  0  0  0  0
    6.2550    0.6164    0.1163 H   0  0  0  0  0  0  0  0  0  0  0  0
    6.7010    2.9380    0.4821 H   0  0  0  0  0  0  0  0  0  0  0  0
    2.6280    3.3471    1.9137 H   0  0  0  0  0  0  0  0  0  0  0  0
    1.4738    1.3856    3.4378 H   0  0  0  0  0  0  0  0  0  0  0  0
   -0.7492    0.3662    3.4570 H   0  0  0  0  0  0  0  0  0  0  0  0
  2  1  1  6
  2  3  1  0
  3  4  1  0
  4  5  1  0
  5  6  1  0
  6  7  1  0
  7  8  1  0
  8  9  1  1
  9 10  1  0
 10 11  1  0
 11 12  1  0
 11 13  2  0
  8 14  1  0
 14 15  2  0
 15 16  1  0
 16 17  1  0
 17 18  2  0
 18 19  1  0
 19 20  2  0
 20 21  1  0
 21 22  1  0
 22 23  3  0
 21 24  2  0
 16 25  2  0
 25 26  1  0
 26 27  2  0
 27 28  1  0
  7  2  1  0
 13  8  1  0
 27 14  1  0
 28  2  1  0
 24 17  1  0
  1 29  1  0
  1 30  1  0
  1 31  1  0
  3 32  1  0
  3 33  1  0
  4 34  1  0
  4 35  1  0
  5 36  1  0
  5 37  1  0
  7 38  1  1
  9 39  1  0
  9 40  1  0
 12 41  1  0
 12 42  1  0
 15 43  1  0
 18 44  1  0
 19 45  1  0
 20 46  1  0
 24 47  1  0
 25 48  1  0
 26 49  1  0
M  END
$$$$
