@<TRIPOS>MOLECULE
*****
 49 53 0 0 0
SMALL
GASTEIGER

@<TRIPOS>ATOM
      1 C          -3.5758   -2.2367    0.3768 C.3     1  UNL1       -0.0224
      2 C          -2.8362   -0.9540    0.4329 C.3     1  UNL1        0.1364
      3 C          -3.9028    0.1961    0.4402 C.3     1  UNL1       -0.0085
      4 C          -4.5887    0.2715   -0.9029 C.3     1  UNL1       -0.0258
      5 C          -3.6352    0.2090   -2.0843 C.3     1  UNL1        0.0484
      6 O          -2.7677   -0.9135   -1.9418 O.3     1  UNL1       -0.3698
      7 C          -2.0295   -0.7217   -0.8318 C.3     1  UNL1        0.1279
      8 C          -0.5965   -1.1558   -0.8202 C.3     1  UNL1        0.1314
      9 C          -0.4170   -2.6813   -0.3193 C.3     1  UNL1        0.0330
     10 S           1.0810   -3.1341   -1.4373 S.3     1  UNL1       -0.0883
     11 C           0.3802   -1.8487   -2.8111 C.2     1  UNL1        0.1477
     12 N           1.0098   -2.2214   -4.0799 N.pl3   1  UNL1       -0.3380
     13 N          -0.1755   -1.3422   -2.0848 N.2     1  UNL1       -0.2485
     14 C           0.0348   -0.3845    0.1958 C.ar    1  UNL1        0.0256
     15 C           1.2379    0.2122    0.2365 C.ar    1  UNL1       -0.0449
     16 C           1.8660    0.9402    1.3400 C.ar    1  UNL1       -0.0173
     17 C           3.1908    1.4499    1.3144 C.ar    1  UNL1       -0.0167
     18 C           4.1804    0.7072    0.7710 C.ar    1  UNL1       -0.0540
     19 C           5.4521    1.2467    0.5415 C.ar    1  UNL1       -0.0600
     20 C           5.7774    2.6216    0.8584 C.ar    1  UNL1       -0.0443
     21 C           4.6501    3.2083    1.4059 C.ar    1  UNL1        0.0523
     22 C           4.9952    4.5484    2.0063 C.1     1  UNL1        0.0992
     23 N           5.3409    5.7902    2.5672 N.1     1  UNL1       -0.1909
     24 C           3.4821    2.7893    1.6469 C.ar    1  UNL1       -0.0366
     25 C           1.0227    0.9515    2.5274 C.ar    1  UNL1       -0.0506
     26 C          -0.1763    0.3574    2.4801 C.ar    1  UNL1       -0.0190
     27 C          -0.7306   -0.2774    1.4323 C.ar    1  UNL1        0.1270
     28 O          -1.9877   -0.7781    1.5305 O.3     1  UNL1       -0.4829
     29 H          -3.2931   -3.0510    1.0224 H       1  UNL1        0.0269
     30 H          -3.6629   -2.5349   -0.7079 H       1  UNL1        0.0269
     31 H          -4.6557   -1.9974    0.6900 H       1  UNL1        0.0269
     32 H          -4.6847   -0.0797    1.1885 H       1  UNL1        0.0305
     33 H          -3.4370    1.1150    0.7849 H       1  UNL1        0.0305
     34 H          -5.1672    1.2817   -0.9704 H       1  UNL1        0.0289
     35 H          -5.3786   -0.4923   -0.9811 H       1  UNL1        0.0289
     36 H          -4.2186    0.1238   -3.0174 H       1  UNL1        0.0560
     37 H          -2.9764    1.0980   -2.0945 H       1  UNL1        0.0560
     38 H          -1.8722    0.4313   -0.8287 H       1  UNL1        0.0664
     39 H          -1.2448   -3.2252   -0.7691 H       1  UNL1        0.0408
     40 H          -0.1145   -2.7847    0.6689 H       1  UNL1        0.0408
     41 H           1.6693   -1.8865   -4.6772 H       1  UNL1        0.1442
     42 H           0.5873   -3.2270   -4.4022 H       1  UNL1        0.1442
     43 H           1.8563    0.0923   -0.6305 H       1  UNL1        0.0628
     44 H           4.0021   -0.3664    0.5268 H       1  UNL1        0.0624
     45 H           6.2550    0.6164    0.1163 H       1  UNL1        0.0618
     46 H           6.7010    2.9380    0.4821 H       1  UNL1        0.0630
     47 H           2.6280    3.3471    1.9137 H       1  UNL1        0.0636
     48 H           1.4738    1.3856    3.4378 H       1  UNL1        0.0625
     49 H          -0.7492    0.3662    3.4570 H       1  UNL1        0.0654
@<TRIPOS>BOND
     1     2     1    1
     2     2     3    1
     3     3     4    1
     4     4     5    1
     5     5     6    1
     6     6     7    1
     7     7     8    1
     8     8     9    1
     9     9    10    1
    10    10    11    1
    11    11    12    1
    12    11    13    2
    13     8    14    1
    14    14    15   ar
    15    15    16   ar
    16    16    17    1
    17    17    18   ar
    18    18    19   ar
    19    19    20   ar
    20    20    21   ar
    21    21    22    1
    22    22    23    3
    23    21    24   ar
    24    16    25   ar
    25    25    26   ar
    26    26    27   ar
    27    27    28    1
    28     7     2    1
    29    13     8    1
    30    27    14   ar
    31    28     2    1
    32    24    17   ar
    33     1    29    1
    34     1    30    1
    35     1    31    1
    36     3    32    1
    37     3    33    1
    38     4    34    1
    39     4    35    1
    40     5    36    1
    41     5    37    1
    42     7    38    1
    43     9    39    1
    44     9    40    1
    45    12    41    1
    46    12    42    1
    47    15    43    1
    48    18    44    1
    49    19    45    1
    50    20    46    1
    51    24    47    1
    52    25    48    1
    53    26    49    1
