@<TRIPOS>MOLECULE
*****
 52 56 0 0 0
SMALL
GASTEIGER

@<TRIPOS>ATOM
      1 C          -4.0568   -0.0646   -0.4459 C.3     1  UNL1       -0.0373
      2 C          -4.4000    0.7414    0.7246 C.ar    1  UNL1       -0.0202
      3 C          -3.4582    1.0845    1.6454 C.ar    1  UNL1        0.0350
      4 N          -2.0994    0.6920    1.6705 N.pl3   1  UNL1       -0.3127
      5 C          -1.5866   -0.6142    1.6377 C.ar    1  UNL1        0.0602
      6 C          -2.1857   -1.6062    2.3752 C.ar    1  UNL1        0.0915
      7 C          -3.4586   -1.3247    3.0464 C.1     1  UNL1        0.1026
      8 N          -4.4675   -1.0924    3.5765 N.1     1  UNL1       -0.1908
      9 C          -1.6730   -2.8813    2.4947 C.ar    1  UNL1        0.0480
     10 N          -0.4947   -3.1526    1.8316 N.ar    1  UNL1       -0.2464
     11 C           0.0385   -2.1439    1.1269 C.ar    1  UNL1        0.1106
     12 S           1.6142   -2.2026    0.1276 S.2     1  UNL1       -0.0692
     13 C           1.4982   -0.5447   -0.3944 C.ar    1  UNL1        0.0150
     14 C           2.4709    0.1917   -1.2400 C.2     1  UNL1       -0.0430
     15 C           3.6029   -0.3902   -1.5110 C.2     1  UNL1        0.0014
     16 C           4.6255    0.2727   -2.3522 C.2     1  UNL1        0.2395
     17 O           4.3339    1.4030   -2.8270 O.2     1  UNL1       -0.2706
     18 N           5.8421   -0.3211   -2.6017 N.am    1  UNL1       -0.2980
     19 C           6.9301    0.1864   -3.4620 C.3     1  UNL1        0.0150
     20 C           7.9907    0.3769   -2.3567 C.3     1  UNL1       -0.0357
     21 C           7.7957   -0.9064   -1.5491 C.3     1  UNL1       -0.0357
     22 C           6.4759   -1.5330   -2.0593 C.3     1  UNL1        0.0150
     23 C           0.3280   -0.0350    0.1853 C.ar    1  UNL1       -0.0364
     24 C          -0.3536   -0.8970    0.9355 C.ar    1  UNL1        0.0306
     25 C          -3.9107    1.8649    2.7315 C.ar    1  UNL1       -0.0383
     26 C          -5.2112    2.2614    2.8701 C.ar    1  UNL1       -0.0360
     27 C          -6.1385    1.8822    1.8999 C.ar    1  UNL1        0.0468
     28 N          -7.4402    2.1051    1.7799 N.ar    1  UNL1       -0.3606
     29 C          -7.9048    1.5092    0.6488 C.ar    1  UNL1        0.0027
     30 C          -6.8367    0.8940    0.0471 C.ar    1  UNL1       -0.0364
     31 C          -5.7278    1.1434    0.8631 C.ar    1  UNL1        0.0043
     32 H          -2.9935   -0.3462   -0.5043 H       1  UNL1        0.0278
     33 H          -4.2392    0.5941   -1.3411 H       1  UNL1        0.0278
     34 H          -4.6256   -1.0026   -0.5305 H       1  UNL1        0.0278
     35 H          -1.4044    1.4895    1.7428 H       1  UNL1        0.1522
     36 H          -2.1608   -3.6432    3.0808 H       1  UNL1        0.0843
     37 H           2.2720    1.1637   -1.6098 H       1  UNL1        0.0630
     38 H           3.7958   -1.3755   -1.1163 H       1  UNL1        0.0670
     39 H           7.3197   -0.6468   -4.0859 H       1  UNL1        0.0465
     40 H           6.6721    1.0959   -3.9763 H       1  UNL1        0.0465
     41 H           8.9870    0.5106   -2.7479 H       1  UNL1        0.0281
     42 H           7.6016    1.2284   -1.7465 H       1  UNL1        0.0281
     43 H           8.6515   -1.5745   -1.7236 H       1  UNL1        0.0281
     44 H           7.7239   -0.6657   -0.4731 H       1  UNL1        0.0281
     45 H           6.7732   -2.2429   -2.8357 H       1  UNL1        0.0465
     46 H           5.9064   -2.0067   -1.2614 H       1  UNL1        0.0465
     47 H           0.0971    0.9971   -0.0331 H       1  UNL1        0.0636
     48 H          -3.2205    2.1797    3.4939 H       1  UNL1        0.0637
     49 H          -5.5395    2.8567    3.7135 H       1  UNL1        0.0639
     50 H          -8.0312    2.6542    2.4436 H       1  UNL1        0.1653
     51 H          -8.8956    1.5023    0.2838 H       1  UNL1        0.0807
     52 H          -6.8325    0.3332   -0.8614 H       1  UNL1        0.0639
@<TRIPOS>BOND
     1     1     2    1
     2     2     3   ar
     3     3     4    1
     4     4     5    1
     5     5     6   ar
     6     6     7    1
     7     7     8    3
     8     6     9   ar
     9     9    10   ar
    10    10    11   ar
    11    11    12   ar
    12    12    13   ar
    13    13    14    1
    14    14    15    2
    15    15    16    1
    16    16    17    2
    17    16    18   am
    18    18    19    1
    19    19    20    1
    20    20    21    1
    21    21    22    1
    22    13    23   ar
    23    23    24   ar
    24     3    25   ar
    25    25    26   ar
    26    26    27   ar
    27    27    28   ar
    28    28    29   ar
    29    29    30   ar
    30    30    31   ar
    31    31     2   ar
    32    24     5   ar
    33    31    27   ar
    34    24    11   ar
    35    22    18    1
    36     1    32    1
    37     1    33    1
    38     1    34    1
    39     4    35    1
    40     9    36    1
    41    14    37    1
    42    15    38    1
    43    19    39    1
    44    19    40    1
    45    20    41    1
    46    20    42    1
    47    21    43    1
    48    21    44    1
    49    22    45    1
    50    22    46    1
    51    23    47    1
    52    25    48    1
    53    26    49    1
    54    28    50    1
    55    29    51    1
    56    30    52    1
