
     RDKit          3D

 52 56  0  0  0  0  0  0  0  0999 V2000
   -4.0568   -0.0646   -0.4459 C   0  0  0  0  0  0  0  0  0  0  0  0
   -4.4000    0.7414    0.7246 C   0  0  0  0  0  0  0  0  0  0  0  0
   -3.4582    1.0845    1.6454 C   0  0  0  0  0  0  0  0  0  0  0  0
   -2.0994    0.6920    1.6705 N   0  0  0  0  0  0  0  0  0  0  0  0
   -1.5866   -0.6142    1.6377 C   0  0  0  0  0  0  0  0  0  0  0  0
   -2.1857   -1.6062    2.3752 C   0  0  0  0  0  0  0  0  0  0  0  0
   -3.4586   -1.3247    3.0464 C   0  0  0  0  0  0  0  0  0  0  0  0
   -4.4675   -1.0924    3.5765 N   0  0  0  0  0  0  0  0  0  0  0  0
   -1.6730   -2.8813    2.4947 C   0  0  0  0  0  0  0  0  0  0  0  0
   -0.4947   -3.1526    1.8316 N   0  0  0  0  0  0  0  0  0  0  0  0
    0.0385   -2.1439    1.1269 C   0  0  0  0  0  0  0  0  0  0  0  0
    1.6142   -2.2026    0.1276 S   0  0  0  0  0  0  0  0  0  0  0  0
    1.4982   -0.5447   -0.3944 C   0  0  0  0  0  0  0  0  0  0  0  0
    2.4709    0.1917   -1.2400 C   0  0  0  0  0  0  0  0  0  0  0  0
    3.6029   -0.3902   -1.5110 C   0  0  0  0  0  0  0  0  0  0  0  0
    4.6255    0.2727   -2.3522 C   0  0  0  0  0  0  0  0  0  0  0  0
    4.3339    1.4030   -2.8270 O   0  0  0  0  0  0  0  0  0  0  0  0
    5.8421   -0.3211   -2.6017 N   0  0  0  0  0  0  0  0  0  0  0  0
    6.9301    0.1864   -3.4620 C   0  0  0  0  0  0  0  0  0  0  0  0
    7.9907    0.3769   -2.3567 C   0  0  0  0  0  0  0  0  0  0  0  0
    7.7957   -0.9064   -1.5491 C   0  0  0  0  0  0  0  0  0  0  0  0
    6.4759   -1.5330   -2.0593 C   0  0  0  0  0  0  0  0  0  0  0  0
    0.3280   -0.0350    0.1853 C   0  0  0  0  0  0  0  0  0  0  0  0
   -0.3536   -0.8970    0.9355 C   0  0  0  0  0  0  0  0  0  0  0  0
   -3.9107    1.8649    2.7315 C   0  0  0  0  0  0  0  0  0  0  0  0
   -5.2112    2.2614    2.8701 C   0  0  0  0  0  0  0  0  0  0  0  0
   -6.1385    1.8822    1.8999 C   0  0  0  0  0  0  0  0  0  0  0  0
   -7.4402    2.1051    1.7799 N   0  0  0  0  0  0  0  0  0  0  0  0
   -7.9048    1.5092    0.6488 C   0  0  0  0  0  0  0  0  0  0  0  0
   -6.8367    0.8940    0.0471 C   0  0  0  0  0  0  0  0  0  0  0  0
   -5.7278    1.1434    0.8631 C   0  0  0  0  0  0  0  0  0  0  0  0
   -2.9935   -0.3462   -0.5043 H   0  0  0  0  0  0  0  0  0  0  0  0
   -4.2392    0.5941   -1.3411 H   0  0  0  0  0  0  0  0  0  0  0  0
   -4.6256   -1.0026   -0.5305 H   0  0  0  0  0  0  0  0  0  0  0  0
   -1.4044    1.4895    1.7428 H   0  0  0  0  0  0  0  0  0  0  0  0
   -2.1608   -3.6432    3.0808 H   0  0  0  0  0  0  0  0  0  0  0  0
    2.2720    1.1637   -1.6098 H   0  0  0  0  0  0  0  0  0  0  0  0
    3.7958   -1.3755   -1.1163 H   0  0  0  0  0  0  0  0  0  0  0  0
    7.3197   -0.6468   -4.0859 H   0  0  0  0  0  0  0  0  0  0  0  0
    6.6721    1.0959   -3.9763 H   0  0  0  0  0  0  0  0  0  0  0  0
    8.9870    0.5106   -2.7479 H   0  0  0  0  0  0  0  0  0  0  0  0
    7.6016    1.2284   -1.7465 H   0  0  0  0  0  0  0  0  0  0  0  0
    8.6515   -1.5745   -1.7236 H   0  0  0  0  0  0  0  0  0  0  0  0
    7.7239   -0.6657   -0.4731 H   0  0  0  0  0  0  0  0  0  0  0  0
    6.7732   -2.2429   -2.8357 H   0  0  0  0  0  0  0  0  0  0  0  0
    5.9064   -2.0067   -1.2614 H   0  0  0  0  0  0  0  0  0  0  0  0
    0.0971    0.9971   -0.0331 H   0  0  0  0  0  0  0  0  0  0  0  0
   -3.2205    2.1797    3.4939 H   0  0  0  0  0  0  0  0  0  0  0  0
   -5.5395    2.8567    3.7135 H   0  0  0  0  0  0  0  0  0  0  0  0
   -8.0312    2.6542    2.4436 H   0  0  0  0  0  0  0  0  0  0  0  0
   -8.8956    1.5023    0.2838 H   0  0  0  0  0  0  0  0  0  0  0  0
   -6.8325    0.3332   -0.8614 H   0  0  0  0  0  0  0  0  0  0  0  0
  1  2  1  0
  2  3  2  0
  3  4  1  0
  4  5  1  0
  5  6  2  0
  6  7  1  0
  7  8  3  0
  6  9  1  0
  9 10  2  0
 10 11  1  0
 11 12  1  0
 12 13  1  0
 13 14  1  0
 14 15  2  0
 15 16  1  0
 16 17  2  0
 16 18  1  0
 18 19  1  0
 19 20  1  0
 20 21  1  0
 21 22  1  0
 13 23  2  0
 23 24  1  0
  3 25  1  0
 25 26  2  0
 26 27  1  0
 27 28  1  0
 28 29  1  0
 29 30  2  0
 30 31  1  0
 31  2  1  0
 24  5  1  0
 31 27  2  0
 24 11  2  0
 22 18  1  0
  1 32  1  0
  1 33  1  0
  1 34  1  0
  4 35  1  0
  9 36  1  0
 14 37  1  0
 15 38  1  0
 19 39  1  0
 19 40  1  0
 20 41  1  0
 20 42  1  0
 21 43  1  0
 21 44  1  0
 22 45  1  0
 22 46  1  0
 23 47  1  0
 25 48  1  0
 26 49  1  0
 28 50  1  0
 29 51  1  0
 30 52  1  0
M  END
$$$$
