
     RDKit          3D

 52 54  0  0  0  0  0  0  0  0999 V2000
    7.6454   -1.1353    0.6077 C   0  0  0  0  0  0  0  0  0  0  0  0
    6.1807   -0.9764    0.6690 C   0  0  0  0  0  0  0  0  0  0  0  0
    5.4306   -1.7482    1.5270 C   0  0  0  0  0  0  0  0  0  0  0  0
    4.0614   -1.5872    1.5708 C   0  0  0  0  0  0  0  0  0  0  0  0
    3.4135   -0.6621    0.7684 C   0  0  0  0  0  0  0  0  0  0  0  0
    1.9757   -0.4670    0.7863 C   0  0  0  0  0  0  0  0  0  0  0  0
    1.1273   -1.5479    1.0586 C   0  0  0  0  0  0  0  0  0  0  0  0
   -0.2369   -1.3880    1.0773 C   0  0  0  0  0  0  0  0  0  0  0  0
   -0.8222   -0.1657    0.8302 C   0  0  0  0  0  0  0  0  0  0  0  0
   -2.2087    0.0298    0.8415 O   0  0  0  0  0  0  0  0  0  0  0  0
   -2.9812   -1.1198    1.1263 C   0  0  0  0  0  0  0  0  0  0  0  0
   -4.4458   -0.7683    1.1015 C   0  0  0  0  0  0  0  0  0  0  0  0
   -4.8071   -0.2790   -0.1779 N   0  0  0  0  0  0  0  0  0  0  0  0
   -6.1735    0.0807   -0.3488 C   0  0  0  0  0  0  0  0  0  0  0  0
   -4.1404   -0.8158   -1.3075 C   0  0  0  0  0  0  0  0  0  0  0  0
   -4.4817   -2.2343   -1.5336 C   0  0  0  0  0  0  0  0  0  0  0  0
   -3.9279   -2.8063   -2.5122 O   0  0  0  0  0  0  0  0  0  0  0  0
   -5.3580   -2.9774   -0.7577 O   0  0  0  0  0  0  0  0  0  0  0  0
    0.0261    0.9026    0.5606 C   0  0  0  0  0  0  0  0  0  0  0  0
   -0.5763    2.1943    0.2921 C   0  0  0  0  0  0  0  0  0  0  0  0
   -1.5029    2.6019    1.0163 O   0  0  0  0  0  0  0  0  0  0  0  0
   -0.1134    3.0071   -0.8010 C   0  0  0  0  0  0  0  0  0  0  0  0
   -0.5061    4.2230   -1.2541 C   0  0  0  0  0  0  0  0  0  0  0  0
    0.1114    4.7576   -2.3125 C   0  0  0  0  0  0  0  0  0  0  0  0
    1.1376    4.0380   -2.9075 C   0  0  0  0  0  0  0  0  0  0  0  0
    1.1787    2.5666   -1.8867 S   0  0  0  0  0  0  0  0  0  0  0  0
    1.3978    0.7587    0.5384 C   0  0  0  0  0  0  0  0  0  0  0  0
    4.1774    0.1041   -0.0861 C   0  0  0  0  0  0  0  0  0  0  0  0
    5.5561   -0.0508   -0.1372 C   0  0  0  0  0  0  0  0  0  0  0  0
    8.0142   -1.3292    1.6363 H   0  0  0  0  0  0  0  0  0  0  0  0
    7.8564   -2.0085   -0.0518 H   0  0  0  0  0  0  0  0  0  0  0  0
    8.0797   -0.2271    0.1662 H   0  0  0  0  0  0  0  0  0  0  0  0
    5.9413   -2.4628    2.1451 H   0  0  0  0  0  0  0  0  0  0  0  0
    3.4799   -2.2067    2.2561 H   0  0  0  0  0  0  0  0  0  0  0  0
    1.5935   -2.5097    1.2525 H   0  0  0  0  0  0  0  0  0  0  0  0
   -0.9027   -2.2377    1.2903 H   0  0  0  0  0  0  0  0  0  0  0  0
   -2.7497   -1.9668    0.4223 H   0  0  0  0  0  0  0  0  0  0  0  0
   -2.7316   -1.5232    2.1333 H   0  0  0  0  0  0  0  0  0  0  0  0
   -5.0519   -1.6916    1.2947 H   0  0  0  0  0  0  0  0  0  0  0  0
   -4.6345   -0.0383    1.9213 H   0  0  0  0  0  0  0  0  0  0  0  0
   -6.8063   -0.1906    0.5304 H   0  0  0  0  0  0  0  0  0  0  0  0
   -6.2272    1.1900   -0.4019 H   0  0  0  0  0  0  0  0  0  0  0  0
   -6.6253   -0.2798   -1.3092 H   0  0  0  0  0  0  0  0  0  0  0  0
   -4.3910   -0.1829   -2.1931 H   0  0  0  0  0  0  0  0  0  0  0  0
   -3.0471   -0.7425   -1.1651 H   0  0  0  0  0  0  0  0  0  0  0  0
   -5.0698   -3.9161   -0.4976 H   0  0  0  0  0  0  0  0  0  0  0  0
   -1.3534    4.7393   -0.7064 H   0  0  0  0  0  0  0  0  0  0  0  0
   -0.1732    5.7590   -2.7268 H   0  0  0  0  0  0  0  0  0  0  0  0
    1.7715    4.2653   -3.7611 H   0  0  0  0  0  0  0  0  0  0  0  0
    2.0419    1.6088    0.3261 H   0  0  0  0  0  0  0  0  0  0  0  0
    3.7395    0.8398   -0.7361 H   0  0  0  0  0  0  0  0  0  0  0  0
    6.1080    0.5766   -0.8254 H   0  0  0  0  0  0  0  0  0  0  0  0
  1  2  1  0
  2  3  2  0
  3  4  1  0
  4  5  2  0
  5  6  1  0
  6  7  2  0
  7  8  1  0
  8  9  2  0
  9 10  1  0
 10 11  1  0
 11 12  1  0
 12 13  1  0
 13 14  1  0
 13 15  1  0
 15 16  1  0
 16 17  2  0
 16 18  1  0
  9 19  1  0
 19 20  1  0
 20 21  2  0
 20 22  1  0
 22 23  2  0
 23 24  1  0
 24 25  2  0
 25 26  1  0
 19 27  2  0
  5 28  1  0
 28 29  2  0
 29  2  1  0
 27  6  1  0
 26 22  1  0
  1 30  1  0
  1 31  1  0
  1 32  1  0
  3 33  1  0
  4 34  1  0
  7 35  1  0
  8 36  1  0
 11 37  1  0
 11 38  1  0
 12 39  1  0
 12 40  1  0
 14 41  1  0
 14 42  1  0
 14 43  1  0
 15 44  1  0
 15 45  1  0
 18 46  1  0
 23 47  1  0
 24 48  1  0
 25 49  1  0
 27 50  1  0
 28 51  1  0
 29 52  1  0
M  END
$$$$
