@<TRIPOS>MOLECULE
*****
 52 54 0 0 0
SMALL
GASTEIGER

@<TRIPOS>ATOM
      1 C           7.6454   -1.1353    0.6077 C.3     1  UNL1       -0.0397
      2 C           6.1807   -0.9764    0.6690 C.ar    1  UNL1       -0.0504
      3 C           5.4306   -1.7482    1.5270 C.ar    1  UNL1       -0.0583
      4 C           4.0614   -1.5872    1.5708 C.ar    1  UNL1       -0.0538
      5 C           3.4135   -0.6621    0.7684 C.ar    1  UNL1       -0.0178
      6 C           1.9757   -0.4670    0.7863 C.ar    1  UNL1       -0.0170
      7 C           1.1273   -1.5479    1.0586 C.ar    1  UNL1       -0.0505
      8 C          -0.2369   -1.3880    1.0773 C.ar    1  UNL1       -0.0187
      9 C          -0.8222   -0.1657    0.8302 C.ar    1  UNL1        0.1314
     10 O          -2.2087    0.0298    0.8415 O.3     1  UNL1       -0.4900
     11 C          -2.9812   -1.1198    1.1263 C.3     1  UNL1        0.1023
     12 C          -4.4458   -0.7683    1.1015 C.3     1  UNL1        0.0334
     13 N          -4.8071   -0.2790   -0.1779 N.3     1  UNL1       -0.2923
     14 C          -6.1735    0.0807   -0.3488 C.3     1  UNL1       -0.0121
     15 C          -4.1404   -0.8158   -1.3075 C.3     1  UNL1        0.0966
     16 C          -4.4817   -2.2343   -1.5336 C.2     1  UNL1        0.3189
     17 O          -3.9279   -2.8063   -2.5122 O.2     1  UNL1       -0.2496
     18 O          -5.3580   -2.9774   -0.7577 O.3     1  UNL1       -0.4797
     19 C           0.0261    0.9026    0.5606 C.ar    1  UNL1        0.0649
     20 C          -0.5763    2.1943    0.2921 C.2     1  UNL1        0.2032
     21 O          -1.5029    2.6019    1.0163 O.2     1  UNL1       -0.2860
     22 C          -0.1134    3.0071   -0.8010 C.ar    1  UNL1        0.0595
     23 C          -0.5061    4.2230   -1.2541 C.ar    1  UNL1       -0.0438
     24 C           0.1114    4.7576   -2.3125 C.ar    1  UNL1       -0.0540
     25 C           1.1376    4.0380   -2.9075 C.ar    1  UNL1       -0.0236
     26 S           1.1787    2.5666   -1.8867 S.2     1  UNL1       -0.0934
     27 C           1.3978    0.7587    0.5384 C.ar    1  UNL1       -0.0396
     28 C           4.1774    0.1041   -0.0861 C.ar    1  UNL1       -0.0538
     29 C           5.5561   -0.0508   -0.1372 C.ar    1  UNL1       -0.0583
     30 H           8.0142   -1.3292    1.6363 H       1  UNL1        0.0278
     31 H           7.8564   -2.0085   -0.0518 H       1  UNL1        0.0278
     32 H           8.0797   -0.2271    0.1662 H       1  UNL1        0.0278
     33 H           5.9413   -2.4628    2.1451 H       1  UNL1        0.0620
     34 H           3.4799   -2.2067    2.2561 H       1  UNL1        0.0624
     35 H           1.5935   -2.5097    1.2525 H       1  UNL1        0.0625
     36 H          -0.9027   -2.2377    1.2903 H       1  UNL1        0.0654
     37 H          -2.7497   -1.9668    0.4223 H       1  UNL1        0.0709
     38 H          -2.7316   -1.5232    2.1333 H       1  UNL1        0.0709
     39 H          -5.0519   -1.6916    1.2947 H       1  UNL1        0.0460
     40 H          -4.6345   -0.0383    1.9213 H       1  UNL1        0.0460
     41 H          -6.8063   -0.1906    0.5304 H       1  UNL1        0.0391
     42 H          -6.2272    1.1900   -0.4019 H       1  UNL1        0.0391
     43 H          -6.6253   -0.2798   -1.3092 H       1  UNL1        0.0391
     44 H          -4.3910   -0.1829   -2.1931 H       1  UNL1        0.0541
     45 H          -3.0471   -0.7425   -1.1651 H       1  UNL1        0.0541
     46 H          -5.0698   -3.9161   -0.4976 H       1  UNL1        0.2951
     47 H          -1.3534    4.7393   -0.7064 H       1  UNL1        0.0630
     48 H          -0.1732    5.7590   -2.7268 H       1  UNL1        0.0623
     49 H           1.7715    4.2653   -3.7611 H       1  UNL1        0.0693
     50 H           2.0419    1.6088    0.3261 H       1  UNL1        0.0632
     51 H           3.7395    0.8398   -0.7361 H       1  UNL1        0.0624
     52 H           6.1080    0.5766   -0.8254 H       1  UNL1        0.0620
@<TRIPOS>BOND
     1     1     2    1
     2     2     3   ar
     3     3     4   ar
     4     4     5   ar
     5     5     6    1
     6     6     7   ar
     7     7     8   ar
     8     8     9   ar
     9     9    10    1
    10    10    11    1
    11    11    12    1
    12    12    13    1
    13    13    14    1
    14    13    15    1
    15    15    16    1
    16    16    17    2
    17    16    18    1
    18     9    19   ar
    19    19    20    1
    20    20    21    2
    21    20    22    1
    22    22    23   ar
    23    23    24   ar
    24    24    25   ar
    25    25    26   ar
    26    19    27   ar
    27     5    28   ar
    28    28    29   ar
    29    29     2   ar
    30    27     6   ar
    31    26    22   ar
    32     1    30    1
    33     1    31    1
    34     1    32    1
    35     3    33    1
    36     4    34    1
    37     7    35    1
    38     8    36    1
    39    11    37    1
    40    11    38    1
    41    12    39    1
    42    12    40    1
    43    14    41    1
    44    14    42    1
    45    14    43    1
    46    15    44    1
    47    15    45    1
    48    18    46    1
    49    23    47    1
    50    24    48    1
    51    25    49    1
    52    27    50    1
    53    28    51    1
    54    29    52    1
