
     RDKit          3D

 48 51  0  0  0  0  0  0  0  0999 V2000
   -2.3619   -2.7375   -1.1813 C   0  0  0  0  0  0  0  0  0  0  0  0
   -3.3627   -1.6632   -0.8410 C   0  0  1  0  0  0  0  0  0  0  0  0
   -4.0222   -1.9053    0.4989 C   0  0  0  0  0  0  0  0  0  0  0  0
   -4.4943   -0.5461    0.8633 C   0  0  0  0  0  0  0  0  0  0  0  0
   -5.5049   -0.0472    1.6523 C   0  0  0  0  0  0  0  0  0  0  0  0
   -5.6755    1.3222    1.7824 C   0  0  0  0  0  0  0  0  0  0  0  0
   -4.8554    2.2225    1.1391 C   0  0  0  0  0  0  0  0  0  0  0  0
   -3.8466    1.7108    0.3514 C   0  0  0  0  0  0  0  0  0  0  0  0
   -3.6474    0.3371    0.1989 C   0  0  0  0  0  0  0  0  0  0  0  0
   -2.6906   -0.3786   -0.5482 N   0  0  0  0  0  0  0  0  0  0  0  0
   -1.3972    0.0090   -0.9379 C   0  0  0  0  0  0  0  0  0  0  0  0
   -0.7181   -0.8552   -1.5853 O   0  0  0  0  0  0  0  0  0  0  0  0
   -0.7457    1.2929   -0.6810 C   0  0  0  0  0  0  0  0  0  0  0  0
    0.6785    1.2938   -1.1866 C   0  0  0  0  0  0  0  0  0  0  0  0
    1.6418    0.8985   -0.3398 N   0  0  0  0  0  0  0  0  0  0  0  0
    2.9499    0.8661   -0.7068 C   0  0  0  0  0  0  0  0  0  0  0  0
    3.9128    0.4371    0.2429 N   0  0  0  0  0  0  0  0  0  0  0  0
    5.3173    0.3446   -0.0186 C   0  0  0  0  0  0  0  0  0  0  0  0
    5.9375   -0.9144    0.6006 C   0  0  0  0  0  0  0  0  0  0  0  0
    5.4450   -1.1844    1.8525 O   0  0  0  0  0  0  0  0  0  0  0  0
    4.0574   -1.3481    1.8081 C   0  0  0  0  0  0  0  0  0  0  0  0
    3.4851    0.0565    1.5866 C   0  0  0  0  0  0  0  0  0  0  0  0
    3.2486    1.2534   -1.9777 C   0  0  0  0  0  0  0  0  0  0  0  0
    2.2375    1.6634   -2.8516 C   0  0  0  0  0  0  0  0  0  0  0  0
    2.5358    2.0154   -4.0162 O   0  0  0  0  0  0  0  0  0  0  0  0
    0.9439    1.6804   -2.4436 N   0  0  0  0  0  0  0  0  0  0  0  0
   -1.5148   -2.7632   -0.4971 H   0  0  0  0  0  0  0  0  0  0  0  0
   -2.9053   -3.7173   -1.0389 H   0  0  0  0  0  0  0  0  0  0  0  0
   -2.0957   -2.6749   -2.2417 H   0  0  0  0  0  0  0  0  0  0  0  0
   -4.1227   -1.5547   -1.6255 H   0  0  0  0  0  0  0  0  0  0  0  0
   -3.2185   -2.2301    1.1914 H   0  0  0  0  0  0  0  0  0  0  0  0
   -4.8512   -2.6355    0.4389 H   0  0  0  0  0  0  0  0  0  0  0  0
   -6.1744   -0.7468    2.1774 H   0  0  0  0  0  0  0  0  0  0  0  0
   -6.4712    1.6879    2.4041 H   0  0  0  0  0  0  0  0  0  0  0  0
   -5.0449    3.2720    1.2849 H   0  0  0  0  0  0  0  0  0  0  0  0
   -3.2209    2.4146   -0.1401 H   0  0  0  0  0  0  0  0  0  0  0  0
   -1.2536    2.1113   -1.2836 H   0  0  0  0  0  0  0  0  0  0  0  0
   -0.7723    1.5666    0.3755 H   0  0  0  0  0  0  0  0  0  0  0  0
    5.8002    1.2129    0.5176 H   0  0  0  0  0  0  0  0  0  0  0  0
    5.6205    0.3917   -1.0584 H   0  0  0  0  0  0  0  0  0  0  0  0
    7.0313   -0.6760    0.7234 H   0  0  0  0  0  0  0  0  0  0  0  0
    5.8096   -1.7911   -0.0708 H   0  0  0  0  0  0  0  0  0  0  0  0
    3.8471   -1.8966    0.8478 H   0  0  0  0  0  0  0  0  0  0  0  0
    3.6416   -1.8353    2.6868 H   0  0  0  0  0  0  0  0  0  0  0  0
    2.3844    0.0655    1.6755 H   0  0  0  0  0  0  0  0  0  0  0  0
    3.9601    0.7410    2.3181 H   0  0  0  0  0  0  0  0  0  0  0  0
    4.2706    1.2443   -2.3122 H   0  0  0  0  0  0  0  0  0  0  0  0
    0.2110    1.9900   -3.1144 H   0  0  0  0  0  0  0  0  0  0  0  0
  1  2  1  0
  2  3  1  0
  3  4  1  0
  4  5  2  0
  5  6  1  0
  6  7  2  0
  7  8  1  0
  8  9  2  0
  9 10  1  0
 10 11  1  0
 11 12  2  0
 11 13  1  0
 13 14  1  0
 14 15  2  0
 15 16  1  0
 16 17  1  0
 17 18  1  0
 18 19  1  0
 19 20  1  0
 20 21  1  0
 21 22  1  0
 16 23  2  0
 23 24  1  0
 24 25  2  0
 24 26  1  0
 10  2  1  0
 26 14  1  0
  9  4  1  0
 22 17  1  0
  1 27  1  0
  1 28  1  0
  1 29  1  0
  2 30  1  6
  3 31  1  0
  3 32  1  0
  5 33  1  0
  6 34  1  0
  7 35  1  0
  8 36  1  0
 13 37  1  0
 13 38  1  0
 18 39  1  0
 18 40  1  0
 19 41  1  0
 19 42  1  0
 21 43  1  0
 21 44  1  0
 22 45  1  0
 22 46  1  0
 23 47  1  0
 26 48  1  0
M  END
$$$$
