@<TRIPOS>MOLECULE
*****
 48 51 0 0 0
SMALL
GASTEIGER

@<TRIPOS>ATOM
      1 C          -2.3619   -2.7375   -1.1813 C.3     1  UNL1       -0.0457
      2 C          -3.3627   -1.6632   -0.8410 C.3     1  UNL1        0.0323
      3 C          -4.0222   -1.9053    0.4989 C.3     1  UNL1       -0.0071
      4 C          -4.4943   -0.5461    0.8633 C.ar    1  UNL1       -0.0242
      5 C          -5.5049   -0.0472    1.6523 C.ar    1  UNL1       -0.0567
      6 C          -5.6755    1.3222    1.7824 C.ar    1  UNL1       -0.0614
      7 C          -4.8554    2.2225    1.1391 C.ar    1  UNL1       -0.0600
      8 C          -3.8466    1.7108    0.3514 C.ar    1  UNL1       -0.0400
      9 C          -3.6474    0.3371    0.1989 C.ar    1  UNL1        0.0398
     10 N          -2.6906   -0.3786   -0.5482 N.am    1  UNL1       -0.2677
     11 C          -1.3972    0.0090   -0.9379 C.2     1  UNL1        0.2273
     12 O          -0.7181   -0.8552   -1.5853 O.2     1  UNL1       -0.2748
     13 C          -0.7457    1.2929   -0.6810 C.3     1  UNL1        0.0826
     14 C           0.6785    1.2938   -1.1866 C.ar    1  UNL1        0.1206
     15 N           1.6418    0.8985   -0.3398 N.ar    1  UNL1       -0.2186
     16 C           2.9499    0.8661   -0.7068 C.ar    1  UNL1        0.1285
     17 N           3.9128    0.4371    0.2429 N.pl3   1  UNL1       -0.3106
     18 C           5.3173    0.3446   -0.0186 C.3     1  UNL1        0.0370
     19 C           5.9375   -0.9144    0.6006 C.3     1  UNL1        0.0634
     20 O           5.4450   -1.1844    1.8525 O.3     1  UNL1       -0.3767
     21 C           4.0574   -1.3481    1.8081 C.3     1  UNL1        0.0634
     22 C           3.4851    0.0565    1.5866 C.3     1  UNL1        0.0370
     23 C           3.2486    1.2534   -1.9777 C.ar    1  UNL1        0.0427
     24 C           2.2375    1.6634   -2.8516 C.ar    1  UNL1        0.2533
     25 O           2.5358    2.0154   -4.0162 O.2     1  UNL1       -0.2677
     26 N           0.9439    1.6804   -2.4436 N.ar    1  UNL1       -0.3104
     27 H          -1.5148   -2.7632   -0.4971 H       1  UNL1        0.0248
     28 H          -2.9053   -3.7173   -1.0389 H       1  UNL1        0.0248
     29 H          -2.0957   -2.6749   -2.2417 H       1  UNL1        0.0248
     30 H          -4.1227   -1.5547   -1.6255 H       1  UNL1        0.0505
     31 H          -3.2185   -2.2301    1.1914 H       1  UNL1        0.0332
     32 H          -4.8512   -2.6355    0.4389 H       1  UNL1        0.0332
     33 H          -6.1744   -0.7468    2.1774 H       1  UNL1        0.0621
     34 H          -6.4712    1.6879    2.4041 H       1  UNL1        0.0618
     35 H          -5.0449    3.2720    1.2849 H       1  UNL1        0.0618
     36 H          -3.2209    2.4146   -0.1401 H       1  UNL1        0.0636
     37 H          -1.2536    2.1113   -1.2836 H       1  UNL1        0.0438
     38 H          -0.7723    1.5666    0.3755 H       1  UNL1        0.0438
     39 H           5.8002    1.2129    0.5176 H       1  UNL1        0.0487
     40 H           5.6205    0.3917   -1.0584 H       1  UNL1        0.0487
     41 H           7.0313   -0.6760    0.7234 H       1  UNL1        0.0575
     42 H           5.8096   -1.7911   -0.0708 H       1  UNL1        0.0575
     43 H           3.8471   -1.8966    0.8478 H       1  UNL1        0.0575
     44 H           3.6416   -1.8353    2.6868 H       1  UNL1        0.0575
     45 H           2.3844    0.0655    1.6755 H       1  UNL1        0.0487
     46 H           3.9601    0.7410    2.3181 H       1  UNL1        0.0487
     47 H           4.2706    1.2443   -2.3122 H       1  UNL1        0.0706
     48 H           0.2110    1.9900   -3.1144 H       1  UNL1        0.1700
@<TRIPOS>BOND
     1     1     2    1
     2     2     3    1
     3     3     4    1
     4     4     5   ar
     5     5     6   ar
     6     6     7   ar
     7     7     8   ar
     8     8     9   ar
     9     9    10    1
    10    10    11   am
    11    11    12    2
    12    11    13    1
    13    13    14    1
    14    14    15   ar
    15    15    16   ar
    16    16    17    1
    17    17    18    1
    18    18    19    1
    19    19    20    1
    20    20    21    1
    21    21    22    1
    22    16    23   ar
    23    23    24   ar
    24    24    25    2
    25    24    26   ar
    26    10     2    1
    27    26    14   ar
    28     9     4   ar
    29    22    17    1
    30     1    27    1
    31     1    28    1
    32     1    29    1
    33     2    30    1
    34     3    31    1
    35     3    32    1
    36     5    33    1
    37     6    34    1
    38     7    35    1
    39     8    36    1
    40    13    37    1
    41    13    38    1
    42    18    39    1
    43    18    40    1
    44    19    41    1
    45    19    42    1
    46    21    43    1
    47    21    44    1
    48    22    45    1
    49    22    46    1
    50    23    47    1
    51    26    48    1
