@<TRIPOS>MOLECULE
*****
 37 39 0 0 0
SMALL
GASTEIGER

@<TRIPOS>ATOM
      1 C          -3.5828   -0.6484   -0.7640 C.3     1  UNL1       -0.0402
      2 C          -2.7646   -0.6066    0.5153 C.3     1  UNL1        0.0575
      3 C          -2.7199   -2.0019    1.0713 C.3     1  UNL1       -0.0402
      4 C          -3.4409    0.3693    1.4450 C.3     1  UNL1       -0.0402
      5 N          -1.4194   -0.1733    0.1752 N.ar    1  UNL1       -0.2403
      6 N          -0.3147   -0.6279    0.7296 N.ar    1  UNL1       -0.1681
      7 C           0.7617   -0.0070    0.1768 C.ar    1  UNL1        0.1053
      8 C           2.1525   -0.2482    0.5067 C.ar    1  UNL1        0.0029
      9 C           3.0616    0.7079    0.8631 C.ar    1  UNL1       -0.0511
     10 C           4.3690    0.3342    1.1215 C.ar    1  UNL1       -0.0428
     11 C           4.7795   -0.9789    1.0300 C.ar    1  UNL1        0.0410
     12 CL          6.4542   -1.4221    1.3660 Cl      1  UNL1       -0.0835
     13 C           3.8605   -1.9320    0.6727 C.ar    1  UNL1       -0.0428
     14 C           2.5769   -1.5804    0.4163 C.ar    1  UNL1       -0.0511
     15 C           0.2632    0.8576   -0.7533 C.ar    1  UNL1        0.0859
     16 C           0.8286    1.7533   -1.6473 C.ar    1  UNL1        0.1308
     17 N           2.2529    1.8450   -1.6728 N.pl3   1  UNL1       -0.3425
     18 N           0.0514    2.4672   -2.4535 N.ar    1  UNL1       -0.2204
     19 C          -1.2741    2.3411   -2.4242 C.ar    1  UNL1        0.1204
     20 N          -1.8926    1.4972   -1.5909 N.ar    1  UNL1       -0.2161
     21 C          -1.1404    0.7578   -0.7603 C.ar    1  UNL1        0.1643
     22 H          -3.9177    0.4138   -0.9421 H       1  UNL1        0.0253
     23 H          -2.9989   -1.0363   -1.6113 H       1  UNL1        0.0253
     24 H          -4.5102   -1.2246   -0.5742 H       1  UNL1        0.0253
     25 H          -2.1605   -2.6263    0.3435 H       1  UNL1        0.0253
     26 H          -3.7651   -2.3641    1.1564 H       1  UNL1        0.0253
     27 H          -2.2201   -2.0548    2.0454 H       1  UNL1        0.0253
     28 H          -3.0069    0.3742    2.4554 H       1  UNL1        0.0253
     29 H          -4.5267    0.1823    1.4201 H       1  UNL1        0.0253
     30 H          -3.2819    1.3876    0.9931 H       1  UNL1        0.0253
     31 H           2.7405    1.7466    0.9595 H       1  UNL1        0.0625
     32 H           5.1051    1.0737    1.4043 H       1  UNL1        0.0632
     33 H           4.1862   -2.9810    0.5994 H       1  UNL1        0.0632
     34 H           1.8670   -2.3522    0.1352 H       1  UNL1        0.0625
     35 H           2.8886    1.1378   -2.0783 H       1  UNL1        0.1437
     36 H           2.6750    2.6958   -1.2465 H       1  UNL1        0.1437
     37 H          -1.9370    2.9234   -3.0832 H       1  UNL1        0.1048
@<TRIPOS>BOND
     1     1     2    1
     2     2     3    1
     3     2     4    1
     4     2     5    1
     5     5     6   ar
     6     6     7   ar
     7     7     8    1
     8     8     9   ar
     9     9    10   ar
    10    10    11   ar
    11    11    12    1
    12    11    13   ar
    13    13    14   ar
    14     7    15   ar
    15    15    16   ar
    16    16    17    1
    17    16    18   ar
    18    18    19   ar
    19    19    20   ar
    20    20    21   ar
    21    21     5   ar
    22    14     8   ar
    23    21    15   ar
    24     1    22    1
    25     1    23    1
    26     1    24    1
    27     3    25    1
    28     3    26    1
    29     3    27    1
    30     4    28    1
    31     4    29    1
    32     4    30    1
    33     9    31    1
    34    10    32    1
    35    13    33    1
    36    14    34    1
    37    17    35    1
    38    17    36    1
    39    19    37    1
