@<TRIPOS>MOLECULE
*****
 56 58 0 0 0
SMALL
GASTEIGER

@<TRIPOS>ATOM
      1 C           1.0677    0.1067    0.0089 C.3     1  UNL1        0.0815
      2 S          -0.5923   -0.5219    0.0574 S.O2    1  UNL1        0.0769
      3 O          -1.6993    0.7399   -0.1022 O.3     1  UNL1       -0.2542
      4 O          -0.8345   -1.4497   -1.1087 O.2     1  UNL1       -0.1477
      5 O          -0.8753   -1.2632    1.3111 O.2     1  UNL1       -0.1477
      6 N           7.7885   -1.3724    0.0377 N.pl3   2  UNL2       -0.3413
      7 C           6.5090   -0.9570    0.5053 C.ar    2  UNL2        0.1472
      8 C           5.7343   -0.2056   -0.3532 C.ar    2  UNL2        0.1472
      9 N           5.8907    0.2658   -1.5951 N.ar    2  UNL2       -0.2306
     10 C           4.7630    0.9513   -1.9083 C.ar    2  UNL2        0.0984
     11 N           3.8533    0.9430   -0.8876 N.ar    2  UNL2       -0.3127
     12 C           2.5683    1.5993   -0.9845 C.3     2  UNL2        0.0495
     13 C           1.4951    0.7560   -1.5603 C.3     2  UNL2        0.0664
     14 O           1.1143   -0.3766   -0.9644 O.3     2  UNL2       -0.3659
     15 C           0.5875   -0.4024    0.2775 C.3     2  UNL2        0.1488
     16 P          -0.9373    0.5024    0.5360 P.3     2  UNL2        0.3586
     17 O          -1.0622    0.7530    2.0356 O.2     2  UNL2       -0.2560
     18 O          -1.0726    1.9308   -0.3078 O.3     2  UNL2       -0.3063
     19 C          -2.1666    1.8835   -1.1384 C.3     2  UNL2        0.0597
     20 C          -3.4690    1.5728   -0.4738 C.3     2  UNL2        0.0021
     21 C          -3.4234    0.3843    0.4277 C.3     2  UNL2        0.0951
     22 O          -2.3222   -0.4225    0.1332 O.3     2  UNL2       -0.2982
     23 C          -4.6693   -0.3921    0.5062 C.ar    2  UNL2       -0.0169
     24 C          -4.4729   -1.5716    1.2335 C.ar    2  UNL2       -0.0377
     25 C          -5.5106   -2.4719    1.4442 C.ar    2  UNL2        0.0413
     26 CL         -5.3174   -3.9595    2.3458 Cl      2  UNL2       -0.0835
     27 C          -6.7636   -2.2228    0.9390 C.ar    2  UNL2       -0.0434
     28 C          -6.9459   -1.0636    0.2273 C.ar    2  UNL2       -0.0600
     29 C          -5.9324   -0.1564    0.0058 C.ar    2  UNL2       -0.0560
     30 C           4.4886    0.2214    0.0500 C.ar    2  UNL2        0.1654
     31 N           4.0664   -0.1067    1.2670 N.ar    2  UNL2       -0.2160
     32 C           4.8051   -0.8375    2.1187 C.ar    2  UNL2        0.1205
     33 N           6.0300   -1.2675    1.7447 N.ar    2  UNL2       -0.2188
     34 H           1.3678    0.1573   -1.0561 H       1  UNL1        0.0489
     35 H           1.7665   -0.5124    0.6184 H       1  UNL1        0.0489
     36 H           1.0607    1.1240    0.4209 H       1  UNL1        0.0489
     37 H          -1.2612    1.6192   -0.1499 H       1  UNL1        0.2445
     38 H           8.4282   -0.7459    0.6051 H       2  UNL2        0.1438
     39 H           8.1645   -2.0635   -0.6464 H       2  UNL2        0.1438
     40 H           4.7075    1.4171   -2.9036 H       2  UNL2        0.1029
     41 H           2.7033    2.4729   -1.6613 H       2  UNL2        0.0515
     42 H           2.3178    2.0531   -0.0024 H       2  UNL2        0.0515
     43 H           0.5922    1.3732   -1.8221 H       2  UNL2        0.0578
     44 H           1.8728    0.4619   -2.5951 H       2  UNL2        0.0578
     45 H           1.3213   -0.2402    1.1234 H       2  UNL2        0.0687
     46 H           0.3068   -1.4909    0.4563 H       2  UNL2        0.0687
     47 H          -1.9702    1.1923   -1.9989 H       2  UNL2        0.0566
     48 H          -2.2718    2.9077   -1.5813 H       2  UNL2        0.0566
     49 H          -4.2023    1.3809   -1.2990 H       2  UNL2        0.0316
     50 H          -3.8263    2.4736    0.0340 H       2  UNL2        0.0316
     51 H          -3.2306    0.7668    1.4680 H       2  UNL2        0.0652
     52 H          -3.5337   -1.9096    1.6983 H       2  UNL2        0.0636
     53 H          -7.6184   -2.8886    1.0694 H       2  UNL2        0.0632
     54 H          -7.8878   -0.7897   -0.2017 H       2  UNL2        0.0618
     55 H          -5.9803    0.7739   -0.5359 H       2  UNL2        0.0621
     56 H           4.4782   -1.1224    3.1314 H       2  UNL2        0.1048
@<TRIPOS>BOND
     1     1     2    1
     2     2     3    1
     3     2     4    2
     4     2     5    2
     5     6     7    1
     6     7     8   ar
     7     8     9   ar
     8     9    10   ar
     9    10    11   ar
    10    11    12    1
    11    12    13    1
    12    13    14    1
    13    14    15    1
    14    16    15    1
    15    16    17    2
    16    16    18    1
    17    18    19    1
    18    19    20    1
    19    20    21    1
    20    21    22    1
    21    21    23    1
    22    23    24   ar
    23    24    25   ar
    24    25    26    1
    25    25    27   ar
    26    27    28   ar
    27    28    29   ar
    28    11    30   ar
    29    30    31   ar
    30    31    32   ar
    31    32    33   ar
    32    33     7   ar
    33    30     8   ar
    34    22    16    1
    35    29    23   ar
    36     1    34    1
    37     1    35    1
    38     1    36    1
    39     3    37    1
    40     6    38    1
    41     6    39    1
    42    10    40    1
    43    12    41    1
    44    12    42    1
    45    13    43    1
    46    13    44    1
    47    15    45    1
    48    15    46    1
    49    19    47    1
    50    19    48    1
    51    20    49    1
    52    20    50    1
    53    21    51    1
    54    24    52    1
    55    27    53    1
    56    28    54    1
    57    29    55    1
    58    32    56    1
