@<TRIPOS>MOLECULE
*****
 56 60 0 0 0
SMALL
GASTEIGER

@<TRIPOS>ATOM
      1 C          -6.6091    0.3080   -2.4996 C.3     1  UNL1       -0.0524
      2 C          -5.3378    0.8559   -1.8808 C.3     1  UNL1       -0.0038
      3 N          -5.4544    0.6501   -0.4303 N.3     1  UNL1       -0.2985
      4 C          -5.3967   -0.7760   -0.1790 C.3     1  UNL1        0.0226
      5 C          -4.3800   -0.5790    0.9412 C.3     1  UNL1        0.0786
      6 N          -3.2349   -1.4496    0.8094 N.ar    1  UNL1       -0.2581
      7 N          -3.2924   -2.6045    0.1258 N.ar    1  UNL1       -0.1788
      8 C          -2.1014   -3.2252    0.1462 C.ar    1  UNL1        0.0500
      9 C          -1.2772   -2.3969    0.8854 C.ar    1  UNL1       -0.0162
     10 C          -1.9986   -1.2838    1.2976 C.ar    1  UNL1        0.0728
     11 C          -1.5065   -0.1786    2.0868 C.ar    1  UNL1        0.0437
     12 C          -2.2117    0.3219    3.1547 C.ar    1  UNL1       -0.0307
     13 C          -1.6707    1.3785    3.8525 C.ar    1  UNL1        0.0418
     14 CL         -2.5587    2.0380    5.2265 Cl      1  UNL1       -0.0835
     15 C          -0.4619    1.9498    3.5271 C.ar    1  UNL1       -0.0399
     16 C           0.2317    1.4194    2.4362 C.ar    1  UNL1       -0.0173
     17 C          -0.2729    0.3775    1.7266 C.ar    1  UNL1        0.1378
     18 O           0.4035   -0.1735    0.6320 O.3     1  UNL1       -0.4524
     19 C           1.6487    0.3337    0.3103 C.ar    1  UNL1        0.1663
     20 C           1.9152    0.9637   -0.9014 C.ar    1  UNL1        0.0207
     21 C           3.1583    1.4647   -1.2138 C.ar    1  UNL1        0.1536
     22 F           3.3248    2.0607   -2.4115 F       1  UNL1       -0.2033
     23 C           4.1922    1.3634   -0.3395 C.ar    1  UNL1        0.1465
     24 S           5.7902    1.9833   -0.6837 S.O2    1  UNL1        0.0763
     25 O           6.6859    1.8070    0.5300 O.2     1  UNL1       -0.1498
     26 O           5.6539    3.4569   -0.8849 O.2     1  UNL1       -0.1498
     27 N           6.4917    1.2676   -2.0690 N.pl3   1  UNL1       -0.1989
     28 C           6.7776   -0.1361   -2.1964 C.ar    1  UNL1        0.1449
     29 C           7.3457   -0.6636   -3.3351 C.ar    1  UNL1        0.0183
     30 S           7.4724   -2.4365   -2.9369 S.2     1  UNL1       -0.0819
     31 C           6.7070   -2.1681   -1.2287 C.ar    1  UNL1        0.0669
     32 N           6.5241   -1.0005   -1.2549 N.ar    1  UNL1       -0.2315
     33 C           3.9777    0.7478    0.8719 C.ar    1  UNL1        0.0067
     34 C           2.7313    0.2418    1.1930 C.ar    1  UNL1        0.1674
     35 F           2.5558   -0.3723    2.3828 F       1  UNL1       -0.2016
     36 C          -4.2178    0.7779    0.2963 C.3     1  UNL1        0.0226
     37 H          -6.4081   -0.6461   -3.0350 H       1  UNL1        0.0242
     38 H          -7.3858    0.1220   -1.7331 H       1  UNL1        0.0242
     39 H          -7.0390    1.0278   -3.2244 H       1  UNL1        0.0242
     40 H          -5.1641    1.9060   -2.1203 H       1  UNL1        0.0424
     41 H          -4.4548    0.2646   -2.1984 H       1  UNL1        0.0424
     42 H          -6.4012   -1.1215    0.1586 H       1  UNL1        0.0448
     43 H          -5.0337   -1.3951   -0.9993 H       1  UNL1        0.0448
     44 H          -4.9204   -0.5918    1.8904 H       1  UNL1        0.0570
     45 H          -1.8869   -4.1529   -0.3207 H       1  UNL1        0.0848
     46 H          -0.2287   -2.5636    1.1214 H       1  UNL1        0.0654
     47 H          -3.1754   -0.1158    3.4379 H       1  UNL1        0.0640
     48 H          -0.0178    2.7705    4.0526 H       1  UNL1        0.0633
     49 H           1.1908    1.8798    2.1666 H       1  UNL1        0.0655
     50 H           1.1058    1.0557   -1.6156 H       1  UNL1        0.0685
     51 H           6.7326    1.8723   -2.8785 H       1  UNL1        0.1753
     52 H           7.6566   -0.2155   -4.2478 H       1  UNL1        0.0729
     53 H           6.5995   -3.0822   -0.6135 H       1  UNL1        0.0908
     54 H           4.7668    0.6337    1.6213 H       1  UNL1        0.0668
     55 H          -4.1733    1.6393    0.9727 H       1  UNL1        0.0448
     56 H          -3.3679    0.8435   -0.4220 H       1  UNL1        0.0448
@<TRIPOS>BOND
     1     1     2    1
     2     2     3    1
     3     3     4    1
     4     4     5    1
     5     5     6    1
     6     6     7   ar
     7     7     8   ar
     8     8     9   ar
     9     9    10   ar
    10    10    11    1
    11    11    12   ar
    12    12    13   ar
    13    13    14    1
    14    13    15   ar
    15    15    16   ar
    16    16    17   ar
    17    17    18    1
    18    18    19    1
    19    19    20   ar
    20    20    21   ar
    21    21    22    1
    22    21    23   ar
    23    23    24    1
    24    24    25    2
    25    24    26    2
    26    24    27    1
    27    27    28    1
    28    28    29   ar
    29    29    30   ar
    30    30    31   ar
    31    31    32   ar
    32    23    33   ar
    33    33    34   ar
    34    34    35    1
    35     5    36    1
    36    36     3    1
    37    10     6   ar
    38    17    11   ar
    39    34    19   ar
    40    32    28   ar
    41     1    37    1
    42     1    38    1
    43     1    39    1
    44     2    40    1
    45     2    41    1
    46     4    42    1
    47     4    43    1
    48     5    44    1
    49     8    45    1
    50     9    46    1
    51    12    47    1
    52    15    48    1
    53    16    49    1
    54    20    50    1
    55    27    51    1
    56    29    52    1
    57    31    53    1
    58    33    54    1
    59    36    55    1
    60    36    56    1
