
     RDKit          3D

 56 60  0  0  0  0  0  0  0  0999 V2000
   -6.6091    0.3080   -2.4996 C   0  0  0  0  0  0  0  0  0  0  0  0
   -5.3378    0.8559   -1.8808 C   0  0  0  0  0  0  0  0  0  0  0  0
   -5.4544    0.6501   -0.4303 N   0  0  0  0  0  0  0  0  0  0  0  0
   -5.3967   -0.7760   -0.1790 C   0  0  0  0  0  0  0  0  0  0  0  0
   -4.3800   -0.5790    0.9412 C   0  0  0  0  0  0  0  0  0  0  0  0
   -3.2349   -1.4496    0.8094 N   0  0  0  0  0  0  0  0  0  0  0  0
   -3.2924   -2.6045    0.1258 N   0  0  0  0  0  0  0  0  0  0  0  0
   -2.1014   -3.2252    0.1462 C   0  0  0  0  0  0  0  0  0  0  0  0
   -1.2772   -2.3969    0.8854 C   0  0  0  0  0  0  0  0  0  0  0  0
   -1.9986   -1.2838    1.2976 C   0  0  0  0  0  0  0  0  0  0  0  0
   -1.5065   -0.1786    2.0868 C   0  0  0  0  0  0  0  0  0  0  0  0
   -2.2117    0.3219    3.1547 C   0  0  0  0  0  0  0  0  0  0  0  0
   -1.6707    1.3785    3.8525 C   0  0  0  0  0  0  0  0  0  0  0  0
   -2.5587    2.0380    5.2265 Cl  0  0  0  0  0  0  0  0  0  0  0  0
   -0.4619    1.9498    3.5271 C   0  0  0  0  0  0  0  0  0  0  0  0
    0.2317    1.4194    2.4362 C   0  0  0  0  0  0  0  0  0  0  0  0
   -0.2729    0.3775    1.7266 C   0  0  0  0  0  0  0  0  0  0  0  0
    0.4035   -0.1735    0.6320 O   0  0  0  0  0  0  0  0  0  0  0  0
    1.6487    0.3337    0.3103 C   0  0  0  0  0  0  0  0  0  0  0  0
    1.9152    0.9637   -0.9014 C   0  0  0  0  0  0  0  0  0  0  0  0
    3.1583    1.4647   -1.2138 C   0  0  0  0  0  0  0  0  0  0  0  0
    3.3248    2.0607   -2.4115 F   0  0  0  0  0  0  0  0  0  0  0  0
    4.1922    1.3634   -0.3395 C   0  0  0  0  0  0  0  0  0  0  0  0
    5.7902    1.9833   -0.6837 S   0  0  0  0  0  6  0  0  0  0  0  0
    6.6859    1.8070    0.5300 O   0  0  0  0  0  0  0  0  0  0  0  0
    5.6539    3.4569   -0.8849 O   0  0  0  0  0  0  0  0  0  0  0  0
    6.4917    1.2676   -2.0690 N   0  0  0  0  0  0  0  0  0  0  0  0
    6.7776   -0.1361   -2.1964 C   0  0  0  0  0  0  0  0  0  0  0  0
    7.3457   -0.6636   -3.3351 C   0  0  0  0  0  0  0  0  0  0  0  0
    7.4724   -2.4365   -2.9369 S   0  0  0  0  0  0  0  0  0  0  0  0
    6.7070   -2.1681   -1.2287 C   0  0  0  0  0  0  0  0  0  0  0  0
    6.5241   -1.0005   -1.2549 N   0  0  0  0  0  0  0  0  0  0  0  0
    3.9777    0.7478    0.8719 C   0  0  0  0  0  0  0  0  0  0  0  0
    2.7313    0.2418    1.1930 C   0  0  0  0  0  0  0  0  0  0  0  0
    2.5558   -0.3723    2.3828 F   0  0  0  0  0  0  0  0  0  0  0  0
   -4.2178    0.7779    0.2963 C   0  0  0  0  0  0  0  0  0  0  0  0
   -6.4081   -0.6461   -3.0350 H   0  0  0  0  0  0  0  0  0  0  0  0
   -7.3858    0.1220   -1.7331 H   0  0  0  0  0  0  0  0  0  0  0  0
   -7.0390    1.0278   -3.2244 H   0  0  0  0  0  0  0  0  0  0  0  0
   -5.1641    1.9060   -2.1203 H   0  0  0  0  0  0  0  0  0  0  0  0
   -4.4548    0.2646   -2.1984 H   0  0  0  0  0  0  0  0  0  0  0  0
   -6.4012   -1.1215    0.1586 H   0  0  0  0  0  0  0  0  0  0  0  0
   -5.0337   -1.3951   -0.9993 H   0  0  0  0  0  0  0  0  0  0  0  0
   -4.9204   -0.5918    1.8904 H   0  0  0  0  0  0  0  0  0  0  0  0
   -1.8869   -4.1529   -0.3207 H   0  0  0  0  0  0  0  0  0  0  0  0
   -0.2287   -2.5636    1.1214 H   0  0  0  0  0  0  0  0  0  0  0  0
   -3.1754   -0.1158    3.4379 H   0  0  0  0  0  0  0  0  0  0  0  0
   -0.0178    2.7705    4.0526 H   0  0  0  0  0  0  0  0  0  0  0  0
    1.1908    1.8798    2.1666 H   0  0  0  0  0  0  0  0  0  0  0  0
    1.1058    1.0557   -1.6156 H   0  0  0  0  0  0  0  0  0  0  0  0
    6.7326    1.8723   -2.8785 H   0  0  0  0  0  0  0  0  0  0  0  0
    7.6566   -0.2155   -4.2478 H   0  0  0  0  0  0  0  0  0  0  0  0
    6.5995   -3.0822   -0.6135 H   0  0  0  0  0  0  0  0  0  0  0  0
    4.7668    0.6337    1.6213 H   0  0  0  0  0  0  0  0  0  0  0  0
   -4.1733    1.6393    0.9727 H   0  0  0  0  0  0  0  0  0  0  0  0
   -3.3679    0.8435   -0.4220 H   0  0  0  0  0  0  0  0  0  0  0  0
  1  2  1  0
  2  3  1  0
  3  4  1  0
  4  5  1  0
  5  6  1  0
  6  7  1  0
  7  8  2  0
  8  9  1  0
  9 10  2  0
 10 11  1  0
 11 12  2  0
 12 13  1  0
 13 14  1  0
 13 15  2  0
 15 16  1  0
 16 17  2  0
 17 18  1  0
 18 19  1  0
 19 20  2  0
 20 21  1  0
 21 22  1  0
 21 23  2  0
 23 24  1  0
 24 25  2  0
 24 26  2  0
 24 27  1  0
 27 28  1  0
 28 29  2  0
 29 30  1  0
 30 31  1  0
 31 32  2  0
 23 33  1  0
 33 34  2  0
 34 35  1  0
  5 36  1  0
 36  3  1  0
 10  6  1  0
 17 11  1  0
 34 19  1  0
 32 28  1  0
  1 37  1  0
  1 38  1  0
  1 39  1  0
  2 40  1  0
  2 41  1  0
  4 42  1  0
  4 43  1  0
  5 44  1  0
  8 45  1  0
  9 46  1  0
 12 47  1  0
 15 48  1  0
 16 49  1  0
 20 50  1  0
 27 51  1  0
 29 52  1  0
 31 53  1  0
 33 54  1  0
 36 55  1  0
 36 56  1  0
M  END
$$$$
