@<TRIPOS>MOLECULE
*****
 55 59 0 0 0
SMALL
GASTEIGER

@<TRIPOS>ATOM
      1 C           4.2545   -4.7788   -0.1573 C.3     1  UNL1        0.0132
      2 N           3.1120   -3.8865   -0.2940 N.ar    1  UNL1       -0.3343
      3 C           3.0802   -2.5915   -0.5875 C.ar    1  UNL1        0.0141
      4 C           1.7621   -2.1413   -0.6144 C.ar    1  UNL1        0.0059
      5 C           1.2913   -0.8084   -0.9160 C.2     1  UNL1       -0.0062
      6 C           1.9017    0.2444   -0.3895 C.2     1  UNL1        0.1763
      7 O           2.9941    0.2360    0.4616 O.3     1  UNL1       -0.4513
      8 C           3.3505    1.5513    0.8026 C.ar    1  UNL1        0.1430
      9 C           4.3301    2.1158    1.5941 C.ar    1  UNL1       -0.0184
     10 C           4.4734    3.4740    1.7716 C.ar    1  UNL1       -0.0548
     11 C           3.6087    4.3357    1.1387 C.ar    1  UNL1       -0.0192
     12 C           2.6045    3.8019    0.3295 C.ar    1  UNL1        0.1313
     13 O           1.7251    4.6606   -0.3147 O.3     1  UNL1       -0.5059
     14 C           2.4943    2.4371    0.1776 C.ar    1  UNL1        0.1088
     15 C           1.5532    1.6422   -0.5941 C.2     1  UNL1        0.2350
     16 O           0.5917    2.0479   -1.3242 O.2     1  UNL1       -0.2831
     17 C           0.9938   -3.2395   -0.3168 C.ar    1  UNL1        0.0338
     18 C          -0.3681   -3.4428   -0.1962 C.ar    1  UNL1       -0.0052
     19 C          -1.2694   -2.2950   -0.3122 C.ar    1  UNL1       -0.0171
     20 C          -1.1651   -1.2368    0.5769 C.ar    1  UNL1       -0.0533
     21 C          -1.9999   -0.1373    0.4945 C.ar    1  UNL1       -0.0491
     22 C          -2.9762   -0.0336   -0.4705 C.ar    1  UNL1        0.0367
     23 C          -3.8747    1.1171   -0.5706 C.2     1  UNL1        0.2441
     24 O          -4.7098    1.1588   -1.5077 O.2     1  UNL1       -0.2702
     25 N          -3.8646    2.2041    0.3359 N.am    1  UNL1       -0.3092
     26 C          -4.7945    3.3286    0.1781 C.3     1  UNL1        0.0351
     27 C          -4.5486    4.3180    1.2872 C.3     1  UNL1        0.0597
     28 O          -5.4242    5.3933    1.1537 O.3     1  UNL1       -0.3935
     29 C          -3.0773   -1.0933   -1.3574 C.ar    1  UNL1       -0.0491
     30 C          -2.2461   -2.1903   -1.2771 C.ar    1  UNL1       -0.0533
     31 C          -0.8650   -4.6972    0.1073 C.ar    1  UNL1       -0.0351
     32 C           0.0108   -5.7324    0.2893 C.ar    1  UNL1        0.0305
     33 N           1.3237   -5.5328    0.1755 N.ar    1  UNL1       -0.2372
     34 C           1.8397   -4.3449   -0.1153 C.ar    1  UNL1        0.1416
     35 H           4.1534   -5.2234    0.8710 H       1  UNL1        0.0456
     36 H           4.1244   -5.6567   -0.8496 H       1  UNL1        0.0456
     37 H           5.2058   -4.2735   -0.3198 H       1  UNL1        0.0456
     38 H           3.9144   -1.9543   -0.7803 H       1  UNL1        0.0815
     39 H           0.4519   -0.5939   -1.5898 H       1  UNL1        0.0662
     40 H           5.0357    1.4697    2.1138 H       1  UNL1        0.0654
     41 H           5.2504    3.9040    2.3995 H       1  UNL1        0.0620
     42 H           3.6691    5.4111    1.2383 H       1  UNL1        0.0654
     43 H           0.7278    4.4970   -0.1164 H       1  UNL1        0.2922
     44 H          -0.3953   -1.3085    1.3542 H       1  UNL1        0.0624
     45 H          -1.8794    0.6704    1.2162 H       1  UNL1        0.0625
     46 H          -3.1950    2.1974    1.1132 H       1  UNL1        0.1491
     47 H          -5.8415    2.9830    0.2382 H       1  UNL1        0.0485
     48 H          -4.6660    3.7890   -0.8300 H       1  UNL1        0.0485
     49 H          -3.5062    4.6613    1.2357 H       1  UNL1        0.0573
     50 H          -4.7239    3.7700    2.2524 H       1  UNL1        0.0573
     51 H          -5.9470    5.3039    0.3293 H       1  UNL1        0.2095
     52 H          -3.8527   -1.0013   -2.1161 H       1  UNL1        0.0625
     53 H          -2.3335   -3.0124   -1.9754 H       1  UNL1        0.0624
     54 H          -1.9388   -4.7840    0.1840 H       1  UNL1        0.0639
     55 H          -0.3657   -6.7335    0.5309 H       1  UNL1        0.0830
@<TRIPOS>BOND
     1     1     2    1
     2     2     3   ar
     3     3     4   ar
     4     4     5    1
     5     5     6    2
     6     6     7    1
     7     7     8    1
     8     8     9   ar
     9     9    10   ar
    10    10    11   ar
    11    11    12   ar
    12    12    13    1
    13    12    14   ar
    14    14    15    1
    15    15    16    2
    16     4    17   ar
    17    17    18   ar
    18    18    19    1
    19    19    20   ar
    20    20    21   ar
    21    21    22   ar
    22    22    23    1
    23    23    24    2
    24    23    25   am
    25    25    26    1
    26    26    27    1
    27    27    28    1
    28    22    29   ar
    29    29    30   ar
    30    18    31   ar
    31    31    32   ar
    32    32    33   ar
    33    33    34   ar
    34    34     2   ar
    35    15     6    1
    36    34    17   ar
    37    14     8   ar
    38    30    19   ar
    39     1    35    1
    40     1    36    1
    41     1    37    1
    42     3    38    1
    43     5    39    1
    44     9    40    1
    45    10    41    1
    46    11    42    1
    47    13    43    1
    48    20    44    1
    49    21    45    1
    50    25    46    1
    51    26    47    1
    52    26    48    1
    53    27    49    1
    54    27    50    1
    55    28    51    1
    56    29    52    1
    57    30    53    1
    58    31    54    1
    59    32    55    1
