
     RDKit          3D

 43 45  0  0  0  0  0  0  0  0999 V2000
   -3.3942   -1.3436    1.8402 C   0  0  0  0  0  0  0  0  0  0  0  0
   -3.2213    0.0200    1.2662 C   0  0  0  0  0  0  0  0  0  0  0  0
   -3.5186    1.1033    2.0731 C   0  0  0  0  0  0  0  0  0  0  0  0
   -3.3535    2.3588    1.5268 C   0  0  0  0  0  0  0  0  0  0  0  0
   -2.9134    2.5758    0.2364 C   0  0  0  0  0  0  0  0  0  0  0  0
   -2.6314    1.4593   -0.5245 C   0  0  0  0  0  0  0  0  0  0  0  0
   -2.1450    1.4931   -1.9418 C   0  0  0  0  0  0  0  0  0  0  0  0
   -2.7807    0.1796   -0.0234 C   0  0  0  0  0  0  0  0  0  0  0  0
   -2.5053   -0.9626   -0.7635 O   0  0  0  0  0  0  0  0  0  0  0  0
   -1.2422   -1.5532   -0.7831 C   0  0  0  0  0  0  0  0  0  0  0  0
   -1.0283   -2.6793   -1.5348 C   0  0  0  0  0  0  0  0  0  0  0  0
   -2.4872   -3.4044   -2.5372 Br  0  0  0  0  0  0  0  0  0  0  0  0
    0.2221   -3.2291   -1.5291 C   0  0  0  0  0  0  0  0  0  0  0  0
    0.3935   -4.3930   -2.3207 N   0  0  0  0  0  0  0  0  0  0  0  0
    1.2564   -2.7099   -0.8144 N   0  0  0  0  0  0  0  0  0  0  0  0
    1.0318   -1.5920   -0.0721 C   0  0  0  0  0  0  0  0  0  0  0  0
    2.1047   -1.0685    0.6567 N   0  0  0  0  0  0  0  0  0  0  0  0
    3.1242   -0.1034    0.4389 C   0  0  0  0  0  0  0  0  0  0  0  0
    4.0257    0.0941    1.4639 C   0  0  0  0  0  0  0  0  0  0  0  0
    5.0014    1.0291    1.2441 C   0  0  0  0  0  0  0  0  0  0  0  0
    5.0831    1.7419    0.0561 C   0  0  0  0  0  0  0  0  0  0  0  0
    4.1644    1.5209   -0.9522 C   0  0  0  0  0  0  0  0  0  0  0  0
    3.1641    0.5795   -0.7586 C   0  0  0  0  0  0  0  0  0  0  0  0
    6.1584    2.6960   -0.0432 C   0  0  0  0  0  0  0  0  0  0  0  0
    7.0157    3.4759   -0.1334 N   0  0  0  0  0  0  0  0  0  0  0  0
   -0.1977   -1.0751   -0.0948 N   0  0  0  0  0  0  0  0  0  0  0  0
   -3.6537    3.5049    2.3383 C   0  0  0  0  0  0  0  0  0  0  0  0
   -3.8869    4.4316    3.0137 N   0  0  0  0  0  0  0  0  0  0  0  0
   -4.2460   -1.3635    2.5607 H   0  0  0  0  0  0  0  0  0  0  0  0
   -2.4643   -1.6816    2.3464 H   0  0  0  0  0  0  0  0  0  0  0  0
   -3.6141   -2.0854    1.0532 H   0  0  0  0  0  0  0  0  0  0  0  0
   -3.8751    1.0309    3.1128 H   0  0  0  0  0  0  0  0  0  0  0  0
   -2.7715    3.5427   -0.2264 H   0  0  0  0  0  0  0  0  0  0  0  0
   -2.1134    2.5122   -2.3630 H   0  0  0  0  0  0  0  0  0  0  0  0
   -2.7345    0.7937   -2.5758 H   0  0  0  0  0  0  0  0  0  0  0  0
   -1.0742    1.1480   -1.8985 H   0  0  0  0  0  0  0  0  0  0  0  0
    0.6979   -5.3315   -2.5859 H   0  0  0  0  0  0  0  0  0  0  0  0
   -0.0307   -4.4038   -3.2802 H   0  0  0  0  0  0  0  0  0  0  0  0
    1.9980   -1.6071    1.5308 H   0  0  0  0  0  0  0  0  0  0  0  0
    3.9857   -0.4433    2.3921 H   0  0  0  0  0  0  0  0  0  0  0  0
    5.7160    1.2011    2.0279 H   0  0  0  0  0  0  0  0  0  0  0  0
    4.2693    2.1015   -1.8604 H   0  0  0  0  0  0  0  0  0  0  0  0
    2.4709    0.4360   -1.5612 H   0  0  0  0  0  0  0  0  0  0  0  0
  1  2  1  0
  2  3  2  0
  3  4  1  0
  4  5  2  0
  5  6  1  0
  6  7  1  0
  6  8  2  0
  8  9  1  0
  9 10  1  0
 10 11  2  0
 11 12  1  0
 11 13  1  0
 13 14  1  0
 13 15  2  0
 15 16  1  0
 16 17  1  0
 17 18  1  0
 18 19  2  0
 19 20  1  0
 20 21  2  0
 21 22  1  0
 22 23  2  0
 21 24  1  0
 24 25  3  0
 16 26  2  0
  4 27  1  0
 27 28  3  0
  8  2  1  0
 26 10  1  0
 23 18  1  0
  1 29  1  0
  1 30  1  0
  1 31  1  0
  3 32  1  0
  5 33  1  0
  7 34  1  0
  7 35  1  0
  7 36  1  0
 14 37  1  0
 14 38  1  0
 17 39  1  0
 19 40  1  0
 20 41  1  0
 22 42  1  0
 23 43  1  0
M  END
$$$$
