@<TRIPOS>MOLECULE
*****
 65 67 0 0 0
SMALL
GASTEIGER

@<TRIPOS>ATOM
      1 C           4.0455    3.0519    2.6832 C.3     1  UNL1       -0.0645
      2 C           3.4783    1.7734    2.1205 C.3     1  UNL1       -0.0432
      3 C           3.7838    1.6448    0.6415 C.3     1  UNL1        0.0534
      4 C           3.1850    2.8008   -0.1244 C.3     1  UNL1       -0.0523
      5 C           3.3813    0.3284    0.1071 C.2     1  UNL1        0.3102
      6 O           4.2364   -0.4340   -0.4093 O.2     1  UNL1       -0.2505
      7 O           2.0739   -0.1422    0.1373 O.3     1  UNL1       -0.4605
      8 C           1.6865   -1.4004   -0.3729 C.3     1  UNL1        0.1106
      9 C           1.2009   -2.3477    0.6994 C.3     1  UNL1       -0.0090
     10 C           1.4189   -3.7718    0.1472 C.3     1  UNL1       -0.0218
     11 C           0.9619   -4.7973    1.1507 C.3     1  UNL1       -0.0588
     12 C           0.6053   -3.8183   -1.1117 C.2     1  UNL1       -0.0775
     13 C           0.3179   -2.7657   -1.8174 C.2     1  UNL1       -0.0444
     14 C          -0.4852   -2.8539   -3.0463 C.2     1  UNL1       -0.0621
     15 C          -1.1257   -1.7665   -3.4192 C.2     1  UNL1       -0.0806
     16 C          -1.1223   -0.4615   -2.7300 C.3     1  UNL1       -0.0219
     17 C          -0.3154    0.4913   -3.5739 C.3     1  UNL1       -0.0587
     18 C          -0.5449   -0.6208   -1.3228 C.3     1  UNL1       -0.0247
     19 C          -0.4709    0.6764   -0.6012 C.3     1  UNL1       -0.0457
     20 C          -1.8162    1.3213   -0.4519 C.3     1  UNL1       -0.0153
     21 C          -2.8190    0.5175    0.3033 C.3     1  UNL1        0.1054
     22 C          -4.1330    1.3087    0.3701 C.3     1  UNL1        0.0109
     23 C          -4.0273    2.3496    1.4649 C.3     1  UNL1        0.0686
     24 O          -5.0028    3.3307    1.3071 O.3     1  UNL1       -0.3911
     25 C          -4.2301    1.5941    2.7851 C.3     1  UNL1        0.0710
     26 C          -3.3358    0.4090    2.7145 C.2     1  UNL1        0.3098
     27 O          -3.4436   -0.4473    3.6256 O.2     1  UNL1       -0.2507
     28 O          -2.4380    0.3069    1.6607 O.3     1  UNL1       -0.4612
     29 C           0.7368   -1.3611   -1.4970 C.3     1  UNL1        0.0243
     30 H           3.2873    3.6552    3.2239 H       1  UNL1        0.0230
     31 H           4.8995    2.8526    3.3858 H       1  UNL1        0.0230
     32 H           4.4511    3.7104    1.8861 H       1  UNL1        0.0230
     33 H           3.9997    0.9177    2.6241 H       1  UNL1        0.0270
     34 H           2.3936    1.6544    2.3351 H       1  UNL1        0.0270
     35 H           4.8836    1.7353    0.5443 H       1  UNL1        0.0410
     36 H           2.3418    3.1945    0.5043 H       1  UNL1        0.0238
     37 H           2.8662    2.5448   -1.1347 H       1  UNL1        0.0238
     38 H           3.9050    3.6446   -0.2002 H       1  UNL1        0.0238
     39 H           2.6173   -1.9095   -0.7862 H       1  UNL1        0.0740
     40 H           1.7878   -2.1869    1.6071 H       1  UNL1        0.0307
     41 H           0.1143   -2.2716    0.8803 H       1  UNL1        0.0307
     42 H           2.4743   -3.9139   -0.1491 H       1  UNL1        0.0342
     43 H           0.6648   -5.7095    0.5899 H       1  UNL1        0.0235
     44 H           1.8115   -5.0588    1.8155 H       1  UNL1        0.0235
     45 H           0.0995   -4.3764    1.7031 H       1  UNL1        0.0235
     46 H           0.2507   -4.7858   -1.4294 H       1  UNL1        0.0578
     47 H          -0.5172   -3.8037   -3.5846 H       1  UNL1        0.0617
     48 H          -1.7267   -1.8235   -4.3343 H       1  UNL1        0.0575
     49 H          -2.1835   -0.1293   -2.6822 H       1  UNL1        0.0343
     50 H           0.1220   -0.0004   -4.4765 H       1  UNL1        0.0235
     51 H           0.5117    0.9020   -2.9925 H       1  UNL1        0.0235
     52 H          -0.9843    1.2966   -3.9929 H       1  UNL1        0.0235
     53 H          -1.2662   -1.2860   -0.7862 H       1  UNL1        0.0313
     54 H           0.2270    1.3893   -1.0378 H       1  UNL1        0.0269
     55 H          -0.1201    0.4869    0.4570 H       1  UNL1        0.0269
     56 H          -1.6655    2.2736    0.0999 H       1  UNL1        0.0301
     57 H          -2.2697    1.6039   -1.4244 H       1  UNL1        0.0301
     58 H          -3.0076   -0.4906   -0.1161 H       1  UNL1        0.0734
     59 H          -4.3817    1.7513   -0.6154 H       1  UNL1        0.0326
     60 H          -4.9102    0.5594    0.6716 H       1  UNL1        0.0326
     61 H          -3.0156    2.7945    1.5374 H       1  UNL1        0.0600
     62 H          -5.3896    3.2178    0.4069 H       1  UNL1        0.2098
     63 H          -5.3044    1.3184    2.8125 H       1  UNL1        0.0403
     64 H          -3.9853    2.2494    3.6454 H       1  UNL1        0.0403
     65 H           1.2163   -0.9230   -2.4274 H       1  UNL1        0.0388
@<TRIPOS>BOND
     1     1     2    1
     2     2     3    1
     3     3     4    1
     4     3     5    1
     5     5     6    2
     6     5     7    1
     7     7     8    1
     8     8     9    1
     9     9    10    1
    10    10    11    1
    11    10    12    1
    12    12    13    2
    13    13    14    1
    14    14    15    2
    15    15    16    1
    16    16    17    1
    17    16    18    1
    18    18    19    1
    19    19    20    1
    20    20    21    1
    21    21    22    1
    22    22    23    1
    23    23    24    1
    24    23    25    1
    25    25    26    1
    26    26    27    2
    27    26    28    1
    28    18    29    1
    29    29     8    1
    30    29    13    1
    31    28    21    1
    32     1    30    1
    33     1    31    1
    34     1    32    1
    35     2    33    1
    36     2    34    1
    37     3    35    1
    38     4    36    1
    39     4    37    1
    40     4    38    1
    41     8    39    1
    42     9    40    1
    43     9    41    1
    44    10    42    1
    45    11    43    1
    46    11    44    1
    47    11    45    1
    48    12    46    1
    49    14    47    1
    50    15    48    1
    51    16    49    1
    52    17    50    1
    53    17    51    1
    54    17    52    1
    55    18    53    1
    56    19    54    1
    57    19    55    1
    58    20    56    1
    59    20    57    1
    60    21    58    1
    61    22    59    1
    62    22    60    1
    63    23    61    1
    64    24    62    1
    65    25    63    1
    66    25    64    1
    67    29    65    1
