@<TRIPOS>MOLECULE
*****
 54 56 0 0 0
SMALL
GASTEIGER

@<TRIPOS>ATOM
      1 C           7.2717    0.7859   -0.8815 C.3     1  UNL1       -0.0653
      2 C           7.0360   -0.4367   -0.0575 C.3     1  UNL1       -0.0559
      3 C           5.8334   -1.2294   -0.5292 C.3     1  UNL1       -0.0533
      4 C           4.5575   -0.4195   -0.4705 C.3     1  UNL1       -0.0523
      5 C           3.4413   -1.3116   -0.9614 C.3     1  UNL1       -0.0436
      6 C           2.1005   -0.6250   -0.9555 C.3     1  UNL1        0.0011
      7 S           1.6446   -0.0857    0.7161 S.3     1  UNL1       -0.0858
      8 C           0.0631    0.7050    0.6217 C.ar    1  UNL1        0.1962
      9 N          -0.2480    1.9887    0.4045 N.ar    1  UNL1       -0.2003
     10 C          -1.5785    2.1592    0.4122 C.ar    1  UNL1        0.1829
     11 C          -2.3452    3.4039    0.2148 C.ar    1  UNL1        0.0210
     12 C          -2.8625    3.6997   -1.0321 C.ar    1  UNL1       -0.0496
     13 C          -3.5805    4.8245   -1.3004 C.ar    1  UNL1       -0.0427
     14 C          -3.8091    5.7228   -0.2801 C.ar    1  UNL1        0.0410
     15 CL         -4.7285    7.1593   -0.6314 Cl      1  UNL1       -0.0835
     16 C          -3.2985    5.4448    0.9792 C.ar    1  UNL1       -0.0427
     17 C          -2.5715    4.2931    1.2246 C.ar    1  UNL1       -0.0496
     18 N          -2.0736    0.9366    0.6415 N.ar    1  UNL1       -0.1403
     19 N          -1.1223    0.0282    0.7744 N.ar    1  UNL1       -0.1573
     20 C          -1.2604   -1.3504    1.0211 C.2     1  UNL1        0.3396
     21 O          -0.1962   -2.0569    1.1081 O.2     1  UNL1       -0.2474
     22 N          -2.4683   -2.0065    1.1773 N.am    1  UNL1       -0.2819
     23 C          -2.4854   -3.4782    1.4246 C.3     1  UNL1        0.0164
     24 C          -3.0703   -4.0505    0.1367 C.3     1  UNL1       -0.0370
     25 C          -4.4196   -3.4476   -0.0735 C.3     1  UNL1       -0.0502
     26 C          -4.3996   -1.9356   -0.1881 C.3     1  UNL1       -0.0370
     27 C          -3.7808   -1.4202    1.1284 C.3     1  UNL1        0.0164
     28 H           6.6461    0.8434   -1.7864 H       1  UNL1        0.0230
     29 H           8.3346    0.8293   -1.2143 H       1  UNL1        0.0230
     30 H           7.1097    1.7332   -0.3036 H       1  UNL1        0.0230
     31 H           7.9111   -1.1150   -0.1538 H       1  UNL1        0.0263
     32 H           6.8599   -0.1696    1.0052 H       1  UNL1        0.0263
     33 H           5.9608   -1.5574   -1.5862 H       1  UNL1        0.0265
     34 H           5.7072   -2.1458    0.0794 H       1  UNL1        0.0265
     35 H           4.3877   -0.1873    0.6119 H       1  UNL1        0.0266
     36 H           4.6344    0.4884   -1.0844 H       1  UNL1        0.0266
     37 H           3.6503   -1.6418   -1.9975 H       1  UNL1        0.0273
     38 H           3.3863   -2.2170   -0.3222 H       1  UNL1        0.0273
     39 H           1.3665   -1.3417   -1.3664 H       1  UNL1        0.0381
     40 H           2.1624    0.2814   -1.6188 H       1  UNL1        0.0381
     41 H          -2.6736    2.9838   -1.8210 H       1  UNL1        0.0625
     42 H          -3.9438    4.9680   -2.3071 H       1  UNL1        0.0632
     43 H          -3.4901    6.1635    1.7646 H       1  UNL1        0.0632
     44 H          -2.1857    4.1062    2.2236 H       1  UNL1        0.0625
     45 H          -1.4585   -3.8244    1.6093 H       1  UNL1        0.0465
     46 H          -3.1028   -3.6987    2.3026 H       1  UNL1        0.0465
     47 H          -3.1786   -5.1299    0.2225 H       1  UNL1        0.0280
     48 H          -2.3540   -3.7817   -0.6644 H       1  UNL1        0.0280
     49 H          -4.8957   -3.8600   -0.9857 H       1  UNL1        0.0266
     50 H          -5.0283   -3.6698    0.8464 H       1  UNL1        0.0266
     51 H          -5.4549   -1.6027   -0.2465 H       1  UNL1        0.0280
     52 H          -3.7669   -1.5694   -0.9982 H       1  UNL1        0.0280
     53 H          -4.4209   -1.8471    1.9716 H       1  UNL1        0.0465
     54 H          -3.8124   -0.3355    1.1951 H       1  UNL1        0.0465
@<TRIPOS>BOND
     1     1     2    1
     2     2     3    1
     3     3     4    1
     4     4     5    1
     5     5     6    1
     6     6     7    1
     7     7     8    1
     8     8     9   ar
     9     9    10   ar
    10    10    11    1
    11    11    12   ar
    12    12    13   ar
    13    13    14   ar
    14    14    15    1
    15    14    16   ar
    16    16    17   ar
    17    10    18   ar
    18    18    19   ar
    19    19    20   am
    20    20    21    2
    21    20    22   am
    22    22    23    1
    23    23    24    1
    24    24    25    1
    25    25    26    1
    26    26    27    1
    27    19     8   ar
    28    27    22    1
    29    17    11   ar
    30     1    28    1
    31     1    29    1
    32     1    30    1
    33     2    31    1
    34     2    32    1
    35     3    33    1
    36     3    34    1
    37     4    35    1
    38     4    36    1
    39     5    37    1
    40     5    38    1
    41     6    39    1
    42     6    40    1
    43    12    41    1
    44    13    42    1
    45    16    43    1
    46    17    44    1
    47    23    45    1
    48    23    46    1
    49    24    47    1
    50    24    48    1
    51    25    49    1
    52    25    50    1
    53    26    51    1
    54    26    52    1
    55    27    53    1
    56    27    54    1
