@<TRIPOS>MOLECULE
*****
 51 54 0 0 0
SMALL
GASTEIGER

@<TRIPOS>ATOM
      1 C          -5.6235   -2.2016    3.7187 C.3     1  UNL1       -0.0319
      2 C          -4.4919   -1.8592    2.8763 C.ar    1  UNL1        0.0068
      3 C          -3.3193   -2.4785    2.5314 C.ar    1  UNL1        0.0383
      4 N          -2.5269   -1.8438    1.7276 N.ar    1  UNL1       -0.2471
      5 C          -2.6380   -0.8009    1.2271 C.ar    1  UNL1        0.1086
      6 C          -1.9832    0.1678    0.3222 C.ar    1  UNL1        0.0113
      7 C          -2.5304    1.3680   -0.0098 C.ar    1  UNL1       -0.0102
      8 C          -1.9010    2.2538   -0.8554 C.ar    1  UNL1        0.1225
      9 O          -2.3985    3.4741   -1.2270 O.3     1  UNL1       -0.4842
     10 C          -3.6045    4.0375   -0.8309 C.3     1  UNL1        0.1464
     11 C          -4.3863    4.7648   -1.9008 C.3     1  UNL1        0.0869
     12 O          -4.4492    5.9314   -1.1425 O.3     1  UNL1       -0.3723
     13 C          -3.3761    5.4930   -0.4063 C.3     1  UNL1        0.0869
     14 C          -0.6800    1.8699   -1.3573 C.ar    1  UNL1       -0.0078
     15 C          -0.0591    0.6622   -1.0641 C.ar    1  UNL1        0.0408
     16 C           1.2340    0.3197   -1.6306 C.2     1  UNL1        0.2447
     17 O           1.7880    1.1442   -2.4013 O.2     1  UNL1       -0.2702
     18 N           1.8940   -0.8902   -1.3571 N.am    1  UNL1       -0.3047
     19 C           3.1936   -1.2322   -1.9278 C.3     1  UNL1        0.0487
     20 C           3.0393   -2.4637   -2.8004 C.3     1  UNL1       -0.0423
     21 C           4.1938   -1.5313   -0.8637 C.ar    1  UNL1        0.0087
     22 C           5.4720   -1.0251   -0.9028 C.ar    1  UNL1        0.0363
     23 N           6.3697   -1.3074    0.0744 N.ar    1  UNL1       -0.2321
     24 C           6.0211   -2.0949    1.1081 C.ar    1  UNL1        0.2339
     25 C           7.0043   -2.4155    2.1964 C.3     1  UNL1        0.4522
     26 F           7.1019   -3.7582    2.4285 F       1  UNL1       -0.1632
     27 F           6.5816   -1.7669    3.3366 F       1  UNL1       -0.1632
     28 F           8.2630   -1.9727    1.7859 F       1  UNL1       -0.1632
     29 N           4.7761   -2.5909    1.1508 N.ar    1  UNL1       -0.2321
     30 C           3.8519   -2.3364    0.2017 C.ar    1  UNL1        0.0363
     31 C          -0.7485   -0.1723   -0.2114 C.ar    1  UNL1       -0.0397
     32 S          -4.3117   -0.2938    1.9235 S.2     1  UNL1       -0.0725
     33 H          -5.3295   -2.5376    4.7452 H       1  UNL1        0.0283
     34 H          -6.2910   -1.3384    3.8660 H       1  UNL1        0.0283
     35 H          -6.2414   -3.0121    3.2678 H       1  UNL1        0.0283
     36 H          -3.0865   -3.4828    2.9405 H       1  UNL1        0.0838
     37 H          -3.4948    1.6700    0.3873 H       1  UNL1        0.0661
     38 H          -4.2524    3.4834   -0.1553 H       1  UNL1        0.0780
     39 H          -5.4284    4.3584   -2.0043 H       1  UNL1        0.0597
     40 H          -3.9062    4.8493   -2.8761 H       1  UNL1        0.0597
     41 H          -2.4249    5.9179   -0.7846 H       1  UNL1        0.0597
     42 H          -3.4353    5.6423    0.6897 H       1  UNL1        0.0597
     43 H          -0.1277    2.5242   -2.0327 H       1  UNL1        0.0662
     44 H           1.4401   -1.5777   -0.7190 H       1  UNL1        0.1496
     45 H           3.5670   -0.4226   -2.5875 H       1  UNL1        0.0546
     46 H           2.7690   -2.1567   -3.8256 H       1  UNL1        0.0251
     47 H           2.2552   -3.0879   -2.3308 H       1  UNL1        0.0251
     48 H           4.0059   -3.0055   -2.8738 H       1  UNL1        0.0251
     49 H           5.7230   -0.3899   -1.7546 H       1  UNL1        0.0834
     50 H           2.8427   -2.7498    0.2544 H       1  UNL1        0.0834
     51 H          -0.3412   -1.1356    0.0735 H       1  UNL1        0.0632
@<TRIPOS>BOND
     1     1     2    1
     2     2     3   ar
     3     3     4   ar
     4     4     5   ar
     5     5     6    1
     6     6     7   ar
     7     7     8   ar
     8     8     9    1
     9     9    10    1
    10    10    11    1
    11    11    12    1
    12    12    13    1
    13     8    14   ar
    14    14    15   ar
    15    15    16    1
    16    16    17    2
    17    16    18   am
    18    18    19    1
    19    19    20    1
    20    19    21    1
    21    21    22   ar
    22    22    23   ar
    23    23    24   ar
    24    24    25    1
    25    25    26    1
    26    25    27    1
    27    25    28    1
    28    24    29   ar
    29    29    30   ar
    30    15    31   ar
    31     5    32   ar
    32    32     2   ar
    33    31     6   ar
    34    13    10    1
    35    30    21   ar
    36     1    33    1
    37     1    34    1
    38     1    35    1
    39     3    36    1
    40     7    37    1
    41    10    38    1
    42    11    39    1
    43    11    40    1
    44    13    41    1
    45    13    42    1
    46    14    43    1
    47    18    44    1
    48    19    45    1
    49    20    46    1
    50    20    47    1
    51    20    48    1
    52    22    49    1
    53    30    50    1
    54    31    51    1
