@<TRIPOS>MOLECULE
*****
 51 54 0 0 0
SMALL
GASTEIGER

@<TRIPOS>ATOM
      1 C          -4.8407   -3.2284   -1.4243 C.3     1  UNL1        0.0788
      2 O          -3.5849   -2.5839   -1.3376 O.3     1  UNL1       -0.4950
      3 C          -2.9867   -2.2578   -0.1316 C.ar    1  UNL1        0.1219
      4 C          -3.4775   -2.4884    1.1372 C.ar    1  UNL1       -0.0198
      5 C          -2.7691   -2.1073    2.2581 C.ar    1  UNL1       -0.0565
      6 C          -1.5444   -1.4819    2.1458 C.ar    1  UNL1       -0.0384
      7 C          -1.0418   -1.2453    0.8797 C.ar    1  UNL1        0.0600
      8 C          -1.7638   -1.6332   -0.2317 C.ar    1  UNL1        0.0031
      9 N           0.2033   -0.6100    0.7383 N.pl3   1  UNL1       -0.1739
     10 C           0.6199    0.7176    0.6244 C.2     1  UNL1        0.0490
     11 C          -0.6203    1.5780    0.6817 C.3     1  UNL1        0.0392
     12 N          -1.5466    1.2718   -0.3869 N.3     1  UNL1       -0.2925
     13 C          -2.6916    2.1691   -0.2134 C.3     1  UNL1        0.0228
     14 C          -3.3542    2.4698   -1.5493 C.3     1  UNL1        0.0604
     15 O          -2.5539    3.2394   -2.3648 O.3     1  UNL1       -0.3772
     16 C          -1.2281    3.0980   -1.9972 C.3     1  UNL1        0.0604
     17 C          -0.9521    1.6456   -1.6589 C.3     1  UNL1        0.0228
     18 C           1.8091    1.1863    0.4936 C.2     1  UNL1       -0.0319
     19 C           2.9813    0.3385    0.4416 C.ar    1  UNL1        0.0123
     20 C           2.8827   -1.0581    0.5324 C.ar    1  UNL1        0.1552
     21 S           4.5863   -1.6501    0.4166 S.2     1  UNL1       -0.0478
     22 C           5.2990   -0.0258    0.2582 C.ar    1  UNL1        0.1446
     23 C           4.2328    0.8758    0.2995 C.ar    1  UNL1       -0.0189
     24 S           7.0513    0.1225    0.0947 S.O2    1  UNL1        0.0623
     25 N           7.8106   -0.5557    1.4840 N.3     1  UNL1       -0.2030
     26 O           7.4465    1.5452   -0.0786 O.2     1  UNL1       -0.1527
     27 O           7.5231   -0.6307   -1.1309 O.2     1  UNL1       -0.1527
     28 S           1.3766   -1.8750    0.7151 S.O2    1  UNL1        0.0855
     29 O           1.2973   -2.5701    2.0667 O.2     1  UNL1       -0.1489
     30 O           1.1353   -2.8395   -0.4047 O.2     1  UNL1       -0.1489
     31 H          -5.6851   -2.4915   -1.5399 H       1  UNL1        0.0660
     32 H          -5.0781   -3.8625   -0.5484 H       1  UNL1        0.0660
     33 H          -4.8704   -3.8422   -2.3719 H       1  UNL1        0.0660
     34 H          -4.4417   -2.9815    1.1780 H       1  UNL1        0.0654
     35 H          -3.2405   -2.3332    3.2079 H       1  UNL1        0.0619
     36 H          -1.0384   -1.2081    3.0468 H       1  UNL1        0.0637
     37 H          -1.3027   -1.4130   -1.2078 H       1  UNL1        0.0673
     38 H          -0.3442    2.6452    0.5373 H       1  UNL1        0.0489
     39 H          -1.1143    1.5070    1.6726 H       1  UNL1        0.0489
     40 H          -3.4900    1.6653    0.3883 H       1  UNL1        0.0449
     41 H          -2.4131    3.0801    0.3372 H       1  UNL1        0.0449
     42 H          -3.6167    1.4789   -1.9811 H       1  UNL1        0.0572
     43 H          -4.3053    2.9808   -1.3347 H       1  UNL1        0.0572
     44 H          -0.5720    3.3696   -2.8490 H       1  UNL1        0.0572
     45 H          -1.0328    3.7918   -1.1657 H       1  UNL1        0.0572
     46 H           0.1214    1.3929   -1.7171 H       1  UNL1        0.0449
     47 H          -1.4719    1.0510   -2.4567 H       1  UNL1        0.0449
     48 H           1.8016    2.2668    0.4308 H       1  UNL1        0.0640
     49 H           4.6147    1.8758    0.2070 H       1  UNL1        0.0649
     50 H           7.3577   -0.1010    2.3242 H       1  UNL1        0.1443
     51 H           8.8227   -0.2888    1.4846 H       1  UNL1        0.1443
@<TRIPOS>BOND
     1     1     2    1
     2     2     3    1
     3     3     4   ar
     4     4     5   ar
     5     5     6   ar
     6     6     7   ar
     7     7     8   ar
     8     7     9    1
     9     9    10    1
    10    10    11    1
    11    11    12    1
    12    12    13    1
    13    13    14    1
    14    14    15    1
    15    15    16    1
    16    16    17    1
    17    10    18    2
    18    18    19    1
    19    19    20   ar
    20    20    21   ar
    21    21    22   ar
    22    22    23   ar
    23    22    24    1
    24    24    25    1
    25    24    26    2
    26    24    27    2
    27    20    28    1
    28    28    29    2
    29    28    30    2
    30     8     3   ar
    31    28     9    1
    32    17    12    1
    33    23    19   ar
    34     1    31    1
    35     1    32    1
    36     1    33    1
    37     4    34    1
    38     5    35    1
    39     6    36    1
    40     8    37    1
    41    11    38    1
    42    11    39    1
    43    13    40    1
    44    13    41    1
    45    14    42    1
    46    14    43    1
    47    16    44    1
    48    16    45    1
    49    17    46    1
    50    17    47    1
    51    18    48    1
    52    23    49    1
    53    25    50    1
    54    25    51    1
