@<TRIPOS>MOLECULE
*****
 40 43 0 0 0
SMALL
GASTEIGER

@<TRIPOS>ATOM
      1 C           7.2283    0.8787   -0.2619 C.3     1  UNL1        0.0004
      2 N           5.8091    0.8724   -0.5587 N.am    1  UNL1       -0.3144
      3 C           4.8608    0.1760    0.2234 C.2     1  UNL1        0.2439
      4 O           5.3121   -0.4594    1.2210 O.2     1  UNL1       -0.2702
      5 C           3.4423    0.1372   -0.0273 C.ar    1  UNL1        0.0373
      6 C           2.8794    0.8026   -1.0930 C.ar    1  UNL1       -0.0490
      7 C           1.5161    0.7622   -1.3310 C.ar    1  UNL1       -0.0533
      8 C           0.6998    0.0337   -0.4748 C.ar    1  UNL1       -0.0175
      9 C          -0.6715   -0.0350   -0.6753 C.ar    1  UNL1       -0.0477
     10 C          -1.5321   -0.7399    0.1370 C.ar    1  UNL1       -0.0096
     11 C          -2.9583   -0.7296   -0.1871 C.3     1  UNL1        0.1337
     12 O          -3.1771   -1.1679   -1.4957 O.3     1  UNL1       -0.3777
     13 C          -3.8038   -1.5703    0.7166 C.3     1  UNL1        0.0039
     14 C          -5.1907   -0.9912    0.3978 C.3     1  UNL1        0.0278
     15 N          -4.8766    0.4272    0.2853 N.ar    1  UNL1       -0.3312
     16 C          -5.4036    1.6609    0.3949 C.ar    1  UNL1        0.0962
     17 N          -4.4810    2.5937    0.1353 N.ar    1  UNL1       -0.2437
     18 C          -3.3363    1.9590   -0.1476 C.ar    1  UNL1        0.0518
     19 C          -3.5933    0.6069   -0.0514 C.ar    1  UNL1        0.0745
     20 C          -0.9722   -1.4080    1.2058 C.ar    1  UNL1       -0.0549
     21 C           0.3877   -1.3582    1.4306 C.ar    1  UNL1       -0.0537
     22 C           1.2365   -0.6387    0.5951 C.ar    1  UNL1       -0.0171
     23 C           2.5884   -0.5804    0.8053 C.ar    1  UNL1       -0.0419
     24 H           7.5063    0.0221    0.3943 H       1  UNL1        0.0426
     25 H           7.5051    1.8533    0.1870 H       1  UNL1        0.0426
     26 H           7.7596    0.8153   -1.2485 H       1  UNL1        0.0426
     27 H           5.4897    1.4098   -1.3888 H       1  UNL1        0.1487
     28 H           3.5163    1.3738   -1.7648 H       1  UNL1        0.0625
     29 H           1.0542    1.2832   -2.1702 H       1  UNL1        0.0624
     30 H          -1.0538    0.5118   -1.5337 H       1  UNL1        0.0627
     31 H          -2.3188   -1.3002   -1.9596 H       1  UNL1        0.2111
     32 H          -3.7714   -2.6502    0.4782 H       1  UNL1        0.0317
     33 H          -3.6312   -1.3466    1.7872 H       1  UNL1        0.0317
     34 H          -5.9204   -1.2179    1.1708 H       1  UNL1        0.0493
     35 H          -5.4802   -1.3231   -0.6251 H       1  UNL1        0.0493
     36 H          -6.4413    1.8255    0.6604 H       1  UNL1        0.1029
     37 H          -2.3958    2.4553   -0.4024 H       1  UNL1        0.0849
     38 H          -1.6389   -1.9778    1.8685 H       1  UNL1        0.0621
     39 H           0.8434   -1.8666    2.2506 H       1  UNL1        0.0624
     40 H           3.0131   -1.0996    1.6335 H       1  UNL1        0.0631
@<TRIPOS>BOND
     1     1     2    1
     2     2     3   am
     3     3     4    2
     4     3     5    1
     5     5     6   ar
     6     6     7   ar
     7     7     8   ar
     8     8     9   ar
     9     9    10   ar
    10    10    11    1
    11    11    12    1
    12    11    13    1
    13    13    14    1
    14    14    15    1
    15    15    16   ar
    16    16    17   ar
    17    17    18   ar
    18    18    19   ar
    19    10    20   ar
    20    20    21   ar
    21    21    22   ar
    22    22    23   ar
    23    23     5   ar
    24    22     8   ar
    25    19    11    1
    26    19    15   ar
    27     1    24    1
    28     1    25    1
    29     1    26    1
    30     2    27    1
    31     6    28    1
    32     7    29    1
    33     9    30    1
    34    12    31    1
    35    13    32    1
    36    13    33    1
    37    14    34    1
    38    14    35    1
    39    16    36    1
    40    18    37    1
    41    20    38    1
    42    21    39    1
    43    23    40    1
