
     RDKit          3D

 40 43  0  0  0  0  0  0  0  0999 V2000
    7.2283    0.8787   -0.2619 C   0  0  0  0  0  0  0  0  0  0  0  0
    5.8091    0.8724   -0.5587 N   0  0  0  0  0  0  0  0  0  0  0  0
    4.8608    0.1760    0.2234 C   0  0  0  0  0  0  0  0  0  0  0  0
    5.3121   -0.4594    1.2210 O   0  0  0  0  0  0  0  0  0  0  0  0
    3.4423    0.1372   -0.0273 C   0  0  0  0  0  0  0  0  0  0  0  0
    2.8794    0.8026   -1.0930 C   0  0  0  0  0  0  0  0  0  0  0  0
    1.5161    0.7622   -1.3310 C   0  0  0  0  0  0  0  0  0  0  0  0
    0.6998    0.0337   -0.4748 C   0  0  0  0  0  0  0  0  0  0  0  0
   -0.6715   -0.0350   -0.6753 C   0  0  0  0  0  0  0  0  0  0  0  0
   -1.5321   -0.7399    0.1370 C   0  0  0  0  0  0  0  0  0  0  0  0
   -2.9583   -0.7296   -0.1871 C   0  0  1  0  0  0  0  0  0  0  0  0
   -3.1771   -1.1679   -1.4957 O   0  0  0  0  0  0  0  0  0  0  0  0
   -3.8038   -1.5703    0.7166 C   0  0  0  0  0  0  0  0  0  0  0  0
   -5.1907   -0.9912    0.3978 C   0  0  0  0  0  0  0  0  0  0  0  0
   -4.8766    0.4272    0.2853 N   0  0  0  0  0  0  0  0  0  0  0  0
   -5.4036    1.6609    0.3949 C   0  0  0  0  0  0  0  0  0  0  0  0
   -4.4810    2.5937    0.1353 N   0  0  0  0  0  0  0  0  0  0  0  0
   -3.3363    1.9590   -0.1476 C   0  0  0  0  0  0  0  0  0  0  0  0
   -3.5933    0.6069   -0.0514 C   0  0  0  0  0  0  0  0  0  0  0  0
   -0.9722   -1.4080    1.2058 C   0  0  0  0  0  0  0  0  0  0  0  0
    0.3877   -1.3582    1.4306 C   0  0  0  0  0  0  0  0  0  0  0  0
    1.2365   -0.6387    0.5951 C   0  0  0  0  0  0  0  0  0  0  0  0
    2.5884   -0.5804    0.8053 C   0  0  0  0  0  0  0  0  0  0  0  0
    7.5063    0.0221    0.3943 H   0  0  0  0  0  0  0  0  0  0  0  0
    7.5051    1.8533    0.1870 H   0  0  0  0  0  0  0  0  0  0  0  0
    7.7596    0.8153   -1.2485 H   0  0  0  0  0  0  0  0  0  0  0  0
    5.4897    1.4098   -1.3888 H   0  0  0  0  0  0  0  0  0  0  0  0
    3.5163    1.3738   -1.7648 H   0  0  0  0  0  0  0  0  0  0  0  0
    1.0542    1.2832   -2.1702 H   0  0  0  0  0  0  0  0  0  0  0  0
   -1.0538    0.5118   -1.5337 H   0  0  0  0  0  0  0  0  0  0  0  0
   -2.3188   -1.3002   -1.9596 H   0  0  0  0  0  0  0  0  0  0  0  0
   -3.7714   -2.6502    0.4782 H   0  0  0  0  0  0  0  0  0  0  0  0
   -3.6312   -1.3466    1.7872 H   0  0  0  0  0  0  0  0  0  0  0  0
   -5.9204   -1.2179    1.1708 H   0  0  0  0  0  0  0  0  0  0  0  0
   -5.4802   -1.3231   -0.6251 H   0  0  0  0  0  0  0  0  0  0  0  0
   -6.4413    1.8255    0.6604 H   0  0  0  0  0  0  0  0  0  0  0  0
   -2.3958    2.4553   -0.4024 H   0  0  0  0  0  0  0  0  0  0  0  0
   -1.6389   -1.9778    1.8685 H   0  0  0  0  0  0  0  0  0  0  0  0
    0.8434   -1.8666    2.2506 H   0  0  0  0  0  0  0  0  0  0  0  0
    3.0131   -1.0996    1.6335 H   0  0  0  0  0  0  0  0  0  0  0  0
  1  2  1  0
  2  3  1  0
  3  4  2  0
  3  5  1  0
  5  6  2  0
  6  7  1  0
  7  8  2  0
  8  9  1  0
  9 10  2  0
 10 11  1  0
 11 12  1  6
 11 13  1  0
 13 14  1  0
 14 15  1  0
 15 16  1  0
 16 17  2  0
 17 18  1  0
 18 19  2  0
 10 20  1  0
 20 21  2  0
 21 22  1  0
 22 23  2  0
 23  5  1  0
 22  8  1  0
 19 11  1  0
 19 15  1  0
  1 24  1  0
  1 25  1  0
  1 26  1  0
  2 27  1  0
  6 28  1  0
  7 29  1  0
  9 30  1  0
 12 31  1  0
 13 32  1  0
 13 33  1  0
 14 34  1  0
 14 35  1  0
 16 36  1  0
 18 37  1  0
 20 38  1  0
 21 39  1  0
 23 40  1  0
M  END
$$$$
