@<TRIPOS>MOLECULE
*****
 54 57 0 0 0
SMALL
GASTEIGER

@<TRIPOS>ATOM
      1 C          -1.9181   -0.2948   -0.8843 C.3     1  UNL1       -0.0301
      2 C          -2.9810    0.2305   -1.7465 C.3     1  UNL1       -0.0470
      3 C          -4.1184   -0.7370   -1.4329 C.3     1  UNL1       -0.0261
      4 C          -3.7559   -1.4150   -0.1178 C.3     1  UNL1        0.0609
      5 O          -4.8846   -1.4072    0.6860 O.3     1  UNL1       -0.3912
      6 C          -2.7033   -0.4670    0.4118 C.3     1  UNL1       -0.0030
      7 C          -3.4320    0.8015    0.8115 C.3     1  UNL1       -0.0569
      8 C          -1.8403   -1.0002    1.4890 C.3     1  UNL1       -0.0447
      9 C          -0.4074   -1.2050    1.1840 C.3     1  UNL1       -0.0489
     10 C           0.2006   -0.4013    0.1011 C.3     1  UNL1       -0.0322
     11 C          -0.7654    0.5745   -0.5542 C.3     1  UNL1       -0.0343
     12 C          -0.1161    1.1748   -1.7774 C.3     1  UNL1       -0.0494
     13 C           1.0740    1.9712   -1.2654 C.3     1  UNL1       -0.0491
     14 C           2.0598    0.9562   -0.7332 C.3     1  UNL1       -0.0287
     15 C           3.3818    1.6169   -0.4682 C.3     1  UNL1        0.0094
     16 C           4.1854    0.7869    0.4916 C.2     1  UNL1        0.1365
     17 O           5.1392    1.3435    1.0102 O.2     1  UNL1       -0.2971
     18 C           3.8764   -0.6249    0.8196 C.3     1  UNL1        0.0152
     19 C           4.6266   -1.5368   -0.1525 C.3     1  UNL1       -0.0557
     20 C           2.4368   -0.9632    0.7481 C.3     1  UNL1       -0.0378
     21 C           1.5331    0.2249    0.4623 C.3     1  UNL1       -0.0251
     22 C           1.4722    1.0511    1.6992 C.3     1  UNL1       -0.0590
     23 H          -1.6294   -1.2899   -1.2096 H       1  UNL1        0.0310
     24 H          -3.2904    1.2683   -1.5753 H       1  UNL1        0.0269
     25 H          -2.7335    0.0992   -2.8243 H       1  UNL1        0.0269
     26 H          -5.0969   -0.2243   -1.3664 H       1  UNL1        0.0290
     27 H          -4.1354   -1.5531   -2.2013 H       1  UNL1        0.0290
     28 H          -3.3657   -2.4446   -0.2786 H       1  UNL1        0.0599
     29 H          -5.6654   -0.9698    0.2523 H       1  UNL1        0.2098
     30 H          -4.5023    0.8016    0.5117 H       1  UNL1        0.0236
     31 H          -2.9891    1.7097    0.3938 H       1  UNL1        0.0236
     32 H          -3.4510    0.7973    1.9351 H       1  UNL1        0.0236
     33 H          -2.3044   -1.9487    1.8448 H       1  UNL1        0.0271
     34 H          -1.9550   -0.3111    2.3723 H       1  UNL1        0.0271
     35 H           0.1753   -1.0026    2.1160 H       1  UNL1        0.0268
     36 H          -0.2360   -2.3109    1.0239 H       1  UNL1        0.0268
     37 H           0.4601   -1.1021   -0.7473 H       1  UNL1        0.0309
     38 H          -0.9870    1.4049    0.1255 H       1  UNL1        0.0306
     39 H           0.2644    0.3834   -2.4672 H       1  UNL1        0.0268
     40 H          -0.8476    1.8113   -2.3045 H       1  UNL1        0.0268
     41 H           0.7450    2.6158   -0.4136 H       1  UNL1        0.0268
     42 H           1.5592    2.5513   -2.0701 H       1  UNL1        0.0268
     43 H           2.1954    0.2026   -1.5540 H       1  UNL1        0.0310
     44 H           3.9608    1.6187   -1.4259 H       1  UNL1        0.0344
     45 H           3.3088    2.6693   -0.1448 H       1  UNL1        0.0344
     46 H           4.3159   -0.8407    1.8151 H       1  UNL1        0.0375
     47 H           4.0140   -2.4673   -0.3367 H       1  UNL1        0.0236
     48 H           4.6996   -1.0359   -1.1452 H       1  UNL1        0.0236
     49 H           5.5905   -1.8793    0.2452 H       1  UNL1        0.0236
     50 H           2.2198   -1.7494   -0.0054 H       1  UNL1        0.0277
     51 H           2.1362   -1.4102    1.7303 H       1  UNL1        0.0277
     52 H           2.1396    1.9311    1.5668 H       1  UNL1        0.0235
     53 H           0.4711    1.4746    1.9035 H       1  UNL1        0.0235
     54 H           1.8699    0.5209    2.6014 H       1  UNL1        0.0235
@<TRIPOS>BOND
     1     1     2    1
     2     2     3    1
     3     3     4    1
     4     4     5    1
     5     4     6    1
     6     6     7    1
     7     6     8    1
     8     8     9    1
     9     9    10    1
    10    10    11    1
    11    11    12    1
    12    12    13    1
    13    13    14    1
    14    14    15    1
    15    15    16    1
    16    16    17    2
    17    16    18    1
    18    18    19    1
    19    18    20    1
    20    20    21    1
    21    21    22    1
    22     6     1    1
    23    21    10    1
    24    11     1    1
    25    21    14    1
    26     1    23    1
    27     2    24    1
    28     2    25    1
    29     3    26    1
    30     3    27    1
    31     4    28    1
    32     5    29    1
    33     7    30    1
    34     7    31    1
    35     7    32    1
    36     8    33    1
    37     8    34    1
    38     9    35    1
    39     9    36    1
    40    10    37    1
    41    11    38    1
    42    12    39    1
    43    12    40    1
    44    13    41    1
    45    13    42    1
    46    14    43    1
    47    15    44    1
    48    15    45    1
    49    18    46    1
    50    19    47    1
    51    19    48    1
    52    19    49    1
    53    20    50    1
    54    20    51    1
    55    22    52    1
    56    22    53    1
    57    22    54    1
