
     RDKit          3D

 54 57  0  0  0  0  0  0  0  0999 V2000
   -1.9181   -0.2948   -0.8843 C   0  0  2  0  0  0  0  0  0  0  0  0
   -2.9810    0.2305   -1.7465 C   0  0  0  0  0  0  0  0  0  0  0  0
   -4.1184   -0.7370   -1.4329 C   0  0  0  0  0  0  0  0  0  0  0  0
   -3.7559   -1.4150   -0.1178 C   0  0  2  0  0  0  0  0  0  0  0  0
   -4.8846   -1.4072    0.6860 O   0  0  0  0  0  0  0  0  0  0  0  0
   -2.7033   -0.4670    0.4118 C   0  0  2  0  0  0  0  0  0  0  0  0
   -3.4320    0.8015    0.8115 C   0  0  0  0  0  0  0  0  0  0  0  0
   -1.8403   -1.0002    1.4890 C   0  0  0  0  0  0  0  0  0  0  0  0
   -0.4074   -1.2050    1.1840 C   0  0  0  0  0  0  0  0  0  0  0  0
    0.2006   -0.4013    0.1011 C   0  0  1  0  0  0  0  0  0  0  0  0
   -0.7654    0.5745   -0.5542 C   0  0  1  0  0  0  0  0  0  0  0  0
   -0.1161    1.1748   -1.7774 C   0  0  0  0  0  0  0  0  0  0  0  0
    1.0740    1.9712   -1.2654 C   0  0  0  0  0  0  0  0  0  0  0  0
    2.0598    0.9562   -0.7332 C   0  0  1  0  0  0  0  0  0  0  0  0
    3.3818    1.6169   -0.4682 C   0  0  0  0  0  0  0  0  0  0  0  0
    4.1854    0.7869    0.4916 C   0  0  0  0  0  0  0  0  0  0  0  0
    5.1392    1.3435    1.0102 O   0  0  0  0  0  0  0  0  0  0  0  0
    3.8764   -0.6249    0.8196 C   0  0  2  0  0  0  0  0  0  0  0  0
    4.6266   -1.5368   -0.1525 C   0  0  0  0  0  0  0  0  0  0  0  0
    2.4368   -0.9632    0.7481 C   0  0  0  0  0  0  0  0  0  0  0  0
    1.5331    0.2249    0.4623 C   0  0  2  0  0  0  0  0  0  0  0  0
    1.4722    1.0511    1.6992 C   0  0  0  0  0  0  0  0  0  0  0  0
   -1.6294   -1.2899   -1.2096 H   0  0  0  0  0  0  0  0  0  0  0  0
   -3.2904    1.2683   -1.5753 H   0  0  0  0  0  0  0  0  0  0  0  0
   -2.7335    0.0992   -2.8243 H   0  0  0  0  0  0  0  0  0  0  0  0
   -5.0969   -0.2243   -1.3664 H   0  0  0  0  0  0  0  0  0  0  0  0
   -4.1354   -1.5531   -2.2013 H   0  0  0  0  0  0  0  0  0  0  0  0
   -3.3657   -2.4446   -0.2786 H   0  0  0  0  0  0  0  0  0  0  0  0
   -5.6654   -0.9698    0.2523 H   0  0  0  0  0  0  0  0  0  0  0  0
   -4.5023    0.8016    0.5117 H   0  0  0  0  0  0  0  0  0  0  0  0
   -2.9891    1.7097    0.3938 H   0  0  0  0  0  0  0  0  0  0  0  0
   -3.4510    0.7973    1.9351 H   0  0  0  0  0  0  0  0  0  0  0  0
   -2.3044   -1.9487    1.8448 H   0  0  0  0  0  0  0  0  0  0  0  0
   -1.9550   -0.3111    2.3723 H   0  0  0  0  0  0  0  0  0  0  0  0
    0.1753   -1.0026    2.1160 H   0  0  0  0  0  0  0  0  0  0  0  0
   -0.2360   -2.3109    1.0239 H   0  0  0  0  0  0  0  0  0  0  0  0
    0.4601   -1.1021   -0.7473 H   0  0  0  0  0  0  0  0  0  0  0  0
   -0.9870    1.4049    0.1255 H   0  0  0  0  0  0  0  0  0  0  0  0
    0.2644    0.3834   -2.4672 H   0  0  0  0  0  0  0  0  0  0  0  0
   -0.8476    1.8113   -2.3045 H   0  0  0  0  0  0  0  0  0  0  0  0
    0.7450    2.6158   -0.4136 H   0  0  0  0  0  0  0  0  0  0  0  0
    1.5592    2.5513   -2.0701 H   0  0  0  0  0  0  0  0  0  0  0  0
    2.1954    0.2026   -1.5540 H   0  0  0  0  0  0  0  0  0  0  0  0
    3.9608    1.6187   -1.4259 H   0  0  0  0  0  0  0  0  0  0  0  0
    3.3088    2.6693   -0.1448 H   0  0  0  0  0  0  0  0  0  0  0  0
    4.3159   -0.8407    1.8151 H   0  0  0  0  0  0  0  0  0  0  0  0
    4.0140   -2.4673   -0.3367 H   0  0  0  0  0  0  0  0  0  0  0  0
    4.6996   -1.0359   -1.1452 H   0  0  0  0  0  0  0  0  0  0  0  0
    5.5905   -1.8793    0.2452 H   0  0  0  0  0  0  0  0  0  0  0  0
    2.2198   -1.7494   -0.0054 H   0  0  0  0  0  0  0  0  0  0  0  0
    2.1362   -1.4102    1.7303 H   0  0  0  0  0  0  0  0  0  0  0  0
    2.1396    1.9311    1.5668 H   0  0  0  0  0  0  0  0  0  0  0  0
    0.4711    1.4746    1.9035 H   0  0  0  0  0  0  0  0  0  0  0  0
    1.8699    0.5209    2.6014 H   0  0  0  0  0  0  0  0  0  0  0  0
  1  2  1  0
  2  3  1  0
  3  4  1  0
  4  5  1  0
  4  6  1  0
  6  7  1  1
  6  8  1  0
  8  9  1  0
  9 10  1  0
 10 11  1  0
 11 12  1  0
 12 13  1  0
 13 14  1  0
 14 15  1  0
 15 16  1  0
 16 17  2  0
 16 18  1  0
 18 19  1  0
 18 20  1  0
 20 21  1  0
 21 22  1  1
  6  1  1  0
 21 10  1  0
 11  1  1  0
 21 14  1  0
  1 23  1  6
  2 24  1  0
  2 25  1  0
  3 26  1  0
  3 27  1  0
  4 28  1  6
  5 29  1  0
  7 30  1  0
  7 31  1  0
  7 32  1  0
  8 33  1  0
  8 34  1  0
  9 35  1  0
  9 36  1  0
 10 37  1  6
 11 38  1  1
 12 39  1  0
 12 40  1  0
 13 41  1  0
 13 42  1  0
 14 43  1  6
 15 44  1  0
 15 45  1  0
 18 46  1  1
 19 47  1  0
 19 48  1  0
 19 49  1  0
 20 50  1  0
 20 51  1  0
 22 52  1  0
 22 53  1  0
 22 54  1  0
M  END
$$$$
