@<TRIPOS>MOLECULE
*****
 59 62 0 0 0
SMALL
GASTEIGER

@<TRIPOS>ATOM
      1 C           0.2908    2.4552    0.3181 C.3     1  UNL1       -0.0421
      2 C           0.5280    1.3441   -0.6464 C.3     1  UNL1        0.0515
      3 C           1.8430    0.7242   -0.4578 C.ar    1  UNL1       -0.0271
      4 C           2.2610   -0.3873   -1.1565 C.ar    1  UNL1       -0.0562
      5 C           3.5367   -0.9112   -0.9148 C.ar    1  UNL1       -0.0523
      6 C           4.3986   -0.3559    0.0009 C.ar    1  UNL1        0.0004
      7 C           5.7320   -0.8754    0.2732 C.ar    1  UNL1        0.0710
      8 C           6.2675   -1.9759   -0.3581 C.ar    1  UNL1       -0.0357
      9 C           7.5467   -2.4496   -0.0785 C.ar    1  UNL1       -0.0583
     10 C           8.3097   -1.7949    0.8645 C.ar    1  UNL1       -0.0436
     11 C           7.7617   -0.7021    1.4826 C.ar    1  UNL1        0.0283
     12 N           6.5244   -0.2740    1.1877 N.ar    1  UNL1       -0.2550
     13 C           3.9708    0.7529    0.6923 C.ar    1  UNL1       -0.0523
     14 C           2.7181    1.2653    0.4534 C.ar    1  UNL1       -0.0562
     15 N          -0.5501    0.3840   -0.6984 N.am    1  UNL1       -0.2605
     16 C          -1.3429    0.1641   -1.8834 C.3     1  UNL1        0.0224
     17 C          -2.7499   -0.2427   -1.5452 C.3     1  UNL1        0.0075
     18 C          -3.1335   -0.1266   -0.1141 C.3     1  UNL1        0.1415
     19 C          -4.4346   -0.8549    0.1080 C.3     1  UNL1       -0.0064
     20 C          -4.4701   -2.2917   -0.2098 C.3     1  UNL1       -0.0258
     21 C          -3.4853   -3.1041    0.5829 C.3     1  UNL1        0.0443
     22 O          -3.6021   -4.4699    0.2456 O.3     1  UNL1       -0.3950
     23 C          -3.4214    1.2847    0.2994 C.ar    1  UNL1       -0.0041
     24 C          -3.7028    1.4800    1.6595 C.ar    1  UNL1       -0.0548
     25 C          -3.9885    2.7394    2.1352 C.ar    1  UNL1       -0.0614
     26 C          -3.9998    3.8149    1.2780 C.ar    1  UNL1       -0.0617
     27 C          -3.7188    3.5858   -0.0505 C.ar    1  UNL1       -0.0614
     28 C          -3.4253    2.3287   -0.5713 C.ar    1  UNL1       -0.0548
     29 O          -2.1813   -0.6667    0.7780 O.3     1  UNL1       -0.4388
     30 C          -0.8403   -0.3797    0.4482 C.2     1  UNL1        0.4042
     31 O           0.1076   -0.7938    1.1606 O.2     1  UNL1       -0.2262
     32 H           1.0412    3.2553    0.0925 H       1  UNL1        0.0251
     33 H          -0.6914    2.9415    0.1404 H       1  UNL1        0.0251
     34 H           0.4455    2.1785    1.3741 H       1  UNL1        0.0251
     35 H           0.5575    1.8267   -1.6715 H       1  UNL1        0.0549
     36 H           1.6194   -0.8596   -1.8858 H       1  UNL1        0.0621
     37 H           3.8263   -1.7799   -1.4797 H       1  UNL1        0.0624
     38 H           5.6746   -2.4955   -1.1007 H       1  UNL1        0.0639
     39 H           7.9486   -3.3219   -0.5899 H       1  UNL1        0.0619
     40 H           9.3162   -2.1631    1.0883 H       1  UNL1        0.0633
     41 H           8.3505   -0.1819    2.2220 H       1  UNL1        0.0830
     42 H           4.6373    1.2223    1.4327 H       1  UNL1        0.0624
     43 H           2.4540    2.1501    1.0491 H       1  UNL1        0.0621
     44 H          -0.8453   -0.6245   -2.5396 H       1  UNL1        0.0467
     45 H          -1.3649    1.0624   -2.5416 H       1  UNL1        0.0467
     46 H          -2.8172   -1.3260   -1.8861 H       1  UNL1        0.0322
     47 H          -3.4300    0.2754   -2.2409 H       1  UNL1        0.0322
     48 H          -4.7957   -0.7260    1.1611 H       1  UNL1        0.0308
     49 H          -5.2594   -0.3537   -0.4968 H       1  UNL1        0.0308
     50 H          -4.2789   -2.5263   -1.2960 H       1  UNL1        0.0289
     51 H          -5.4896   -2.7291    0.0415 H       1  UNL1        0.0289
     52 H          -3.6125   -2.9974    1.6686 H       1  UNL1        0.0557
     53 H          -2.4114   -2.8306    0.3606 H       1  UNL1        0.0557
     54 H          -4.5707   -4.5784   -0.0173 H       1  UNL1        0.2094
     55 H          -3.7016    0.6534    2.3595 H       1  UNL1        0.0622
     56 H          -4.2000    2.8606    3.1805 H       1  UNL1        0.0618
     57 H          -4.2255    4.8342    1.6312 H       1  UNL1        0.0618
     58 H          -3.7122    4.3981   -0.7755 H       1  UNL1        0.0618
     59 H          -3.2143    2.1688   -1.6033 H       1  UNL1        0.0622
@<TRIPOS>BOND
     1     1     2    1
     2     2     3    1
     3     3     4   ar
     4     4     5   ar
     5     5     6   ar
     6     6     7    1
     7     7     8   ar
     8     8     9   ar
     9     9    10   ar
    10    10    11   ar
    11    11    12   ar
    12     6    13   ar
    13    13    14   ar
    14     2    15    1
    15    15    16    1
    16    16    17    1
    17    17    18    1
    18    18    19    1
    19    19    20    1
    20    20    21    1
    21    21    22    1
    22    18    23    1
    23    23    24   ar
    24    24    25   ar
    25    25    26   ar
    26    26    27   ar
    27    27    28   ar
    28    18    29    1
    29    29    30    1
    30    30    31    2
    31    14     3   ar
    32    30    15   am
    33    12     7   ar
    34    28    23   ar
    35     1    32    1
    36     1    33    1
    37     1    34    1
    38     2    35    1
    39     4    36    1
    40     5    37    1
    41     8    38    1
    42     9    39    1
    43    10    40    1
    44    11    41    1
    45    13    42    1
    46    14    43    1
    47    16    44    1
    48    16    45    1
    49    17    46    1
    50    17    47    1
    51    19    48    1
    52    19    49    1
    53    20    50    1
    54    20    51    1
    55    21    52    1
    56    21    53    1
    57    22    54    1
    58    24    55    1
    59    25    56    1
    60    26    57    1
    61    27    58    1
    62    28    59    1
