
     RDKit          3D

 59 62  0  0  0  0  0  0  0  0999 V2000
    0.2908    2.4552    0.3181 C   0  0  0  0  0  0  0  0  0  0  0  0
    0.5280    1.3441   -0.6464 C   0  0  1  0  0  0  0  0  0  0  0  0
    1.8430    0.7242   -0.4578 C   0  0  0  0  0  0  0  0  0  0  0  0
    2.2610   -0.3873   -1.1565 C   0  0  0  0  0  0  0  0  0  0  0  0
    3.5367   -0.9112   -0.9148 C   0  0  0  0  0  0  0  0  0  0  0  0
    4.3986   -0.3559    0.0009 C   0  0  0  0  0  0  0  0  0  0  0  0
    5.7320   -0.8754    0.2732 C   0  0  0  0  0  0  0  0  0  0  0  0
    6.2675   -1.9759   -0.3581 C   0  0  0  0  0  0  0  0  0  0  0  0
    7.5467   -2.4496   -0.0785 C   0  0  0  0  0  0  0  0  0  0  0  0
    8.3097   -1.7949    0.8645 C   0  0  0  0  0  0  0  0  0  0  0  0
    7.7617   -0.7021    1.4826 C   0  0  0  0  0  0  0  0  0  0  0  0
    6.5244   -0.2740    1.1877 N   0  0  0  0  0  0  0  0  0  0  0  0
    3.9708    0.7529    0.6923 C   0  0  0  0  0  0  0  0  0  0  0  0
    2.7181    1.2653    0.4534 C   0  0  0  0  0  0  0  0  0  0  0  0
   -0.5501    0.3840   -0.6984 N   0  0  0  0  0  0  0  0  0  0  0  0
   -1.3429    0.1641   -1.8834 C   0  0  0  0  0  0  0  0  0  0  0  0
   -2.7499   -0.2427   -1.5452 C   0  0  0  0  0  0  0  0  0  0  0  0
   -3.1335   -0.1266   -0.1141 C   0  0  2  0  0  0  0  0  0  0  0  0
   -4.4346   -0.8549    0.1080 C   0  0  0  0  0  0  0  0  0  0  0  0
   -4.4701   -2.2917   -0.2098 C   0  0  0  0  0  0  0  0  0  0  0  0
   -3.4853   -3.1041    0.5829 C   0  0  0  0  0  0  0  0  0  0  0  0
   -3.6021   -4.4699    0.2456 O   0  0  0  0  0  0  0  0  0  0  0  0
   -3.4214    1.2847    0.2994 C   0  0  0  0  0  0  0  0  0  0  0  0
   -3.7028    1.4800    1.6595 C   0  0  0  0  0  0  0  0  0  0  0  0
   -3.9885    2.7394    2.1352 C   0  0  0  0  0  0  0  0  0  0  0  0
   -3.9998    3.8149    1.2780 C   0  0  0  0  0  0  0  0  0  0  0  0
   -3.7188    3.5858   -0.0505 C   0  0  0  0  0  0  0  0  0  0  0  0
   -3.4253    2.3287   -0.5713 C   0  0  0  0  0  0  0  0  0  0  0  0
   -2.1813   -0.6667    0.7780 O   0  0  0  0  0  0  0  0  0  0  0  0
   -0.8403   -0.3797    0.4482 C   0  0  0  0  0  0  0  0  0  0  0  0
    0.1076   -0.7938    1.1606 O   0  0  0  0  0  0  0  0  0  0  0  0
    1.0412    3.2553    0.0925 H   0  0  0  0  0  0  0  0  0  0  0  0
   -0.6914    2.9415    0.1404 H   0  0  0  0  0  0  0  0  0  0  0  0
    0.4455    2.1785    1.3741 H   0  0  0  0  0  0  0  0  0  0  0  0
    0.5575    1.8267   -1.6715 H   0  0  0  0  0  0  0  0  0  0  0  0
    1.6194   -0.8596   -1.8858 H   0  0  0  0  0  0  0  0  0  0  0  0
    3.8263   -1.7799   -1.4797 H   0  0  0  0  0  0  0  0  0  0  0  0
    5.6746   -2.4955   -1.1007 H   0  0  0  0  0  0  0  0  0  0  0  0
    7.9486   -3.3219   -0.5899 H   0  0  0  0  0  0  0  0  0  0  0  0
    9.3162   -2.1631    1.0883 H   0  0  0  0  0  0  0  0  0  0  0  0
    8.3505   -0.1819    2.2220 H   0  0  0  0  0  0  0  0  0  0  0  0
    4.6373    1.2223    1.4327 H   0  0  0  0  0  0  0  0  0  0  0  0
    2.4540    2.1501    1.0491 H   0  0  0  0  0  0  0  0  0  0  0  0
   -0.8453   -0.6245   -2.5396 H   0  0  0  0  0  0  0  0  0  0  0  0
   -1.3649    1.0624   -2.5416 H   0  0  0  0  0  0  0  0  0  0  0  0
   -2.8172   -1.3260   -1.8861 H   0  0  0  0  0  0  0  0  0  0  0  0
   -3.4300    0.2754   -2.2409 H   0  0  0  0  0  0  0  0  0  0  0  0
   -4.7957   -0.7260    1.1611 H   0  0  0  0  0  0  0  0  0  0  0  0
   -5.2594   -0.3537   -0.4968 H   0  0  0  0  0  0  0  0  0  0  0  0
   -4.2789   -2.5263   -1.2960 H   0  0  0  0  0  0  0  0  0  0  0  0
   -5.4896   -2.7291    0.0415 H   0  0  0  0  0  0  0  0  0  0  0  0
   -3.6125   -2.9974    1.6686 H   0  0  0  0  0  0  0  0  0  0  0  0
   -2.4114   -2.8306    0.3606 H   0  0  0  0  0  0  0  0  0  0  0  0
   -4.5707   -4.5784   -0.0173 H   0  0  0  0  0  0  0  0  0  0  0  0
   -3.7016    0.6534    2.3595 H   0  0  0  0  0  0  0  0  0  0  0  0
   -4.2000    2.8606    3.1805 H   0  0  0  0  0  0  0  0  0  0  0  0
   -4.2255    4.8342    1.6312 H   0  0  0  0  0  0  0  0  0  0  0  0
   -3.7122    4.3981   -0.7755 H   0  0  0  0  0  0  0  0  0  0  0  0
   -3.2143    2.1688   -1.6033 H   0  0  0  0  0  0  0  0  0  0  0  0
  1  2  1  0
  2  3  1  0
  3  4  2  0
  4  5  1  0
  5  6  2  0
  6  7  1  0
  7  8  2  0
  8  9  1  0
  9 10  2  0
 10 11  1  0
 11 12  2  0
  6 13  1  0
 13 14  2  0
  2 15  1  0
 15 16  1  0
 16 17  1  0
 17 18  1  0
 18 19  1  6
 19 20  1  0
 20 21  1  0
 21 22  1  0
 18 23  1  0
 23 24  2  0
 24 25  1  0
 25 26  2  0
 26 27  1  0
 27 28  2  0
 18 29  1  0
 29 30  1  0
 30 31  2  0
 14  3  1  0
 30 15  1  0
 12  7  1  0
 28 23  1  0
  1 32  1  0
  1 33  1  0
  1 34  1  0
  2 35  1  6
  4 36  1  0
  5 37  1  0
  8 38  1  0
  9 39  1  0
 10 40  1  0
 11 41  1  0
 13 42  1  0
 14 43  1  0
 16 44  1  0
 16 45  1  0
 17 46  1  0
 17 47  1  0
 19 48  1  0
 19 49  1  0
 20 50  1  0
 20 51  1  0
 21 52  1  0
 21 53  1  0
 22 54  1  0
 24 55  1  0
 25 56  1  0
 26 57  1  0
 27 58  1  0
 28 59  1  0
M  END
$$$$
