
     RDKit          3D

 61 68  0  0  0  0  0  0  0  0999 V2000
   -4.2836   -2.4108    1.2693 C   0  0  0  0  0  0  0  0  0  0  0  0
   -3.9191   -0.9879    1.2484 N   0  0  0  0  0  0  0  0  0  0  0  0
   -3.1221   -0.8043    0.0529 C   0  0  2  0  0  0  0  0  0  0  0  0
   -1.9079   -1.7005    0.1675 C   0  0  0  0  0  0  0  0  0  0  0  0
   -1.1336   -1.5638   -1.1202 C   0  0  1  0  0  0  0  0  0  0  0  0
   -1.2983   -0.4177   -1.7931 O   0  0  0  0  0  0  0  0  0  0  0  0
   -1.5478    0.7493   -1.0727 C   0  0  1  0  0  0  0  0  0  0  0  0
   -2.0753    1.7193   -2.1391 C   0  0  0  0  0  0  0  0  0  0  0  0
   -2.5719    0.6296   -0.0088 C   0  0  2  0  0  0  0  0  0  0  0  0
   -2.1367    0.9335    1.2547 O   0  0  0  0  0  0  0  0  0  0  0  0
   -2.9590    1.9023    1.8605 C   0  0  0  0  0  0  0  0  0  0  0  0
   -0.2868    1.2897   -0.5419 N   0  0  0  0  0  0  0  0  0  0  0  0
   -0.0126    2.5730   -0.2723 C   0  0  0  0  0  0  0  0  0  0  0  0
   -0.7534    3.7169   -0.3309 C   0  0  0  0  0  0  0  0  0  0  0  0
   -0.2223    4.9432    0.0202 C   0  0  0  0  0  0  0  0  0  0  0  0
    1.0806    5.0835    0.4492 C   0  0  0  0  0  0  0  0  0  0  0  0
    1.8337    3.9227    0.5102 C   0  0  0  0  0  0  0  0  0  0  0  0
    1.2966    2.7077    0.1588 C   0  0  0  0  0  0  0  0  0  0  0  0
    1.8593    1.4486    0.1603 C   0  0  0  0  0  0  0  0  0  0  0  0
    3.1155    0.9588    0.4902 C   0  0  0  0  0  0  0  0  0  0  0  0
    3.3779   -0.4145    0.3862 C   0  0  0  0  0  0  0  0  0  0  0  0
    2.3582   -1.2306   -0.0451 C   0  0  0  0  0  0  0  0  0  0  0  0
    2.2561   -2.5960   -0.2400 C   0  0  0  0  0  0  0  0  0  0  0  0
    3.1397   -3.6280   -0.0924 C   0  0  0  0  0  0  0  0  0  0  0  0
    2.6986   -4.9284   -0.3831 C   0  0  0  0  0  0  0  0  0  0  0  0
    1.4097   -5.1589   -0.8060 C   0  0  0  0  0  0  0  0  0  0  0  0
    0.5119   -4.1146   -0.9566 C   0  0  0  0  0  0  0  0  0  0  0  0
    0.9477   -2.8534   -0.6722 C   0  0  0  0  0  0  0  0  0  0  0  0
    0.2819   -1.7122   -0.7404 N   0  0  0  0  0  0  0  0  0  0  0  0
    1.1025   -0.7140   -0.3717 C   0  0  0  0  0  0  0  0  0  0  0  0
    0.8565    0.6199   -0.2715 C   0  0  0  0  0  0  0  0  0  0  0  0
    4.7559   -0.6152    0.7920 C   0  0  0  0  0  0  0  0  0  0  0  0
    5.4153   -1.6576    0.8576 O   0  0  0  0  0  0  0  0  0  0  0  0
    5.3340    0.6479    1.1452 N   0  0  0  0  0  0  0  0  0  0  0  0
    4.3358    1.6521    0.9697 C   0  0  0  0  0  0  0  0  0  0  0  0
   -4.2535   -2.8335    0.2288 H   0  0  0  0  0  0  0  0  0  0  0  0
   -3.5702   -2.9978    1.8639 H   0  0  0  0  0  0  0  0  0  0  0  0
   -5.3002   -2.5653    1.6762 H   0  0  0  0  0  0  0  0  0  0  0  0
   -3.3487   -0.8410    2.1070 H   0  0  0  0  0  0  0  0  0  0  0  0
   -3.6864   -1.0600   -0.8619 H   0  0  0  0  0  0  0  0  0  0  0  0
   -1.3078   -1.3180    1.0364 H   0  0  0  0  0  0  0  0  0  0  0  0
   -2.1792   -2.7542    0.3580 H   0  0  0  0  0  0  0  0  0  0  0  0
   -1.4032   -2.4318   -1.7444 H   0  0  0  0  0  0  0  0  0  0  0  0
   -2.3547    1.1491   -3.0916 H   0  0  0  0  0  0  0  0  0  0  0  0
   -3.0239    2.1909   -1.8584 H   0  0  0  0  0  0  0  0  0  0  0  0
   -1.2821    2.4000   -2.5048 H   0  0  0  0  0  0  0  0  0  0  0  0
   -3.4892    1.2557   -0.2184 H   0  0  0  0  0  0  0  0  0  0  0  0
   -4.0171    1.5144    1.9325 H   0  0  0  0  0  0  0  0  0  0  0  0
   -3.0313    2.7936    1.2058 H   0  0  0  0  0  0  0  0  0  0  0  0
   -2.6383    2.1204    2.8860 H   0  0  0  0  0  0  0  0  0  0  0  0
   -1.7621    3.6788   -0.6342 H   0  0  0  0  0  0  0  0  0  0  0  0
   -0.8083    5.8705   -0.0233 H   0  0  0  0  0  0  0  0  0  0  0  0
    1.5089    6.0370    0.7267 H   0  0  0  0  0  0  0  0  0  0  0  0
    2.8588    4.0308    0.8476 H   0  0  0  0  0  0  0  0  0  0  0  0
    4.1457   -3.4925    0.2319 H   0  0  0  0  0  0  0  0  0  0  0  0
    3.4261   -5.7102   -0.2534 H   0  0  0  0  0  0  0  0  0  0  0  0
    1.0874   -6.1644   -1.0250 H   0  0  0  0  0  0  0  0  0  0  0  0
   -0.5054   -4.2769   -1.2880 H   0  0  0  0  0  0  0  0  0  0  0  0
    6.2983    0.8385    1.4732 H   0  0  0  0  0  0  0  0  0  0  0  0
    4.7228    2.3789    0.2036 H   0  0  0  0  0  0  0  0  0  0  0  0
    4.1765    2.1976    1.9203 H   0  0  0  0  0  0  0  0  0  0  0  0
  1  2  1  0
  2  3  1  0
  3  4  1  0
  4  5  1  0
  5  6  1  0
  6  7  1  0
  7  8  1  6
  7  9  1  0
  9 10  1  0
 10 11  1  0
  7 12  1  0
 12 13  1  0
 13 14  2  0
 14 15  1  0
 15 16  2  0
 16 17  1  0
 17 18  2  0
 18 19  1  0
 19 20  2  0
 20 21  1  0
 21 22  2  0
 22 23  1  0
 23 24  2  0
 24 25  1  0
 25 26  2  0
 26 27  1  0
 27 28  2  0
 28 29  1  0
 29 30  1  0
 30 31  2  0
 21 32  1  0
 32 33  2  0
 32 34  1  0
 34 35  1  0
  9  3  1  0
 31 12  1  0
 29  5  1  0
 18 13  1  0
 31 19  1  0
 35 20  1  0
 30 22  1  0
 28 23  1  0
  1 36  1  0
  1 37  1  0
  1 38  1  0
  2 39  1  0
  3 40  1  6
  4 41  1  0
  4 42  1  0
  5 43  1  6
  8 44  1  0
  8 45  1  0
  8 46  1  0
  9 47  1  6
 11 48  1  0
 11 49  1  0
 11 50  1  0
 14 51  1  0
 15 52  1  0
 16 53  1  0
 17 54  1  0
 24 55  1  0
 25 56  1  0
 26 57  1  0
 27 58  1  0
 34 59  1  0
 35 60  1  0
 35 61  1  0
M  END
$$$$
