@<TRIPOS>MOLECULE
*****
 61 68 0 0 0
SMALL
GASTEIGER

@<TRIPOS>ATOM
      1 C          -4.2836   -2.4108    1.2693 C.3     1  UNL1       -0.0155
      2 N          -3.9191   -0.9879    1.2484 N.3     1  UNL1       -0.3136
      3 C          -3.1221   -0.8043    0.0529 C.3     1  UNL1        0.0423
      4 C          -1.9079   -1.7005    0.1675 C.3     1  UNL1        0.0107
      5 C          -1.1336   -1.5638   -1.1202 C.3     1  UNL1        0.1402
      6 O          -1.2983   -0.4177   -1.7931 O.3     1  UNL1       -0.3282
      7 C          -1.5478    0.7493   -1.0727 C.3     1  UNL1        0.1741
      8 C          -2.0753    1.7193   -2.1391 C.3     1  UNL1       -0.0136
      9 C          -2.5719    0.6296   -0.0088 C.3     1  UNL1        0.1214
     10 O          -2.1367    0.9335    1.2547 O.3     1  UNL1       -0.3735
     11 C          -2.9590    1.9023    1.8605 C.3     1  UNL1        0.0371
     12 N          -0.2868    1.2897   -0.5419 N.ar    1  UNL1       -0.3070
     13 C          -0.0126    2.5730   -0.2723 C.ar    1  UNL1        0.0527
     14 C          -0.7534    3.7169   -0.3309 C.ar    1  UNL1       -0.0375
     15 C          -0.2223    4.9432    0.0202 C.ar    1  UNL1       -0.0598
     16 C           1.0806    5.0835    0.4492 C.ar    1  UNL1       -0.0611
     17 C           1.8337    3.9227    0.5102 C.ar    1  UNL1       -0.0520
     18 C           1.2966    2.7077    0.1588 C.ar    1  UNL1        0.0081
     19 C           1.8593    1.4486    0.1603 C.ar    1  UNL1        0.0151
     20 C           3.1155    0.9588    0.4902 C.ar    1  UNL1       -0.0078
     21 C           3.3779   -0.4145    0.3862 C.ar    1  UNL1        0.0518
     22 C           2.3582   -1.2306   -0.0451 C.ar    1  UNL1        0.0221
     23 C           2.2561   -2.5960   -0.2400 C.ar    1  UNL1        0.0085
     24 C           3.1397   -3.6280   -0.0924 C.ar    1  UNL1       -0.0520
     25 C           2.6986   -4.9284   -0.3831 C.ar    1  UNL1       -0.0611
     26 C           1.4097   -5.1589   -0.8060 C.ar    1  UNL1       -0.0598
     27 C           0.5119   -4.1146   -0.9566 C.ar    1  UNL1       -0.0375
     28 C           0.9477   -2.8534   -0.6722 C.ar    1  UNL1        0.0524
     29 N           0.2819   -1.7122   -0.7404 N.ar    1  UNL1       -0.3115
     30 C           1.1025   -0.7140   -0.3717 C.ar    1  UNL1        0.0774
     31 C           0.8565    0.6199   -0.2715 C.ar    1  UNL1        0.0772
     32 C           4.7559   -0.6152    0.7920 C.2     1  UNL1        0.2453
     33 O           5.4153   -1.6576    0.8576 O.2     1  UNL1       -0.2702
     34 N           5.3340    0.6479    1.1452 N.am    1  UNL1       -0.3072
     35 C           4.3358    1.6521    0.9697 C.3     1  UNL1        0.0385
     36 H          -4.2535   -2.8335    0.2288 H       1  UNL1        0.0388
     37 H          -3.5702   -2.9978    1.8639 H       1  UNL1        0.0388
     38 H          -5.3002   -2.5653    1.6762 H       1  UNL1        0.0388
     39 H          -3.3487   -0.8410    2.1070 H       1  UNL1        0.1220
     40 H          -3.6864   -1.0600   -0.8619 H       1  UNL1        0.0489
     41 H          -1.3078   -1.3180    1.0364 H       1  UNL1        0.0325
     42 H          -2.1792   -2.7542    0.3580 H       1  UNL1        0.0325
     43 H          -1.4032   -2.4318   -1.7444 H       1  UNL1        0.0839
     44 H          -2.3547    1.1491   -3.0916 H       1  UNL1        0.0277
     45 H          -3.0239    2.1909   -1.8584 H       1  UNL1        0.0277
     46 H          -1.2821    2.4000   -2.5048 H       1  UNL1        0.0277
     47 H          -3.4892    1.2557   -0.2184 H       1  UNL1        0.0660
     48 H          -4.0171    1.5144    1.9325 H       1  UNL1        0.0524
     49 H          -3.0313    2.7936    1.2058 H       1  UNL1        0.0524
     50 H          -2.6383    2.1204    2.8860 H       1  UNL1        0.0524
     51 H          -1.7621    3.6788   -0.6342 H       1  UNL1        0.0638
     52 H          -0.8083    5.8705   -0.0233 H       1  UNL1        0.0618
     53 H           1.5089    6.0370    0.7267 H       1  UNL1        0.0618
     54 H           2.8588    4.0308    0.8476 H       1  UNL1        0.0624
     55 H           4.1457   -3.4925    0.2319 H       1  UNL1        0.0624
     56 H           3.4261   -5.7102   -0.2534 H       1  UNL1        0.0618
     57 H           1.0874   -6.1644   -1.0250 H       1  UNL1        0.0618
     58 H          -0.5054   -4.2769   -1.2880 H       1  UNL1        0.0638
     59 H           6.2983    0.8385    1.4732 H       1  UNL1        0.1493
     60 H           4.7228    2.3789    0.2036 H       1  UNL1        0.0512
     61 H           4.1765    2.1976    1.9203 H       1  UNL1        0.0512
@<TRIPOS>BOND
     1     1     2    1
     2     2     3    1
     3     3     4    1
     4     4     5    1
     5     5     6    1
     6     6     7    1
     7     7     8    1
     8     7     9    1
     9     9    10    1
    10    10    11    1
    11     7    12    1
    12    12    13   ar
    13    13    14   ar
    14    14    15   ar
    15    15    16   ar
    16    16    17   ar
    17    17    18   ar
    18    18    19   ar
    19    19    20   ar
    20    20    21   ar
    21    21    22   ar
    22    22    23   ar
    23    23    24   ar
    24    24    25   ar
    25    25    26   ar
    26    26    27   ar
    27    27    28   ar
    28    28    29   ar
    29    29    30   ar
    30    30    31   ar
    31    21    32    1
    32    32    33    2
    33    32    34   am
    34    34    35    1
    35     9     3    1
    36    31    12   ar
    37    29     5    1
    38    18    13   ar
    39    31    19   ar
    40    35    20    1
    41    30    22   ar
    42    28    23   ar
    43     1    36    1
    44     1    37    1
    45     1    38    1
    46     2    39    1
    47     3    40    1
    48     4    41    1
    49     4    42    1
    50     5    43    1
    51     8    44    1
    52     8    45    1
    53     8    46    1
    54     9    47    1
    55    11    48    1
    56    11    49    1
    57    11    50    1
    58    14    51    1
    59    15    52    1
    60    16    53    1
    61    17    54    1
    62    24    55    1
    63    25    56    1
    64    26    57    1
    65    27    58    1
    66    34    59    1
    67    35    60    1
    68    35    61    1
