@<TRIPOS>MOLECULE
*****
 37 39 0 0 0
SMALL
GASTEIGER

@<TRIPOS>ATOM
      1 O          -5.7735    1.9244    0.8514 O.2     1  UNL1       -0.2451
      2 C          -4.7063    1.8043    0.2202 C.2     1  UNL1        0.3369
      3 O          -4.1595    2.9081   -0.3926 O.3     1  UNL1       -0.4771
      4 C          -4.0633    0.5099    0.1433 C.ar    1  UNL1        0.0607
      5 C          -4.6051   -0.6076    0.7563 C.ar    1  UNL1       -0.0477
      6 C          -4.0018   -1.8439    0.6896 C.ar    1  UNL1       -0.0591
      7 C          -2.8269   -1.9900   -0.0019 C.ar    1  UNL1       -0.0353
      8 C          -2.2508   -0.9194   -0.6246 C.ar    1  UNL1        0.1063
      9 S          -0.7351   -1.0689   -1.5263 S.O2    1  UNL1        0.0612
     10 O          -0.6959   -0.0416   -2.6231 O.2     1  UNL1       -0.1528
     11 O          -0.6237   -2.4453   -2.0718 O.2     1  UNL1       -0.1528
     12 N           0.5420   -0.7714   -0.4119 N.3     1  UNL1       -0.1720
     13 C           0.5051    0.5349    0.1562 C.3     1  UNL1        0.0248
     14 C           1.4359    0.4660    1.3779 C.3     1  UNL1       -0.0129
     15 C           2.7981    0.3611    0.8058 C.ar    1  UNL1       -0.0416
     16 C           3.8859    0.9478    1.3941 C.ar    1  UNL1       -0.0573
     17 C           5.1249    0.8137    0.8114 C.ar    1  UNL1       -0.0483
     18 C           5.3321    0.1083   -0.3522 C.ar    1  UNL1        0.0137
     19 I           7.2491   -0.0714   -1.2105 I       1  UNL1       -0.0438
     20 C           4.2343   -0.4811   -0.9417 C.ar    1  UNL1       -0.0439
     21 C           2.9598   -0.3528   -0.3575 C.ar    1  UNL1       -0.0275
     22 C           1.8176   -1.0066   -1.0332 C.3     1  UNL1        0.0458
     23 C          -2.8726    0.3068   -0.5439 C.ar    1  UNL1       -0.0214
     24 H          -4.4820    3.8575   -0.2625 H       1  UNL1        0.2954
     25 H          -5.5308   -0.4702    1.2956 H       1  UNL1        0.0626
     26 H          -4.4617   -2.7034    1.1878 H       1  UNL1        0.0618
     27 H          -2.3249   -2.9477   -0.0750 H       1  UNL1        0.0637
     28 H          -0.4948    0.8962    0.4290 H       1  UNL1        0.0447
     29 H           0.9394    1.2507   -0.5517 H       1  UNL1        0.0447
     30 H           1.1328   -0.4854    1.8999 H       1  UNL1        0.0326
     31 H           1.3050    1.3442    2.0308 H       1  UNL1        0.0326
     32 H           3.7155    1.5007    2.3086 H       1  UNL1        0.0621
     33 H           5.9762    1.2775    1.2792 H       1  UNL1        0.0628
     34 H           4.3674   -1.0446   -1.8615 H       1  UNL1        0.0631
     35 H           1.9519   -2.1242   -1.0563 H       1  UNL1        0.0493
     36 H           1.7871   -0.6188   -2.0908 H       1  UNL1        0.0493
     37 H          -2.4514    1.1822   -1.0221 H       1  UNL1        0.0645
@<TRIPOS>BOND
     1     1     2    2
     2     2     3    1
     3     2     4    1
     4     4     5   ar
     5     5     6   ar
     6     6     7   ar
     7     7     8   ar
     8     8     9    1
     9     9    10    2
    10     9    11    2
    11     9    12    1
    12    12    13    1
    13    13    14    1
    14    14    15    1
    15    15    16   ar
    16    16    17   ar
    17    17    18   ar
    18    18    19    1
    19    18    20   ar
    20    20    21   ar
    21    21    22    1
    22     8    23   ar
    23    23     4   ar
    24    22    12    1
    25    21    15   ar
    26     3    24    1
    27     5    25    1
    28     6    26    1
    29     7    27    1
    30    13    28    1
    31    13    29    1
    32    14    30    1
    33    14    31    1
    34    16    32    1
    35    17    33    1
    36    20    34    1
    37    22    35    1
    38    22    36    1
    39    23    37    1
