@<TRIPOS>MOLECULE
*****
 51 54 0 0 0
SMALL
GASTEIGER

@<TRIPOS>ATOM
      1 C           8.7966   -2.2502    0.1897 C.3     1  UNL1       -0.0063
      2 C           7.9625   -1.0292    0.2951 C.ar    1  UNL1        0.1045
      3 C           6.5856   -0.9845    0.2880 C.ar    1  UNL1        0.0010
      4 C           6.2496    0.3439    0.4073 C.ar    1  UNL1        0.0853
      5 N           4.9692    1.0026    0.4575 N.am    1  UNL1       -0.2646
      6 C           4.3391    1.4434   -0.7348 C.2     1  UNL1        0.3297
      7 O           4.5232    1.4675   -1.9805 O.2     1  UNL1       -0.2502
      8 N           3.0684    2.1034   -0.7499 N.am    1  UNL1       -0.1390
      9 C           2.0292    1.3817   -0.7084 C.ar    1  UNL1        0.1646
     10 N           0.7700    1.6794   -0.7081 N.ar    1  UNL1       -0.3418
     11 C          -0.1802    0.7379   -0.6582 C.ar    1  UNL1        0.0136
     12 C           0.2103   -0.5655   -0.6065 C.ar    1  UNL1        0.0104
     13 C          -0.5033   -1.8614   -0.5454 C.3     1  UNL1       -0.0044
     14 C          -1.9665   -1.5909   -0.5384 C.3     1  UNL1        0.0149
     15 N          -2.3407   -0.7993    0.5925 N.pl3   1  UNL1       -0.3286
     16 C          -3.6759   -0.3838    0.8626 C.ar    1  UNL1        0.1237
     17 N          -3.9988    0.3613    1.9355 N.ar    1  UNL1       -0.2208
     18 C          -5.2442    0.7741    2.2268 C.ar    1  UNL1        0.1201
     19 N          -6.2555    0.4170    1.3814 N.ar    1  UNL1       -0.2204
     20 C          -5.9515   -0.3299    0.3005 C.ar    1  UNL1        0.1301
     21 N          -7.0509   -0.6614   -0.5301 N.pl3   1  UNL1       -0.2672
     22 C          -8.3699   -0.2050   -0.1914 C.ar    1  UNL1        0.2394
     23 N          -9.5048   -0.4529   -0.9014 N.ar    1  UNL1       -0.1362
     24 N         -10.4852    0.1351   -0.2609 N.ar    1  UNL1       -0.2636
     25 C         -10.0127    0.7479    0.8312 C.ar    1  UNL1        0.1133
     26 N          -8.6804    0.5467    0.8953 N.ar    1  UNL1       -0.2022
     27 C          -4.6937   -0.7634   -0.0197 C.ar    1  UNL1        0.0183
     28 S           2.0619   -0.4219   -0.6317 S.2     1  UNL1       -0.0572
     29 C           7.4212    1.0364    0.4804 C.ar    1  UNL1        0.2288
     30 O           8.4399    0.1853    0.4105 O.2     1  UNL1       -0.4540
     31 C           7.5816    2.5270    0.6186 C.3     1  UNL1        0.4523
     32 F           6.9570    2.8898    1.7982 F       1  UNL1       -0.1631
     33 F           6.9199    3.1401   -0.4235 F       1  UNL1       -0.1631
     34 F           8.9037    2.8646    0.6404 F       1  UNL1       -0.1631
     35 H           9.4566   -2.3049    1.0975 H       1  UNL1        0.0308
     36 H           8.1782   -3.1587    0.1087 H       1  UNL1        0.0308
     37 H           9.5153   -2.1850   -0.6654 H       1  UNL1        0.0308
     38 H           5.8691   -1.7688    0.2102 H       1  UNL1        0.0670
     39 H           4.4384    1.1957    1.3107 H       1  UNL1        0.1565
     40 H           0.4896    2.7064   -0.7491 H       1  UNL1        0.1671
     41 H          -1.2485    0.8941   -0.6548 H       1  UNL1        0.0815
     42 H          -0.1812   -2.5571   -1.3375 H       1  UNL1        0.0334
     43 H          -0.2492   -2.3067    0.4448 H       1  UNL1        0.0334
     44 H          -2.4971   -2.5630   -0.5342 H       1  UNL1        0.0465
     45 H          -2.2386   -1.1252   -1.5130 H       1  UNL1        0.0465
     46 H          -1.5998   -0.4934    1.2811 H       1  UNL1        0.1475
     47 H          -5.3327    1.3672    3.1286 H       1  UNL1        0.1048
     48 H          -6.9208   -1.2304   -1.3823 H       1  UNL1        0.1565
     49 H         -11.4608    0.0984   -0.5955 H       1  UNL1        0.1900
     50 H         -10.6087    1.3059    1.5339 H       1  UNL1        0.1042
     51 H          -4.4848   -1.3604   -0.8935 H       1  UNL1        0.0686
@<TRIPOS>BOND
     1     1     2    1
     2     2     3   ar
     3     3     4   ar
     4     4     5    1
     5     5     6   am
     6     6     7    2
     7     6     8    1
     8     8     9    2
     9     9    10   ar
    10    10    11   ar
    11    11    12   ar
    12    12    13    1
    13    13    14    1
    14    14    15    1
    15    15    16    1
    16    16    17   ar
    17    17    18   ar
    18    18    19   ar
    19    19    20   ar
    20    20    21    1
    21    21    22    1
    22    22    23   ar
    23    23    24   ar
    24    24    25   ar
    25    25    26   ar
    26    20    27   ar
    27    12    28   ar
    28     4    29   ar
    29    29    30   ar
    30    29    31    1
    31    31    32    1
    32    31    33    1
    33    31    34    1
    34    30     2   ar
    35    28     9   ar
    36    27    16   ar
    37    26    22   ar
    38     1    35    1
    39     1    36    1
    40     1    37    1
    41     3    38    1
    42     5    39    1
    43    10    40    1
    44    11    41    1
    45    13    42    1
    46    13    43    1
    47    14    44    1
    48    14    45    1
    49    15    46    1
    50    18    47    1
    51    21    48    1
    52    24    49    1
    53    25    50    1
    54    27    51    1
