@<TRIPOS>MOLECULE
*****
 38 41 0 0 0
SMALL
GASTEIGER

@<TRIPOS>ATOM
      1 F           6.0035   -0.6628   -0.0181 F       1  UNL1       -0.2055
      2 C           4.6820   -0.9492   -0.1524 C.ar    1  UNL1        0.1234
      3 C           3.9260   -0.2179   -1.0541 C.ar    1  UNL1       -0.0258
      4 C           2.5772   -0.5045   -1.1966 C.ar    1  UNL1       -0.0498
      5 C           1.9415   -1.4948   -0.4759 C.ar    1  UNL1        0.0026
      6 C           0.5228   -1.8018   -0.6210 C.ar    1  UNL1        0.0967
      7 N           0.0164   -2.9857   -1.0563 N.ar    1  UNL1       -0.2351
      8 C          -1.3156   -2.9260   -1.0685 C.ar    1  UNL1        0.0972
      9 N          -1.6836   -1.6949   -0.6381 N.ar    1  UNL1       -0.3241
     10 C          -3.0408   -1.2347   -0.5081 C.3     1  UNL1        0.0852
     11 C          -3.6101   -1.5259    0.8696 C.3     1  UNL1        0.2569
     12 F          -4.9086   -1.0435    0.8803 F       1  UNL1       -0.2073
     13 F          -3.6201   -2.8828    1.1340 F       1  UNL1       -0.2073
     14 C          -0.5547   -0.9873   -0.3572 C.ar    1  UNL1        0.0780
     15 C          -0.4756    0.3745    0.1312 C.ar    1  UNL1        0.0173
     16 C           0.0621    0.7354    1.3486 C.ar    1  UNL1       -0.0477
     17 C           0.1054    2.0527    1.7522 C.ar    1  UNL1       -0.0181
     18 C          -0.4029    3.0252    0.9128 C.ar    1  UNL1        0.1397
     19 N          -0.4963    4.3853    1.0379 N.ar    1  UNL1       -0.2331
     20 C          -1.0742    4.9075   -0.0553 C.ar    1  UNL1        0.0828
     21 C          -1.3408    3.8105   -0.8760 C.ar    1  UNL1        0.2181
     22 F          -1.9217    3.8225   -2.0968 F       1  UNL1       -0.1836
     23 N          -0.9243    2.6750   -0.2678 N.ar    1  UNL1       -0.2758
     24 C          -0.9596    1.3957   -0.6455 C.ar    1  UNL1        0.0230
     25 C           2.7348   -2.2096    0.4219 C.ar    1  UNL1       -0.0498
     26 C           4.0792   -1.9473    0.5853 C.ar    1  UNL1       -0.0258
     27 H           4.3985    0.5763   -1.6434 H       1  UNL1        0.0646
     28 H           1.9953    0.0653   -1.8968 H       1  UNL1        0.0625
     29 H          -1.9452   -3.7417   -1.3756 H       1  UNL1        0.1029
     30 H          -3.6738   -1.8076   -1.2278 H       1  UNL1        0.0548
     31 H          -3.1874   -0.1740   -0.7362 H       1  UNL1        0.0548
     32 H          -3.0614   -0.9532    1.6584 H       1  UNL1        0.1037
     33 H           0.4600   -0.0141    2.0082 H       1  UNL1        0.0626
     34 H           0.5198    2.3741    2.7006 H       1  UNL1        0.0654
     35 H          -1.3080    5.9281   -0.3062 H       1  UNL1        0.0876
     36 H          -1.3870    1.1534   -1.6036 H       1  UNL1        0.0821
     37 H           2.2107   -2.9893    0.9824 H       1  UNL1        0.0625
     38 H           4.6566   -2.5328    1.2986 H       1  UNL1        0.0646
@<TRIPOS>BOND
     1     1     2    1
     2     2     3   ar
     3     3     4   ar
     4     4     5   ar
     5     5     6    1
     6     6     7   ar
     7     7     8   ar
     8     8     9   ar
     9     9    10    1
    10    10    11    1
    11    11    12    1
    12    11    13    1
    13     9    14   ar
    14    14    15    1
    15    15    16   ar
    16    16    17   ar
    17    17    18   ar
    18    18    19   ar
    19    19    20   ar
    20    20    21   ar
    21    21    22    1
    22    21    23   ar
    23    23    24   ar
    24     5    25   ar
    25    25    26   ar
    26    26     2   ar
    27    14     6   ar
    28    24    15   ar
    29    23    18   ar
    30     3    27    1
    31     4    28    1
    32     8    29    1
    33    10    30    1
    34    10    31    1
    35    11    32    1
    36    16    33    1
    37    17    34    1
    38    20    35    1
    39    24    36    1
    40    25    37    1
    41    26    38    1
