@<TRIPOS>MOLECULE
*****
 45 47 0 0 0
SMALL
GASTEIGER

@<TRIPOS>ATOM
      1 N           9.2787    1.8729   -0.5480 N.1     1  UNL1       -0.1908
      2 C           8.1698    1.5677   -0.4891 C.1     1  UNL1        0.1007
      3 C           6.7955    1.2086   -0.4022 C.ar    1  UNL1        0.0699
      4 C           6.1617    1.0863    0.8335 C.ar    1  UNL1       -0.0407
      5 C           4.8256    0.7361    0.8840 C.ar    1  UNL1       -0.0300
      6 C           4.1307    0.5109   -0.2806 C.ar    1  UNL1        0.1257
      7 C           2.6916    0.1343   -0.2041 C.2     1  UNL1        0.2666
      8 O           2.1338    0.0278    0.9057 O.2     1  UNL1       -0.2682
      9 N           1.9535   -0.1034   -1.3830 N.am    1  UNL1       -0.2802
     10 C           0.6018   -0.4628   -1.4656 C.ar    1  UNL1        0.0341
     11 C           0.0798   -0.6481   -2.7541 C.ar    1  UNL1       -0.0404
     12 C          -1.2366   -1.0017   -2.9301 C.ar    1  UNL1       -0.0597
     13 C          -2.1015   -1.1907   -1.8754 C.ar    1  UNL1       -0.0561
     14 C          -1.6122   -1.0146   -0.6037 C.ar    1  UNL1       -0.0156
     15 C          -2.4528   -1.1923    0.5804 C.3     1  UNL1        0.1232
     16 C          -2.3586   -2.6513    1.0179 C.3     1  UNL1        0.1196
     17 F          -2.7914   -3.5082    0.0245 F       1  UNL1       -0.2462
     18 C          -3.9140   -0.8770    0.3414 C.3     1  UNL1        0.0250
     19 C          -4.1299    0.6083    0.1440 C.3     1  UNL1        0.1998
     20 C          -5.4423    1.0585    0.7539 C.3     1  UNL1        0.4266
     21 F          -5.4060    0.7758    2.1178 F       1  UNL1       -0.1669
     22 F          -5.6082    2.4160    0.6442 F       1  UNL1       -0.1669
     23 F          -6.5040    0.4327    0.1478 F       1  UNL1       -0.1669
     24 O          -3.0538    1.3609    0.6740 O.2     1  UNL1       -0.4534
     25 C          -2.3179    0.8513    1.7380 C.2     1  UNL1        0.2766
     26 N          -1.9115    1.6946    2.8316 N.pl3   1  UNL1       -0.3134
     27 N          -2.0139   -0.4000    1.7090 N.2     1  UNL1       -0.2229
     28 C          -0.2701   -0.6543   -0.4288 C.ar    1  UNL1       -0.0349
     29 N           4.7715    0.6374   -1.4510 N.ar    1  UNL1       -0.2491
     30 C           6.0661    0.9753   -1.5391 C.ar    1  UNL1        0.0458
     31 H           6.7590    1.2751    1.7018 H       1  UNL1        0.0631
     32 H           4.3786    0.6540    1.8710 H       1  UNL1        0.0641
     33 H           2.5033    0.0081   -2.2981 H       1  UNL1        0.1552
     34 H           0.6943   -0.5190   -3.6445 H       1  UNL1        0.0636
     35 H          -1.5907   -1.1334   -3.9664 H       1  UNL1        0.0618
     36 H          -3.1298   -1.4694   -2.0796 H       1  UNL1        0.0621
     37 H          -2.9549   -2.8435    1.9313 H       1  UNL1        0.0643
     38 H          -1.3153   -2.9358    1.2491 H       1  UNL1        0.0643
     39 H          -4.4476   -1.1458    1.2818 H       1  UNL1        0.0331
     40 H          -4.3666   -1.4924   -0.4611 H       1  UNL1        0.0331
     41 H          -4.1717    0.8144   -0.9430 H       1  UNL1        0.0826
     42 H          -2.4920    1.9130    3.6494 H       1  UNL1        0.1466
     43 H          -0.9574    2.1013    2.7683 H       1  UNL1        0.1466
     44 H           0.0697   -0.5273    0.5828 H       1  UNL1        0.0640
     45 H           6.4857    1.0498   -2.5415 H       1  UNL1        0.0843
@<TRIPOS>BOND
     1     1     2    3
     2     2     3    1
     3     3     4   ar
     4     4     5   ar
     5     5     6   ar
     6     6     7    1
     7     7     8    2
     8     7     9   am
     9     9    10    1
    10    10    11   ar
    11    11    12   ar
    12    12    13   ar
    13    13    14   ar
    14    14    15    1
    15    15    16    1
    16    16    17    1
    17    15    18    1
    18    18    19    1
    19    19    20    1
    20    20    21    1
    21    20    22    1
    22    20    23    1
    23    19    24    1
    24    24    25    1
    25    25    26    1
    26    25    27    2
    27    14    28   ar
    28     6    29   ar
    29    29    30   ar
    30    30     3   ar
    31    28    10   ar
    32    27    15    1
    33     4    31    1
    34     5    32    1
    35     9    33    1
    36    11    34    1
    37    12    35    1
    38    13    36    1
    39    16    37    1
    40    16    38    1
    41    18    39    1
    42    18    40    1
    43    19    41    1
    44    26    42    1
    45    26    43    1
    46    28    44    1
    47    30    45    1
