
     RDKit          3D

 53 56  0  0  0  0  0  0  0  0999 V2000
    4.4886    2.5693    2.2242 C   0  0  0  0  0  0  0  0  0  0  0  0
    4.6057    1.5616    1.1889 N   0  0  0  0  0  0  0  0  0  0  0  0
    3.4683    1.2728    0.3911 C   0  0  0  0  0  0  0  0  0  0  0  0
    2.2687    1.9654    0.5846 C   0  0  0  0  0  0  0  0  0  0  0  0
    1.1495    1.7316   -0.1777 C   0  0  0  0  0  0  0  0  0  0  0  0
   -0.0464    2.4533    0.0479 N   0  0  0  0  0  0  0  0  0  0  0  0
   -1.0291    1.9772    0.9475 C   0  0  0  0  0  0  0  0  0  0  0  0
   -0.9247    2.3553    2.2769 C   0  0  0  0  0  0  0  0  0  0  0  0
   -1.8570    1.9057    3.1344 N   0  0  0  0  0  0  0  0  0  0  0  0
   -2.8702    1.1052    2.7096 C   0  0  0  0  0  0  0  0  0  0  0  0
   -3.8243    0.6624    3.6648 C   0  0  0  0  0  0  0  0  0  0  0  0
   -4.6124    0.2999    4.4258 N   0  0  0  0  0  0  0  0  0  0  0  0
   -2.9846    0.7219    1.3886 C   0  0  0  0  0  0  0  0  0  0  0  0
   -4.0441   -0.0936    1.0378 O   0  0  0  0  0  0  0  0  0  0  0  0
   -4.3024   -0.5702   -0.2593 C   0  0  2  0  0  0  0  0  0  0  0  0
   -5.6082    0.0683   -0.7006 C   0  0  0  0  0  0  0  0  0  0  0  0
   -6.5647   -1.0928   -0.5328 C   0  0  0  0  0  0  0  0  0  0  0  0
   -5.7673   -2.2129   -0.9473 N   0  0  0  0  0  0  0  0  0  0  0  0
   -6.4484   -3.4255   -0.5343 C   0  0  0  0  0  0  0  0  0  0  0  0
   -4.4886   -2.0476   -0.3300 C   0  0  0  0  0  0  0  0  0  0  0  0
   -2.0516    1.1719    0.5305 N   0  0  0  0  0  0  0  0  0  0  0  0
    1.2282    0.7995   -1.1401 N   0  0  0  0  0  0  0  0  0  0  0  0
    2.3464    0.0981   -1.3796 C   0  0  0  0  0  0  0  0  0  0  0  0
    3.4787    0.3389   -0.6032 C   0  0  0  0  0  0  0  0  0  0  0  0
    4.6942   -0.4486   -0.8563 C   0  0  0  0  0  0  0  0  0  0  0  0
    5.4197   -1.1343    0.0893 C   0  0  0  0  0  0  0  0  0  0  0  0
    6.4659   -1.7132   -0.5715 N   0  0  0  0  0  0  0  0  0  0  0  0
    6.4143   -1.4179   -1.8583 N   0  0  0  0  0  0  0  0  0  0  0  0
    7.3362   -1.8324   -2.9130 C   0  0  0  0  0  0  0  0  0  0  0  0
    5.3344   -0.6450   -2.0431 C   0  0  0  0  0  0  0  0  0  0  0  0
    3.6794    2.2820    2.9435 H   0  0  0  0  0  0  0  0  0  0  0  0
    5.4365    2.7575    2.7537 H   0  0  0  0  0  0  0  0  0  0  0  0
    4.1284    3.5021    1.7098 H   0  0  0  0  0  0  0  0  0  0  0  0
    5.5339    1.1119    1.0921 H   0  0  0  0  0  0  0  0  0  0  0  0
    2.2783    2.7075    1.3839 H   0  0  0  0  0  0  0  0  0  0  0  0
   -0.1940    3.3425   -0.4589 H   0  0  0  0  0  0  0  0  0  0  0  0
   -0.1025    2.9949    2.5773 H   0  0  0  0  0  0  0  0  0  0  0  0
   -3.5064   -0.1732   -0.9189 H   0  0  0  0  0  0  0  0  0  0  0  0
   -5.5868    0.3232   -1.7765 H   0  0  0  0  0  0  0  0  0  0  0  0
   -5.9108    0.8925   -0.0539 H   0  0  0  0  0  0  0  0  0  0  0  0
   -7.4723   -0.9237   -1.1086 H   0  0  0  0  0  0  0  0  0  0  0  0
   -6.8472   -1.2462    0.5283 H   0  0  0  0  0  0  0  0  0  0  0  0
   -7.5434   -3.2198   -0.6474 H   0  0  0  0  0  0  0  0  0  0  0  0
   -6.2548   -3.5639    0.5483 H   0  0  0  0  0  0  0  0  0  0  0  0
   -6.1595   -4.2756   -1.1544 H   0  0  0  0  0  0  0  0  0  0  0  0
   -4.4045   -2.5565    0.6559 H   0  0  0  0  0  0  0  0  0  0  0  0
   -3.7218   -2.4363   -1.0627 H   0  0  0  0  0  0  0  0  0  0  0  0
    2.4048   -0.6581   -2.1630 H   0  0  0  0  0  0  0  0  0  0  0  0
    5.2165   -1.2210    1.1618 H   0  0  0  0  0  0  0  0  0  0  0  0
    7.7071   -2.8410   -2.6032 H   0  0  0  0  0  0  0  0  0  0  0  0
    6.8467   -1.8457   -3.8938 H   0  0  0  0  0  0  0  0  0  0  0  0
    8.2097   -1.1579   -2.8698 H   0  0  0  0  0  0  0  0  0  0  0  0
    4.9880   -0.2199   -2.9798 H   0  0  0  0  0  0  0  0  0  0  0  0
  1  2  1  0
  2  3  1  0
  3  4  2  0
  4  5  1  0
  5  6  1  0
  6  7  1  0
  7  8  2  0
  8  9  1  0
  9 10  2  0
 10 11  1  0
 11 12  3  0
 10 13  1  0
 13 14  1  0
 14 15  1  0
 15 16  1  0
 16 17  1  0
 17 18  1  0
 18 19  1  0
 18 20  1  0
 13 21  2  0
  5 22  2  0
 22 23  1  0
 23 24  2  0
 24 25  1  0
 25 26  1  0
 26 27  2  0
 27 28  1  0
 28 29  1  0
 28 30  1  0
 24  3  1  0
 30 25  2  0
 21  7  1  0
 20 15  1  0
  1 31  1  0
  1 32  1  0
  1 33  1  0
  2 34  1  0
  4 35  1  0
  6 36  1  0
  8 37  1  0
 15 38  1  6
 16 39  1  0
 16 40  1  0
 17 41  1  0
 17 42  1  0
 19 43  1  0
 19 44  1  0
 19 45  1  0
 20 46  1  0
 20 47  1  0
 23 48  1  0
 26 49  1  0
 29 50  1  0
 29 51  1  0
 29 52  1  0
 30 53  1  0
M  END
$$$$
