@<TRIPOS>MOLECULE
*****
 53 56 0 0 0
SMALL
GASTEIGER

@<TRIPOS>ATOM
      1 C           4.4886    2.5693    2.2242 C.3     1  UNL1       -0.0024
      2 N           4.6057    1.5616    1.1889 N.pl3   1  UNL1       -0.3463
      3 C           3.4683    1.2728    0.3911 C.ar    1  UNL1        0.0395
      4 C           2.2687    1.9654    0.5846 C.ar    1  UNL1       -0.0001
      5 C           1.1495    1.7316   -0.1777 C.ar    1  UNL1        0.1257
      6 N          -0.0464    2.4533    0.0479 N.pl3   1  UNL1       -0.2830
      7 C          -1.0291    1.9772    0.9475 C.ar    1  UNL1        0.1461
      8 C          -0.9247    2.3553    2.2769 C.ar    1  UNL1        0.0693
      9 N          -1.8570    1.9057    3.1344 N.ar    1  UNL1       -0.2364
     10 C          -2.8702    1.1052    2.7096 C.ar    1  UNL1        0.2019
     11 C          -3.8243    0.6624    3.6648 C.1     1  UNL1        0.1246
     12 N          -4.6124    0.2999    4.4258 N.1     1  UNL1       -0.1891
     13 C          -2.9846    0.7219    1.3886 C.ar    1  UNL1        0.2539
     14 O          -4.0441   -0.0936    1.0378 O.3     1  UNL1       -0.4698
     15 C          -4.3024   -0.5702   -0.2593 C.3     1  UNL1        0.1157
     16 C          -5.6082    0.0683   -0.7006 C.3     1  UNL1       -0.0017
     17 C          -6.5647   -1.0928   -0.5328 C.3     1  UNL1        0.0021
     18 N          -5.7673   -2.2129   -0.9473 N.3     1  UNL1       -0.3017
     19 C          -6.4484   -3.4255   -0.5343 C.3     1  UNL1       -0.0126
     20 C          -4.4886   -2.0476   -0.3300 C.3     1  UNL1        0.0358
     21 N          -2.0516    1.1719    0.5305 N.ar    1  UNL1       -0.1938
     22 N           1.2282    0.7995   -1.1401 N.ar    1  UNL1       -0.2394
     23 C           2.3464    0.0981   -1.3796 C.ar    1  UNL1        0.0393
     24 C           3.4787    0.3389   -0.6032 C.ar    1  UNL1        0.0241
     25 C           4.6942   -0.4486   -0.8563 C.ar    1  UNL1        0.0228
     26 C           5.4197   -1.1343    0.0893 C.ar    1  UNL1        0.0572
     27 N           6.4659   -1.7132   -0.5715 N.ar    1  UNL1       -0.1793
     28 N           6.4143   -1.4179   -1.8583 N.ar    1  UNL1       -0.2739
     29 C           7.3362   -1.8324   -2.9130 C.3     1  UNL1        0.0302
     30 C           5.3344   -0.6450   -2.0431 C.ar    1  UNL1        0.0330
     31 H           3.6794    2.2820    2.9435 H       1  UNL1        0.0425
     32 H           5.4365    2.7575    2.7537 H       1  UNL1        0.0425
     33 H           4.1284    3.5021    1.7098 H       1  UNL1        0.0425
     34 H           5.5339    1.1119    1.0921 H       1  UNL1        0.1458
     35 H           2.2783    2.7075    1.3839 H       1  UNL1        0.0671
     36 H          -0.1940    3.3425   -0.4589 H       1  UNL1        0.1550
     37 H          -0.1025    2.9949    2.5773 H       1  UNL1        0.0865
     38 H          -3.5064   -0.1732   -0.9189 H       1  UNL1        0.0747
     39 H          -5.5868    0.3232   -1.7765 H       1  UNL1        0.0314
     40 H          -5.9108    0.8925   -0.0539 H       1  UNL1        0.0314
     41 H          -7.4723   -0.9237   -1.1086 H       1  UNL1        0.0428
     42 H          -6.8472   -1.2462    0.5283 H       1  UNL1        0.0428
     43 H          -7.5434   -3.2198   -0.6474 H       1  UNL1        0.0391
     44 H          -6.2548   -3.5639    0.5483 H       1  UNL1        0.0391
     45 H          -6.1595   -4.2756   -1.1544 H       1  UNL1        0.0391
     46 H          -4.4045   -2.5565    0.6559 H       1  UNL1        0.0463
     47 H          -3.7218   -2.4363   -1.0627 H       1  UNL1        0.0463
     48 H           2.4048   -0.6581   -2.1630 H       1  UNL1        0.0837
     49 H           5.2165   -1.2210    1.1618 H       1  UNL1        0.0854
     50 H           7.7071   -2.8410   -2.6032 H       1  UNL1        0.0473
     51 H           6.8467   -1.8457   -3.8938 H       1  UNL1        0.0473
     52 H           8.2097   -1.1579   -2.8698 H       1  UNL1        0.0473
     53 H           4.9880   -0.2199   -2.9798 H       1  UNL1        0.0832
@<TRIPOS>BOND
     1     1     2    1
     2     2     3    1
     3     3     4   ar
     4     4     5   ar
     5     5     6    1
     6     6     7    1
     7     7     8   ar
     8     8     9   ar
     9     9    10   ar
    10    10    11    1
    11    11    12    3
    12    10    13   ar
    13    13    14    1
    14    14    15    1
    15    15    16    1
    16    16    17    1
    17    17    18    1
    18    18    19    1
    19    18    20    1
    20    13    21   ar
    21     5    22   ar
    22    22    23   ar
    23    23    24   ar
    24    24    25    1
    25    25    26   ar
    26    26    27   ar
    27    27    28   ar
    28    28    29    1
    29    28    30   ar
    30    24     3   ar
    31    30    25   ar
    32    21     7   ar
    33    20    15    1
    34     1    31    1
    35     1    32    1
    36     1    33    1
    37     2    34    1
    38     4    35    1
    39     6    36    1
    40     8    37    1
    41    15    38    1
    42    16    39    1
    43    16    40    1
    44    17    41    1
    45    17    42    1
    46    19    43    1
    47    19    44    1
    48    19    45    1
    49    20    46    1
    50    20    47    1
    51    23    48    1
    52    26    49    1
    53    29    50    1
    54    29    51    1
    55    29    52    1
    56    30    53    1
