@<TRIPOS>MOLECULE
*****
 84 89 0 0 0
SMALL
GASTEIGER

@<TRIPOS>ATOM
      1 C           8.6083   -0.2333   -1.6745 C.3     1  UNL1       -0.0608
      2 C           9.3187   -0.5686   -0.3746 C.3     1  UNL1       -0.0230
      3 C          10.7888   -0.8790   -0.7077 C.3     1  UNL1       -0.0608
      4 C           8.6628   -1.7033    0.2846 C.3     1  UNL1        0.0848
      5 N           9.3477   -2.1063    1.5320 N.3     1  UNL1       -0.3197
      6 C           7.2726   -1.5669    0.6306 C.2     1  UNL1        0.2332
      7 O           6.7833   -2.7217    1.0942 O.2     1  UNL1       -0.2739
      8 N           6.3522   -0.5583    0.6032 N.am    1  UNL1       -0.2911
      9 C           6.3616    0.8183    0.2547 C.3     1  UNL1        0.0422
     10 C           5.5412    1.4486    1.4228 C.3     1  UNL1       -0.0311
     11 C           4.7148    0.3321    1.9778 C.3     1  UNL1       -0.0311
     12 C           4.9317   -0.7936    1.0103 C.3     1  UNL1        0.0422
     13 C           3.9972   -0.6641   -0.1578 C.3     1  UNL1        0.0337
     14 N           4.2369    0.5500   -0.9054 N.am    1  UNL1       -0.2940
     15 C           3.1688    1.1712   -1.5818 C.2     1  UNL1        0.2482
     16 O           3.3691    2.2357   -2.2441 O.2     1  UNL1       -0.2699
     17 C           1.8314    0.5761   -1.5112 C.ar    1  UNL1        0.0551
     18 C           1.5332   -0.6912   -1.9600 C.ar    1  UNL1       -0.0449
     19 C           0.2238   -1.1487   -1.8509 C.ar    1  UNL1       -0.0208
     20 C          -0.7962   -0.3908   -1.3128 C.ar    1  UNL1        0.1250
     21 N          -2.1291   -0.8701   -1.2141 N.pl3   1  UNL1       -0.2685
     22 C          -3.1169   -0.0005   -0.6593 C.ar    1  UNL1        0.2224
     23 N          -2.7983    1.2340   -0.2170 N.ar    1  UNL1       -0.2219
     24 C          -3.6760    2.1070    0.3029 C.ar    1  UNL1        0.0419
     25 C          -5.0110    1.7200    0.3969 C.ar    1  UNL1        0.0378
     26 C          -6.1556    2.3241    0.8527 C.ar    1  UNL1       -0.0209
     27 C          -7.1932    1.4340    0.6821 C.ar    1  UNL1        0.1070
     28 C          -8.5993    1.6757    1.0340 C.2     1  UNL1        0.2627
     29 O          -9.4912    1.2917    0.2408 O.2     1  UNL1       -0.2684
     30 N          -8.9577    2.3192    2.2241 N.am    1  UNL1       -0.3024
     31 C          -7.9738    2.7942    3.1993 C.3     1  UNL1        0.0032
     32 C         -10.3610    2.5436    2.5373 C.3     1  UNL1        0.0032
     33 N          -6.6857    0.3251    0.1397 N.ar    1  UNL1       -0.3180
     34 C          -7.4096   -0.8746   -0.2138 C.3     1  UNL1        0.0366
     35 C          -6.8868   -2.0767    0.5371 C.3     1  UNL1       -0.0320
     36 C          -7.4749   -3.2301   -0.2407 C.3     1  UNL1       -0.0511
     37 C          -7.7377   -2.7122   -1.6419 C.3     1  UNL1       -0.0511
     38 C          -7.2122   -1.2826   -1.6570 C.3     1  UNL1       -0.0320
     39 C          -5.3426    0.4599   -0.0525 C.ar    1  UNL1        0.1466
     40 N          -4.4068   -0.3617   -0.5626 N.ar    1  UNL1       -0.1962
     41 N          -0.4554    0.8414   -0.8878 N.ar    1  UNL1       -0.2394
     42 C           0.7974    1.3186   -0.9755 C.ar    1  UNL1        0.0418
     43 C           5.5551    1.1540   -0.9735 C.3     1  UNL1        0.0337
     44 H           9.2277   -0.6630   -2.5146 H       1  UNL1        0.0233
     45 H           7.6449   -0.7879   -1.7579 H       1  UNL1        0.0233
     46 H           8.4077    0.8258   -1.8180 H       1  UNL1        0.0233
     47 H           9.3794    0.3544    0.2348 H       1  UNL1        0.0315
     48 H          11.1614   -1.6427   -0.0139 H       1  UNL1        0.0233
     49 H          11.4176    0.0243   -0.5812 H       1  UNL1        0.0233
     50 H          10.8449   -1.1545   -1.7719 H       1  UNL1        0.0233
     51 H           8.7983   -2.6641   -0.3539 H       1  UNL1        0.0557
     52 H          10.1064   -2.7766    1.3667 H       1  UNL1        0.1189
     53 H           9.6104   -1.2757    2.0930 H       1  UNL1        0.1189
     54 H           7.3343    1.3291    0.2293 H       1  UNL1        0.0516
     55 H           4.8644    2.2353    1.0435 H       1  UNL1        0.0284
     56 H           6.2305    1.9227    2.1397 H       1  UNL1        0.0284
     57 H           3.6413    0.6051    2.0792 H       1  UNL1        0.0284
     58 H           5.0669   -0.0015    2.9793 H       1  UNL1        0.0284
     59 H           4.8091   -1.7822    1.4717 H       1  UNL1        0.0516
     60 H           2.9660   -0.7604    0.2249 H       1  UNL1        0.0483
     61 H           4.1447   -1.5212   -0.8748 H       1  UNL1        0.0483
     62 H           2.3178   -1.3010   -2.3851 H       1  UNL1        0.0627
     63 H          -0.0227   -2.1355   -2.1957 H       1  UNL1        0.0652
     64 H          -2.3353   -1.8290   -1.5470 H       1  UNL1        0.1564
     65 H          -3.3896    3.0904    0.6467 H       1  UNL1        0.0838
     66 H          -6.1725    3.3243    1.2615 H       1  UNL1        0.0647
     67 H          -7.0944    2.1250    3.1246 H       1  UNL1        0.0428
     68 H          -7.7167    3.8550    3.0065 H       1  UNL1        0.0428
     69 H          -8.3640    2.6932    4.2341 H       1  UNL1        0.0428
     70 H         -10.9321    2.4591    1.5880 H       1  UNL1        0.0428
     71 H         -10.7088    1.6970    3.1832 H       1  UNL1        0.0428
     72 H         -10.5171    3.5265    3.0343 H       1  UNL1        0.0428
     73 H          -8.4872   -0.8033    0.0228 H       1  UNL1        0.0528
     74 H          -5.7920   -2.1735    0.5025 H       1  UNL1        0.0285
     75 H          -7.2069   -2.0792    1.5987 H       1  UNL1        0.0285
     76 H          -8.4381   -3.5358    0.2422 H       1  UNL1        0.0266
     77 H          -6.7797   -4.0985   -0.2310 H       1  UNL1        0.0266
     78 H          -8.8396   -2.6225   -1.8023 H       1  UNL1        0.0266
     79 H          -7.2564   -3.3366   -2.4171 H       1  UNL1        0.0266
     80 H          -7.7944   -0.6401   -2.3521 H       1  UNL1        0.0285
     81 H          -6.1376   -1.2679   -1.9100 H       1  UNL1        0.0285
     82 H           1.0270    2.3124   -0.6206 H       1  UNL1        0.0838
     83 H           5.4246    2.2781   -0.9392 H       1  UNL1        0.0483
     84 H           6.0339    0.9543   -1.9256 H       1  UNL1        0.0483
@<TRIPOS>BOND
     1     1     2    1
     2     2     3    1
     3     2     4    1
     4     4     5    1
     5     4     6    1
     6     6     7    2
     7     6     8   am
     8     8     9    1
     9     9    10    1
    10    10    11    1
    11    11    12    1
    12    12    13    1
    13    13    14    1
    14    14    15   am
    15    15    16    2
    16    15    17    1
    17    17    18   ar
    18    18    19   ar
    19    19    20   ar
    20    20    21    1
    21    21    22    1
    22    22    23   ar
    23    23    24   ar
    24    24    25   ar
    25    25    26   ar
    26    26    27   ar
    27    27    28    1
    28    28    29    2
    29    28    30   am
    30    30    31    1
    31    30    32    1
    32    27    33   ar
    33    33    34    1
    34    34    35    1
    35    35    36    1
    36    36    37    1
    37    37    38    1
    38    33    39   ar
    39    39    40   ar
    40    20    41   ar
    41    41    42   ar
    42    14    43    1
    43    12     8    1
    44    42    17   ar
    45    43     9    1
    46    40    22   ar
    47    39    25   ar
    48    38    34    1
    49     1    44    1
    50     1    45    1
    51     1    46    1
    52     2    47    1
    53     3    48    1
    54     3    49    1
    55     3    50    1
    56     4    51    1
    57     5    52    1
    58     5    53    1
    59     9    54    1
    60    10    55    1
    61    10    56    1
    62    11    57    1
    63    11    58    1
    64    12    59    1
    65    13    60    1
    66    13    61    1
    67    18    62    1
    68    19    63    1
    69    21    64    1
    70    24    65    1
    71    26    66    1
    72    31    67    1
    73    31    68    1
    74    31    69    1
    75    32    70    1
    76    32    71    1
    77    32    72    1
    78    34    73    1
    79    35    74    1
    80    35    75    1
    81    36    76    1
    82    36    77    1
    83    37    78    1
    84    37    79    1
    85    38    80    1
    86    38    81    1
    87    42    82    1
    88    43    83    1
    89    43    84    1
