
     RDKit          3D

 84 89  0  0  0  0  0  0  0  0999 V2000
    8.6083   -0.2333   -1.6745 C   0  0  0  0  0  0  0  0  0  0  0  0
    9.3187   -0.5686   -0.3746 C   0  0  0  0  0  0  0  0  0  0  0  0
   10.7888   -0.8790   -0.7077 C   0  0  0  0  0  0  0  0  0  0  0  0
    8.6628   -1.7033    0.2846 C   0  0  1  0  0  0  0  0  0  0  0  0
    9.3477   -2.1063    1.5320 N   0  0  0  0  0  0  0  0  0  0  0  0
    7.2726   -1.5669    0.6306 C   0  0  0  0  0  0  0  0  0  0  0  0
    6.7833   -2.7217    1.0942 O   0  0  0  0  0  0  0  0  0  0  0  0
    6.3522   -0.5583    0.6032 N   0  0  0  0  0  0  0  0  0  0  0  0
    6.3616    0.8183    0.2547 C   0  0  0  0  0  0  0  0  0  0  0  0
    5.5412    1.4486    1.4228 C   0  0  0  0  0  0  0  0  0  0  0  0
    4.7148    0.3321    1.9778 C   0  0  0  0  0  0  0  0  0  0  0  0
    4.9317   -0.7936    1.0103 C   0  0  0  0  0  0  0  0  0  0  0  0
    3.9972   -0.6641   -0.1578 C   0  0  0  0  0  0  0  0  0  0  0  0
    4.2369    0.5500   -0.9054 N   0  0  0  0  0  0  0  0  0  0  0  0
    3.1688    1.1712   -1.5818 C   0  0  0  0  0  0  0  0  0  0  0  0
    3.3691    2.2357   -2.2441 O   0  0  0  0  0  0  0  0  0  0  0  0
    1.8314    0.5761   -1.5112 C   0  0  0  0  0  0  0  0  0  0  0  0
    1.5332   -0.6912   -1.9600 C   0  0  0  0  0  0  0  0  0  0  0  0
    0.2238   -1.1487   -1.8509 C   0  0  0  0  0  0  0  0  0  0  0  0
   -0.7962   -0.3908   -1.3128 C   0  0  0  0  0  0  0  0  0  0  0  0
   -2.1291   -0.8701   -1.2141 N   0  0  0  0  0  0  0  0  0  0  0  0
   -3.1169   -0.0005   -0.6593 C   0  0  0  0  0  0  0  0  0  0  0  0
   -2.7983    1.2340   -0.2170 N   0  0  0  0  0  0  0  0  0  0  0  0
   -3.6760    2.1070    0.3029 C   0  0  0  0  0  0  0  0  0  0  0  0
   -5.0110    1.7200    0.3969 C   0  0  0  0  0  0  0  0  0  0  0  0
   -6.1556    2.3241    0.8527 C   0  0  0  0  0  0  0  0  0  0  0  0
   -7.1932    1.4340    0.6821 C   0  0  0  0  0  0  0  0  0  0  0  0
   -8.5993    1.6757    1.0340 C   0  0  0  0  0  0  0  0  0  0  0  0
   -9.4912    1.2917    0.2408 O   0  0  0  0  0  0  0  0  0  0  0  0
   -8.9577    2.3192    2.2241 N   0  0  0  0  0  0  0  0  0  0  0  0
   -7.9738    2.7942    3.1993 C   0  0  0  0  0  0  0  0  0  0  0  0
  -10.3610    2.5436    2.5373 C   0  0  0  0  0  0  0  0  0  0  0  0
   -6.6857    0.3251    0.1397 N   0  0  0  0  0  0  0  0  0  0  0  0
   -7.4096   -0.8746   -0.2138 C   0  0  0  0  0  0  0  0  0  0  0  0
   -6.8868   -2.0767    0.5371 C   0  0  0  0  0  0  0  0  0  0  0  0
   -7.4749   -3.2301   -0.2407 C   0  0  0  0  0  0  0  0  0  0  0  0
   -7.7377   -2.7122   -1.6419 C   0  0  0  0  0  0  0  0  0  0  0  0
   -7.2122   -1.2826   -1.6570 C   0  0  0  0  0  0  0  0  0  0  0  0
   -5.3426    0.4599   -0.0525 C   0  0  0  0  0  0  0  0  0  0  0  0
   -4.4068   -0.3617   -0.5626 N   0  0  0  0  0  0  0  0  0  0  0  0
   -0.4554    0.8414   -0.8878 N   0  0  0  0  0  0  0  0  0  0  0  0
    0.7974    1.3186   -0.9755 C   0  0  0  0  0  0  0  0  0  0  0  0
    5.5551    1.1540   -0.9735 C   0  0  0  0  0  0  0  0  0  0  0  0
    9.2277   -0.6630   -2.5146 H   0  0  0  0  0  0  0  0  0  0  0  0
    7.6449   -0.7879   -1.7579 H   0  0  0  0  0  0  0  0  0  0  0  0
    8.4077    0.8258   -1.8180 H   0  0  0  0  0  0  0  0  0  0  0  0
    9.3794    0.3544    0.2348 H   0  0  0  0  0  0  0  0  0  0  0  0
   11.1614   -1.6427   -0.0139 H   0  0  0  0  0  0  0  0  0  0  0  0
   11.4176    0.0243   -0.5812 H   0  0  0  0  0  0  0  0  0  0  0  0
   10.8449   -1.1545   -1.7719 H   0  0  0  0  0  0  0  0  0  0  0  0
    8.7983   -2.6641   -0.3539 H   0  0  0  0  0  0  0  0  0  0  0  0
   10.1064   -2.7766    1.3667 H   0  0  0  0  0  0  0  0  0  0  0  0
    9.6104   -1.2757    2.0930 H   0  0  0  0  0  0  0  0  0  0  0  0
    7.3343    1.3291    0.2293 H   0  0  0  0  0  0  0  0  0  0  0  0
    4.8644    2.2353    1.0435 H   0  0  0  0  0  0  0  0  0  0  0  0
    6.2305    1.9227    2.1397 H   0  0  0  0  0  0  0  0  0  0  0  0
    3.6413    0.6051    2.0792 H   0  0  0  0  0  0  0  0  0  0  0  0
    5.0669   -0.0015    2.9793 H   0  0  0  0  0  0  0  0  0  0  0  0
    4.8091   -1.7822    1.4717 H   0  0  0  0  0  0  0  0  0  0  0  0
    2.9660   -0.7604    0.2249 H   0  0  0  0  0  0  0  0  0  0  0  0
    4.1447   -1.5212   -0.8748 H   0  0  0  0  0  0  0  0  0  0  0  0
    2.3178   -1.3010   -2.3851 H   0  0  0  0  0  0  0  0  0  0  0  0
   -0.0227   -2.1355   -2.1957 H   0  0  0  0  0  0  0  0  0  0  0  0
   -2.3353   -1.8290   -1.5470 H   0  0  0  0  0  0  0  0  0  0  0  0
   -3.3896    3.0904    0.6467 H   0  0  0  0  0  0  0  0  0  0  0  0
   -6.1725    3.3243    1.2615 H   0  0  0  0  0  0  0  0  0  0  0  0
   -7.0944    2.1250    3.1246 H   0  0  0  0  0  0  0  0  0  0  0  0
   -7.7167    3.8550    3.0065 H   0  0  0  0  0  0  0  0  0  0  0  0
   -8.3640    2.6932    4.2341 H   0  0  0  0  0  0  0  0  0  0  0  0
  -10.9321    2.4591    1.5880 H   0  0  0  0  0  0  0  0  0  0  0  0
  -10.7088    1.6970    3.1832 H   0  0  0  0  0  0  0  0  0  0  0  0
  -10.5171    3.5265    3.0343 H   0  0  0  0  0  0  0  0  0  0  0  0
   -8.4872   -0.8033    0.0228 H   0  0  0  0  0  0  0  0  0  0  0  0
   -5.7920   -2.1735    0.5025 H   0  0  0  0  0  0  0  0  0  0  0  0
   -7.2069   -2.0792    1.5987 H   0  0  0  0  0  0  0  0  0  0  0  0
   -8.4381   -3.5358    0.2422 H   0  0  0  0  0  0  0  0  0  0  0  0
   -6.7797   -4.0985   -0.2310 H   0  0  0  0  0  0  0  0  0  0  0  0
   -8.8396   -2.6225   -1.8023 H   0  0  0  0  0  0  0  0  0  0  0  0
   -7.2564   -3.3366   -2.4171 H   0  0  0  0  0  0  0  0  0  0  0  0
   -7.7944   -0.6401   -2.3521 H   0  0  0  0  0  0  0  0  0  0  0  0
   -6.1376   -1.2679   -1.9100 H   0  0  0  0  0  0  0  0  0  0  0  0
    1.0270    2.3124   -0.6206 H   0  0  0  0  0  0  0  0  0  0  0  0
    5.4246    2.2781   -0.9392 H   0  0  0  0  0  0  0  0  0  0  0  0
    6.0339    0.9543   -1.9256 H   0  0  0  0  0  0  0  0  0  0  0  0
  1  2  1  0
  2  3  1  0
  2  4  1  0
  4  5  1  0
  4  6  1  0
  6  7  2  0
  6  8  1  0
  8  9  1  0
  9 10  1  0
 10 11  1  0
 11 12  1  0
 12 13  1  0
 13 14  1  0
 14 15  1  0
 15 16  2  0
 15 17  1  0
 17 18  2  0
 18 19  1  0
 19 20  2  0
 20 21  1  0
 21 22  1  0
 22 23  2  0
 23 24  1  0
 24 25  2  0
 25 26  1  0
 26 27  2  0
 27 28  1  0
 28 29  2  0
 28 30  1  0
 30 31  1  0
 30 32  1  0
 27 33  1  0
 33 34  1  0
 34 35  1  0
 35 36  1  0
 36 37  1  0
 37 38  1  0
 33 39  1  0
 39 40  2  0
 20 41  1  0
 41 42  2  0
 14 43  1  0
 12  8  1  0
 42 17  1  0
 43  9  1  0
 40 22  1  0
 39 25  1  0
 38 34  1  0
  1 44  1  0
  1 45  1  0
  1 46  1  0
  2 47  1  0
  3 48  1  0
  3 49  1  0
  3 50  1  0
  4 51  1  6
  5 52  1  0
  5 53  1  0
  9 54  1  0
 10 55  1  0
 10 56  1  0
 11 57  1  0
 11 58  1  0
 12 59  1  0
 13 60  1  0
 13 61  1  0
 18 62  1  0
 19 63  1  0
 21 64  1  0
 24 65  1  0
 26 66  1  0
 31 67  1  0
 31 68  1  0
 31 69  1  0
 32 70  1  0
 32 71  1  0
 32 72  1  0
 34 73  1  0
 35 74  1  0
 35 75  1  0
 36 76  1  0
 36 77  1  0
 37 78  1  0
 37 79  1  0
 38 80  1  0
 38 81  1  0
 42 82  1  0
 43 83  1  0
 43 84  1  0
M  END
$$$$
