@<TRIPOS>MOLECULE
*****
 36 37 0 0 0
SMALL
GASTEIGER

@<TRIPOS>ATOM
      1 C           0.4490   -1.2423    0.5728 C.3     1  UNL1        0.0810
      2 N           1.6092   -2.1086    0.3503 N.am    1  UNL1       -0.3152
      3 C           1.9123   -2.8601   -0.8193 C.2     1  UNL1        0.1350
      4 S           3.2609   -3.7719   -0.8779 S.2     1  UNL1       -0.0185
      5 N           0.9767   -2.7509   -1.8860 N.am    1  UNL1       -0.3001
      6 C          -0.2013   -1.9252   -1.7730 C.2     1  UNL1        0.0185
      7 C          -1.1689   -1.8221   -2.8968 C.3     1  UNL1       -0.0259
      8 C          -0.4034   -1.2581   -0.6422 C.2     1  UNL1        0.0777
      9 C          -1.6059   -0.4382   -0.5741 C.2     1  UNL1        0.3387
     10 O          -2.4895   -0.2747   -1.4527 O.2     1  UNL1       -0.2452
     11 O          -1.9879    0.3237    0.5080 O.3     1  UNL1       -0.4616
     12 C          -3.1710    1.0967    0.5040 C.3     1  UNL1        0.0900
     13 C          -3.3576    1.8375    1.8116 C.3     1  UNL1       -0.0306
     14 C           1.0218    0.1016    0.8662 C.ar    1  UNL1       -0.0191
     15 C           0.6655    0.9809    1.8665 C.ar    1  UNL1       -0.0563
     16 C           1.3155    2.1916    1.9809 C.ar    1  UNL1       -0.0580
     17 C           2.3227    2.5811    1.1344 C.ar    1  UNL1       -0.0202
     18 C           2.7048    1.7261    0.1224 C.ar    1  UNL1        0.1172
     19 O           3.7168    2.0554   -0.7709 O.3     1  UNL1       -0.5068
     20 C           2.0486    0.4963    0.0016 C.ar    1  UNL1       -0.0149
     21 H          -0.0767   -1.6080    1.4516 H       1  UNL1        0.0601
     22 H           2.2702   -2.1599    1.1596 H       1  UNL1        0.1486
     23 H           1.1562   -3.2824   -2.7614 H       1  UNL1        0.1535
     24 H          -2.1666   -2.2453   -2.6641 H       1  UNL1        0.0290
     25 H          -0.7844   -2.4620   -3.7345 H       1  UNL1        0.0290
     26 H          -1.2157   -0.7986   -3.3387 H       1  UNL1        0.0290
     27 H          -3.0944    1.8305   -0.3286 H       1  UNL1        0.0695
     28 H          -4.0371    0.4119    0.3753 H       1  UNL1        0.0695
     29 H          -4.1856    1.4032    2.4088 H       1  UNL1        0.0262
     30 H          -2.4519    1.8251    2.4524 H       1  UNL1        0.0262
     31 H          -3.6618    2.9002    1.6396 H       1  UNL1        0.0262
     32 H          -0.1219    0.6326    2.4992 H       1  UNL1        0.0621
     33 H           0.9707    2.8270    2.8003 H       1  UNL1        0.0619
     34 H           2.7843    3.5268    1.2748 H       1  UNL1        0.0654
     35 H           4.6082    2.4007   -0.4467 H       1  UNL1        0.2921
     36 H           2.3882   -0.1408   -0.8132 H       1  UNL1        0.0657
@<TRIPOS>BOND
     1     1     2    1
     2     2     3    1
     3     3     4    2
     4     3     5    1
     5     5     6    1
     6     6     7    1
     7     6     8    2
     8     8     9    1
     9     9    10    2
    10     9    11    1
    11    11    12    1
    12    12    13    1
    13     1    14    1
    14    14    15   ar
    15    15    16   ar
    16    16    17   ar
    17    17    18   ar
    18    18    19    1
    19    18    20   ar
    20     8     1    1
    21    20    14   ar
    22     1    21    1
    23     2    22    1
    24     5    23    1
    25     7    24    1
    26     7    25    1
    27     7    26    1
    28    12    27    1
    29    12    28    1
    30    13    29    1
    31    13    30    1
    32    13    31    1
    33    15    32    1
    34    16    33    1
    35    17    34    1
    36    19    35    1
    37    20    36    1
