
     RDKit          3D

 36 37  0  0  0  0  0  0  0  0999 V2000
    0.4490   -1.2423    0.5728 C   0  0  2  0  0  0  0  0  0  0  0  0
    1.6092   -2.1086    0.3503 N   0  0  0  0  0  0  0  0  0  0  0  0
    1.9123   -2.8601   -0.8193 C   0  0  0  0  0  0  0  0  0  0  0  0
    3.2609   -3.7719   -0.8779 S   0  0  0  0  0  0  0  0  0  0  0  0
    0.9767   -2.7509   -1.8860 N   0  0  0  0  0  0  0  0  0  0  0  0
   -0.2013   -1.9252   -1.7730 C   0  0  0  0  0  0  0  0  0  0  0  0
   -1.1689   -1.8221   -2.8968 C   0  0  0  0  0  0  0  0  0  0  0  0
   -0.4034   -1.2581   -0.6422 C   0  0  0  0  0  0  0  0  0  0  0  0
   -1.6059   -0.4382   -0.5741 C   0  0  0  0  0  0  0  0  0  0  0  0
   -2.4895   -0.2747   -1.4527 O   0  0  0  0  0  0  0  0  0  0  0  0
   -1.9879    0.3237    0.5080 O   0  0  0  0  0  0  0  0  0  0  0  0
   -3.1710    1.0967    0.5040 C   0  0  0  0  0  0  0  0  0  0  0  0
   -3.3576    1.8375    1.8116 C   0  0  0  0  0  0  0  0  0  0  0  0
    1.0218    0.1016    0.8662 C   0  0  0  0  0  0  0  0  0  0  0  0
    0.6655    0.9809    1.8665 C   0  0  0  0  0  0  0  0  0  0  0  0
    1.3155    2.1916    1.9809 C   0  0  0  0  0  0  0  0  0  0  0  0
    2.3227    2.5811    1.1344 C   0  0  0  0  0  0  0  0  0  0  0  0
    2.7048    1.7261    0.1224 C   0  0  0  0  0  0  0  0  0  0  0  0
    3.7168    2.0554   -0.7709 O   0  0  0  0  0  0  0  0  0  0  0  0
    2.0486    0.4963    0.0016 C   0  0  0  0  0  0  0  0  0  0  0  0
   -0.0767   -1.6080    1.4516 H   0  0  0  0  0  0  0  0  0  0  0  0
    2.2702   -2.1599    1.1596 H   0  0  0  0  0  0  0  0  0  0  0  0
    1.1562   -3.2824   -2.7614 H   0  0  0  0  0  0  0  0  0  0  0  0
   -2.1666   -2.2453   -2.6641 H   0  0  0  0  0  0  0  0  0  0  0  0
   -0.7844   -2.4620   -3.7345 H   0  0  0  0  0  0  0  0  0  0  0  0
   -1.2157   -0.7986   -3.3387 H   0  0  0  0  0  0  0  0  0  0  0  0
   -3.0944    1.8305   -0.3286 H   0  0  0  0  0  0  0  0  0  0  0  0
   -4.0371    0.4119    0.3753 H   0  0  0  0  0  0  0  0  0  0  0  0
   -4.1856    1.4032    2.4088 H   0  0  0  0  0  0  0  0  0  0  0  0
   -2.4519    1.8251    2.4524 H   0  0  0  0  0  0  0  0  0  0  0  0
   -3.6618    2.9002    1.6396 H   0  0  0  0  0  0  0  0  0  0  0  0
   -0.1219    0.6326    2.4992 H   0  0  0  0  0  0  0  0  0  0  0  0
    0.9707    2.8270    2.8003 H   0  0  0  0  0  0  0  0  0  0  0  0
    2.7843    3.5268    1.2748 H   0  0  0  0  0  0  0  0  0  0  0  0
    4.6082    2.4007   -0.4467 H   0  0  0  0  0  0  0  0  0  0  0  0
    2.3882   -0.1408   -0.8132 H   0  0  0  0  0  0  0  0  0  0  0  0
  1  2  1  0
  2  3  1  0
  3  4  2  0
  3  5  1  0
  5  6  1  0
  6  7  1  0
  6  8  2  0
  8  9  1  0
  9 10  2  0
  9 11  1  0
 11 12  1  0
 12 13  1  0
  1 14  1  0
 14 15  2  0
 15 16  1  0
 16 17  2  0
 17 18  1  0
 18 19  1  0
 18 20  2  0
  8  1  1  0
 20 14  1  0
  1 21  1  1
  2 22  1  0
  5 23  1  0
  7 24  1  0
  7 25  1  0
  7 26  1  0
 12 27  1  0
 12 28  1  0
 13 29  1  0
 13 30  1  0
 13 31  1  0
 15 32  1  0
 16 33  1  0
 17 34  1  0
 19 35  1  0
 20 36  1  0
M  END
$$$$
