@<TRIPOS>MOLECULE
*****
 57 59 0 0 0
SMALL
GASTEIGER

@<TRIPOS>ATOM
      1 C           4.1420    1.3780   -2.1521 C.3     1  UNL1        0.0788
      2 O           3.5230    0.7368   -1.0546 O.3     1  UNL1       -0.4939
      3 C           4.3080    0.0679   -0.1348 C.ar    1  UNL1        0.1369
      4 C           5.6985    0.0298   -0.2941 C.ar    1  UNL1        0.0231
      5 C           6.5137   -0.6260    0.6012 C.ar    1  UNL1        0.1277
      6 O           7.8869   -0.6623    0.4404 O.3     1  UNL1       -0.4804
      7 C           8.6252   -0.0752   -0.5782 C.3     1  UNL1        0.1857
      8 C           8.5065    1.4026   -0.6517 C.2     1  UNL1        0.3427
      9 O           9.1091    2.0312   -1.5583 O.2     1  UNL1       -0.2472
     10 O           7.7560    2.1578    0.2373 O.3     1  UNL1       -0.4783
     11 C           5.9354   -1.2591    1.6793 C.ar    1  UNL1       -0.0075
     12 C           6.8101   -1.9809    2.6677 C.3     1  UNL1       -0.0362
     13 C           4.5686   -1.2181    1.8301 C.ar    1  UNL1       -0.0384
     14 C           3.7216   -0.5585    0.9344 C.ar    1  UNL1        0.0503
     15 S           1.9601   -0.5327    1.1719 S.3     1  UNL1       -0.1169
     16 C           1.1780    0.3874   -0.1467 C.3     1  UNL1        0.0235
     17 C          -0.3052    0.4459    0.0016 C.ar    1  UNL1       -0.0370
     18 C          -0.9668    1.4332    0.6747 C.ar    1  UNL1       -0.0543
     19 C          -2.3539    1.4097    0.7674 C.ar    1  UNL1       -0.0196
     20 C          -3.1066    0.4085    0.1953 C.ar    1  UNL1        0.1210
     21 O          -4.4911    0.3754    0.2817 O.3     1  UNL1       -0.4874
     22 C          -5.2441   -0.6646   -0.3149 C.3     1  UNL1        0.1146
     23 C          -6.6864   -0.5092   -0.1054 C.ar    1  UNL1       -0.0104
     24 C          -7.4682    0.1953   -1.0013 C.ar    1  UNL1       -0.0548
     25 C          -8.8274    0.3410   -0.8027 C.ar    1  UNL1       -0.0498
     26 C          -9.4624   -0.2070    0.2927 C.ar    1  UNL1        0.0548
     27 C         -10.9324   -0.0425    0.4961 C.3     1  UNL1        0.4174
     28 F         -11.6423   -1.1437    0.1182 F       1  UNL1       -0.1659
     29 F         -11.1844    0.1784    1.8470 F       1  UNL1       -0.1659
     30 F         -11.3102    1.1091   -0.1608 F       1  UNL1       -0.1659
     31 C          -8.6845   -0.9110    1.1890 C.ar    1  UNL1       -0.0498
     32 C          -7.3261   -1.0572    0.9915 C.ar    1  UNL1       -0.0548
     33 C          -2.4187   -0.5789   -0.4799 C.ar    1  UNL1       -0.0196
     34 C          -1.0347   -0.5664   -0.5793 C.ar    1  UNL1       -0.0543
     35 H           4.7443    2.2074   -1.7428 H       1  UNL1        0.0660
     36 H           3.3253    1.8575   -2.7612 H       1  UNL1        0.0660
     37 H           4.7278    0.6568   -2.7462 H       1  UNL1        0.0660
     38 H           6.0866    0.5421   -1.1659 H       1  UNL1        0.0691
     39 H           9.6900   -0.3375   -0.4573 H       1  UNL1        0.0815
     40 H           8.2320   -0.4729   -1.5488 H       1  UNL1        0.0815
     41 H           7.3049    2.9904   -0.1669 H       1  UNL1        0.2952
     42 H           7.7379   -1.3982    2.8686 H       1  UNL1        0.0279
     43 H           7.1478   -2.9677    2.2404 H       1  UNL1        0.0279
     44 H           6.2410   -2.1539    3.5840 H       1  UNL1        0.0279
     45 H           4.1098   -1.7039    2.6598 H       1  UNL1        0.0633
     46 H           1.5035    1.4557   -0.1784 H       1  UNL1        0.0428
     47 H           1.3773   -0.1276   -1.1088 H       1  UNL1        0.0428
     48 H          -0.3868    2.2442    1.1405 H       1  UNL1        0.0622
     49 H          -2.9017    2.1924    1.3028 H       1  UNL1        0.0654
     50 H          -5.0356   -0.6969   -1.4133 H       1  UNL1        0.0748
     51 H          -4.8496   -1.6183    0.0902 H       1  UNL1        0.0748
     52 H          -6.9796    0.6386   -1.8793 H       1  UNL1        0.0621
     53 H          -9.4400    0.8964   -1.5102 H       1  UNL1        0.0623
     54 H          -9.1748   -1.3447    2.0519 H       1  UNL1        0.0623
     55 H          -6.7004   -1.6134    1.6960 H       1  UNL1        0.0621
     56 H          -3.0028   -1.3717   -0.9338 H       1  UNL1        0.0654
     57 H          -0.5540   -1.3694   -1.1222 H       1  UNL1        0.0622
@<TRIPOS>BOND
     1     1     2    1
     2     2     3    1
     3     3     4   ar
     4     4     5   ar
     5     5     6    1
     6     6     7    1
     7     7     8    1
     8     8     9    2
     9     8    10    1
    10     5    11   ar
    11    11    12    1
    12    11    13   ar
    13    13    14   ar
    14    14    15    1
    15    15    16    1
    16    16    17    1
    17    17    18   ar
    18    18    19   ar
    19    19    20   ar
    20    20    21    1
    21    21    22    1
    22    22    23    1
    23    23    24   ar
    24    24    25   ar
    25    25    26   ar
    26    26    27    1
    27    27    28    1
    28    27    29    1
    29    27    30    1
    30    26    31   ar
    31    31    32   ar
    32    20    33   ar
    33    33    34   ar
    34    14     3   ar
    35    34    17   ar
    36    32    23   ar
    37     1    35    1
    38     1    36    1
    39     1    37    1
    40     4    38    1
    41     7    39    1
    42     7    40    1
    43    10    41    1
    44    12    42    1
    45    12    43    1
    46    12    44    1
    47    13    45    1
    48    16    46    1
    49    16    47    1
    50    18    48    1
    51    19    49    1
    52    22    50    1
    53    22    51    1
    54    24    52    1
    55    25    53    1
    56    31    54    1
    57    32    55    1
    58    33    56    1
    59    34    57    1
