
     RDKit          3D

 57 59  0  0  0  0  0  0  0  0999 V2000
    4.1420    1.3780   -2.1521 C   0  0  0  0  0  0  0  0  0  0  0  0
    3.5230    0.7368   -1.0546 O   0  0  0  0  0  0  0  0  0  0  0  0
    4.3080    0.0679   -0.1348 C   0  0  0  0  0  0  0  0  0  0  0  0
    5.6985    0.0298   -0.2941 C   0  0  0  0  0  0  0  0  0  0  0  0
    6.5137   -0.6260    0.6012 C   0  0  0  0  0  0  0  0  0  0  0  0
    7.8869   -0.6623    0.4404 O   0  0  0  0  0  0  0  0  0  0  0  0
    8.6252   -0.0752   -0.5782 C   0  0  0  0  0  0  0  0  0  0  0  0
    8.5065    1.4026   -0.6517 C   0  0  0  0  0  0  0  0  0  0  0  0
    9.1091    2.0312   -1.5583 O   0  0  0  0  0  0  0  0  0  0  0  0
    7.7560    2.1578    0.2373 O   0  0  0  0  0  0  0  0  0  0  0  0
    5.9354   -1.2591    1.6793 C   0  0  0  0  0  0  0  0  0  0  0  0
    6.8101   -1.9809    2.6677 C   0  0  0  0  0  0  0  0  0  0  0  0
    4.5686   -1.2181    1.8301 C   0  0  0  0  0  0  0  0  0  0  0  0
    3.7216   -0.5585    0.9344 C   0  0  0  0  0  0  0  0  0  0  0  0
    1.9601   -0.5327    1.1719 S   0  0  0  0  0  0  0  0  0  0  0  0
    1.1780    0.3874   -0.1467 C   0  0  0  0  0  0  0  0  0  0  0  0
   -0.3052    0.4459    0.0016 C   0  0  0  0  0  0  0  0  0  0  0  0
   -0.9668    1.4332    0.6747 C   0  0  0  0  0  0  0  0  0  0  0  0
   -2.3539    1.4097    0.7674 C   0  0  0  0  0  0  0  0  0  0  0  0
   -3.1066    0.4085    0.1953 C   0  0  0  0  0  0  0  0  0  0  0  0
   -4.4911    0.3754    0.2817 O   0  0  0  0  0  0  0  0  0  0  0  0
   -5.2441   -0.6646   -0.3149 C   0  0  0  0  0  0  0  0  0  0  0  0
   -6.6864   -0.5092   -0.1054 C   0  0  0  0  0  0  0  0  0  0  0  0
   -7.4682    0.1953   -1.0013 C   0  0  0  0  0  0  0  0  0  0  0  0
   -8.8274    0.3410   -0.8027 C   0  0  0  0  0  0  0  0  0  0  0  0
   -9.4624   -0.2070    0.2927 C   0  0  0  0  0  0  0  0  0  0  0  0
  -10.9324   -0.0425    0.4961 C   0  0  0  0  0  0  0  0  0  0  0  0
  -11.6423   -1.1437    0.1182 F   0  0  0  0  0  0  0  0  0  0  0  0
  -11.1844    0.1784    1.8470 F   0  0  0  0  0  0  0  0  0  0  0  0
  -11.3102    1.1091   -0.1608 F   0  0  0  0  0  0  0  0  0  0  0  0
   -8.6845   -0.9110    1.1890 C   0  0  0  0  0  0  0  0  0  0  0  0
   -7.3261   -1.0572    0.9915 C   0  0  0  0  0  0  0  0  0  0  0  0
   -2.4187   -0.5789   -0.4799 C   0  0  0  0  0  0  0  0  0  0  0  0
   -1.0347   -0.5664   -0.5793 C   0  0  0  0  0  0  0  0  0  0  0  0
    4.7443    2.2074   -1.7428 H   0  0  0  0  0  0  0  0  0  0  0  0
    3.3253    1.8575   -2.7612 H   0  0  0  0  0  0  0  0  0  0  0  0
    4.7278    0.6568   -2.7462 H   0  0  0  0  0  0  0  0  0  0  0  0
    6.0866    0.5421   -1.1659 H   0  0  0  0  0  0  0  0  0  0  0  0
    9.6900   -0.3375   -0.4573 H   0  0  0  0  0  0  0  0  0  0  0  0
    8.2320   -0.4729   -1.5488 H   0  0  0  0  0  0  0  0  0  0  0  0
    7.3049    2.9904   -0.1669 H   0  0  0  0  0  0  0  0  0  0  0  0
    7.7379   -1.3982    2.8686 H   0  0  0  0  0  0  0  0  0  0  0  0
    7.1478   -2.9677    2.2404 H   0  0  0  0  0  0  0  0  0  0  0  0
    6.2410   -2.1539    3.5840 H   0  0  0  0  0  0  0  0  0  0  0  0
    4.1098   -1.7039    2.6598 H   0  0  0  0  0  0  0  0  0  0  0  0
    1.5035    1.4557   -0.1784 H   0  0  0  0  0  0  0  0  0  0  0  0
    1.3773   -0.1276   -1.1088 H   0  0  0  0  0  0  0  0  0  0  0  0
   -0.3868    2.2442    1.1405 H   0  0  0  0  0  0  0  0  0  0  0  0
   -2.9017    2.1924    1.3028 H   0  0  0  0  0  0  0  0  0  0  0  0
   -5.0356   -0.6969   -1.4133 H   0  0  0  0  0  0  0  0  0  0  0  0
   -4.8496   -1.6183    0.0902 H   0  0  0  0  0  0  0  0  0  0  0  0
   -6.9796    0.6386   -1.8793 H   0  0  0  0  0  0  0  0  0  0  0  0
   -9.4400    0.8964   -1.5102 H   0  0  0  0  0  0  0  0  0  0  0  0
   -9.1748   -1.3447    2.0519 H   0  0  0  0  0  0  0  0  0  0  0  0
   -6.7004   -1.6134    1.6960 H   0  0  0  0  0  0  0  0  0  0  0  0
   -3.0028   -1.3717   -0.9338 H   0  0  0  0  0  0  0  0  0  0  0  0
   -0.5540   -1.3694   -1.1222 H   0  0  0  0  0  0  0  0  0  0  0  0
  1  2  1  0
  2  3  1  0
  3  4  2  0
  4  5  1  0
  5  6  1  0
  6  7  1  0
  7  8  1  0
  8  9  2  0
  8 10  1  0
  5 11  2  0
 11 12  1  0
 11 13  1  0
 13 14  2  0
 14 15  1  0
 15 16  1  0
 16 17  1  0
 17 18  2  0
 18 19  1  0
 19 20  2  0
 20 21  1  0
 21 22  1  0
 22 23  1  0
 23 24  2  0
 24 25  1  0
 25 26  2  0
 26 27  1  0
 27 28  1  0
 27 29  1  0
 27 30  1  0
 26 31  1  0
 31 32  2  0
 20 33  1  0
 33 34  2  0
 14  3  1  0
 34 17  1  0
 32 23  1  0
  1 35  1  0
  1 36  1  0
  1 37  1  0
  4 38  1  0
  7 39  1  0
  7 40  1  0
 10 41  1  0
 12 42  1  0
 12 43  1  0
 12 44  1  0
 13 45  1  0
 16 46  1  0
 16 47  1  0
 18 48  1  0
 19 49  1  0
 22 50  1  0
 22 51  1  0
 24 52  1  0
 25 53  1  0
 31 54  1  0
 32 55  1  0
 33 56  1  0
 34 57  1  0
M  END
$$$$
