
     RDKit          3D

 55 58  0  0  0  0  0  0  0  0999 V2000
    4.6621    0.1087   -1.5492 C   0  0  0  0  0  0  0  0  0  0  0  0
    3.6705   -0.6754   -0.7366 C   0  0  0  0  0  0  0  0  0  0  0  0
    2.4130   -0.8956   -1.3432 N   0  0  0  0  0  0  0  0  0  0  0  0
    1.5822    0.2425   -1.5295 C   0  0  0  0  0  0  0  0  0  0  0  0
    0.2483   -0.2996   -2.0735 C   0  0  0  0  0  0  0  0  0  0  0  0
   -0.4204   -1.0112   -0.9395 C   0  0  0  0  0  0  0  0  0  0  0  0
    0.6193   -1.7136   -0.0589 C   0  0  0  0  0  0  0  0  0  0  0  0
    1.7427   -2.1050   -1.0168 C   0  0  0  0  0  0  0  0  0  0  0  0
   -1.2641   -0.2300   -0.2046 O   0  0  0  0  0  0  0  0  0  0  0  0
   -2.5609   -0.6267   -0.0710 C   0  0  0  0  0  0  0  0  0  0  0  0
   -3.4693    0.4301   -0.5530 C   0  0  0  0  0  0  0  0  0  0  0  0
   -4.5601    0.8522    0.2030 C   0  0  0  0  0  0  0  0  0  0  0  0
   -5.4787    1.8200   -0.1403 C   0  0  0  0  0  0  0  0  0  0  0  0
   -5.3208    2.4429   -1.3452 C   0  0  0  0  0  0  0  0  0  0  0  0
   -4.2734    2.0922   -2.1588 C   0  0  0  0  0  0  0  0  0  0  0  0
   -3.3973    1.1156   -1.7455 C   0  0  0  0  0  0  0  0  0  0  0  0
   -2.9148   -0.8403    1.3911 C   0  0  0  0  0  0  0  0  0  0  0  0
   -2.4535    0.1802    2.2264 C   0  0  0  0  0  0  0  0  0  0  0  0
   -2.6649    0.1785    3.5730 C   0  0  0  0  0  0  0  0  0  0  0  0
   -3.3691   -0.8846    4.1342 C   0  0  0  0  0  0  0  0  0  0  0  0
   -3.8180   -1.8837    3.2990 C   0  0  0  0  0  0  0  0  0  0  0  0
   -3.6113   -1.8943    1.9363 C   0  0  0  0  0  0  0  0  0  0  0  0
    5.9809    0.2840   -0.7937 C   0  0  0  0  0  0  0  0  0  0  0  0
    5.7404    1.0169    0.4907 C   0  0  0  0  0  0  0  0  0  0  0  0
    5.4472    0.4572    1.6764 N   0  0  0  0  0  0  0  0  0  0  0  0
    5.3066    1.4086    2.5636 N   0  0  0  0  0  0  0  0  0  0  0  0
    5.4993    2.5928    1.9977 N   0  0  0  0  0  0  0  0  0  0  0  0
    5.7649    2.3529    0.7282 N   0  0  0  0  0  0  0  0  0  0  0  0
    4.9009   -0.3379   -2.5359 H   0  0  0  0  0  0  0  0  0  0  0  0
    4.3170    1.1488   -1.7563 H   0  0  0  0  0  0  0  0  0  0  0  0
    4.1353   -1.6941   -0.5905 H   0  0  0  0  0  0  0  0  0  0  0  0
    3.6397   -0.2147    0.2651 H   0  0  0  0  0  0  0  0  0  0  0  0
    2.0520    0.9565   -2.2065 H   0  0  0  0  0  0  0  0  0  0  0  0
    1.3921    0.7765   -0.5664 H   0  0  0  0  0  0  0  0  0  0  0  0
   -0.3120    0.4690   -2.5818 H   0  0  0  0  0  0  0  0  0  0  0  0
    0.5709   -1.0186   -2.8843 H   0  0  0  0  0  0  0  0  0  0  0  0
   -1.0107   -1.8554   -1.3565 H   0  0  0  0  0  0  0  0  0  0  0  0
    1.0580   -1.0555    0.6938 H   0  0  0  0  0  0  0  0  0  0  0  0
    0.1830   -2.6203    0.3392 H   0  0  0  0  0  0  0  0  0  0  0  0
    2.3583   -2.8332   -0.4564 H   0  0  0  0  0  0  0  0  0  0  0  0
    1.3449   -2.6479   -1.8975 H   0  0  0  0  0  0  0  0  0  0  0  0
   -2.8105   -1.5617   -0.6160 H   0  0  0  0  0  0  0  0  0  0  0  0
   -4.7363    0.3863    1.1800 H   0  0  0  0  0  0  0  0  0  0  0  0
   -6.2910    2.0819    0.5054 H   0  0  0  0  0  0  0  0  0  0  0  0
   -6.0098    3.1948   -1.6437 H   0  0  0  0  0  0  0  0  0  0  0  0
   -4.1422    2.5821   -3.1154 H   0  0  0  0  0  0  0  0  0  0  0  0
   -2.6092    0.8777   -2.4134 H   0  0  0  0  0  0  0  0  0  0  0  0
   -1.8958    1.0395    1.8447 H   0  0  0  0  0  0  0  0  0  0  0  0
   -2.3123    0.9609    4.2206 H   0  0  0  0  0  0  0  0  0  0  0  0
   -3.5913   -0.9832    5.1938 H   0  0  0  0  0  0  0  0  0  0  0  0
   -4.3756   -2.7384    3.6955 H   0  0  0  0  0  0  0  0  0  0  0  0
   -3.9282   -2.6349    1.2190 H   0  0  0  0  0  0  0  0  0  0  0  0
    6.3162   -0.7389   -0.5249 H   0  0  0  0  0  0  0  0  0  0  0  0
    6.6878    0.8550   -1.3989 H   0  0  0  0  0  0  0  0  0  0  0  0
    5.9681    3.0903   -0.0018 H   0  0  0  0  0  0  0  0  0  0  0  0
  1  2  1  0
  2  3  1  0
  3  4  1  0
  4  5  1  0
  5  6  1  0
  6  7  1  0
  7  8  1  0
  6  9  1  0
  9 10  1  0
 10 11  1  0
 11 12  2  0
 12 13  1  0
 13 14  2  0
 14 15  1  0
 15 16  2  0
 10 17  1  0
 17 18  2  0
 18 19  1  0
 19 20  2  0
 20 21  1  0
 21 22  2  0
  1 23  1  0
 23 24  1  0
 24 25  2  0
 25 26  1  0
 26 27  2  0
 27 28  1  0
  8  3  1  0
 16 11  1  0
 22 17  1  0
 28 24  1  0
  1 29  1  0
  1 30  1  0
  2 31  1  0
  2 32  1  0
  4 33  1  0
  4 34  1  0
  5 35  1  0
  5 36  1  0
  6 37  1  0
  7 38  1  0
  7 39  1  0
  8 40  1  0
  8 41  1  0
 10 42  1  0
 12 43  1  0
 13 44  1  0
 14 45  1  0
 15 46  1  0
 16 47  1  0
 18 48  1  0
 19 49  1  0
 20 50  1  0
 21 51  1  0
 22 52  1  0
 23 53  1  0
 23 54  1  0
 28 55  1  0
M  END
$$$$
