@<TRIPOS>MOLECULE
*****
 55 58 0 0 0
SMALL
GASTEIGER

@<TRIPOS>ATOM
      1 C           4.6621    0.1087   -1.5492 C.3     1  UNL1       -0.0333
      2 C           3.6705   -0.6754   -0.7366 C.3     1  UNL1       -0.0007
      3 N           2.4130   -0.8956   -1.3432 N.3     1  UNL1       -0.3021
      4 C           1.5822    0.2425   -1.5295 C.3     1  UNL1        0.0012
      5 C           0.2483   -0.2996   -2.0735 C.3     1  UNL1       -0.0137
      6 C          -0.4204   -1.0112   -0.9395 C.3     1  UNL1        0.0622
      7 C           0.6193   -1.7136   -0.0589 C.3     1  UNL1       -0.0137
      8 C           1.7427   -2.1050   -1.0168 C.3     1  UNL1        0.0012
      9 O          -1.2641   -0.2300   -0.2046 O.3     1  UNL1       -0.3640
     10 C          -2.5609   -0.6267   -0.0710 C.3     1  UNL1        0.1090
     11 C          -3.4693    0.4301   -0.5530 C.ar    1  UNL1       -0.0145
     12 C          -4.5601    0.8522    0.2030 C.ar    1  UNL1       -0.0558
     13 C          -5.4787    1.8200   -0.1403 C.ar    1  UNL1       -0.0614
     14 C          -5.3208    2.4429   -1.3452 C.ar    1  UNL1       -0.0617
     15 C          -4.2734    2.0922   -2.1588 C.ar    1  UNL1       -0.0614
     16 C          -3.3973    1.1156   -1.7455 C.ar    1  UNL1       -0.0558
     17 C          -2.9148   -0.8403    1.3911 C.ar    1  UNL1       -0.0145
     18 C          -2.4535    0.1802    2.2264 C.ar    1  UNL1       -0.0558
     19 C          -2.6649    0.1785    3.5730 C.ar    1  UNL1       -0.0614
     20 C          -3.3691   -0.8846    4.1342 C.ar    1  UNL1       -0.0617
     21 C          -3.8180   -1.8837    3.2990 C.ar    1  UNL1       -0.0614
     22 C          -3.6113   -1.8943    1.9363 C.ar    1  UNL1       -0.0558
     23 C           5.9809    0.2840   -0.7937 C.3     1  UNL1        0.0098
     24 C           5.7404    1.0169    0.4907 C.ar    1  UNL1        0.1486
     25 N           5.4472    0.4572    1.6764 N.ar    1  UNL1       -0.1136
     26 N           5.3066    1.4086    2.5636 N.ar    1  UNL1       -0.0232
     27 N           5.4993    2.5928    1.9977 N.ar    1  UNL1       -0.0466
     28 N           5.7649    2.3529    0.7282 N.ar    1  UNL1       -0.2427
     29 H           4.9009   -0.3379   -2.5359 H       1  UNL1        0.0282
     30 H           4.3170    1.1488   -1.7563 H       1  UNL1        0.0282
     31 H           4.1353   -1.6941   -0.5905 H       1  UNL1        0.0427
     32 H           3.6397   -0.2147    0.2651 H       1  UNL1        0.0427
     33 H           2.0520    0.9565   -2.2065 H       1  UNL1        0.0427
     34 H           1.3921    0.7765   -0.5664 H       1  UNL1        0.0427
     35 H          -0.3120    0.4690   -2.5818 H       1  UNL1        0.0302
     36 H           0.5709   -1.0186   -2.8843 H       1  UNL1        0.0302
     37 H          -1.0107   -1.8554   -1.3565 H       1  UNL1        0.0597
     38 H           1.0580   -1.0555    0.6938 H       1  UNL1        0.0302
     39 H           0.1830   -2.6203    0.3392 H       1  UNL1        0.0302
     40 H           2.3583   -2.8332   -0.4564 H       1  UNL1        0.0427
     41 H           1.3449   -2.6479   -1.8975 H       1  UNL1        0.0427
     42 H          -2.8105   -1.5617   -0.6160 H       1  UNL1        0.0697
     43 H          -4.7363    0.3863    1.1800 H       1  UNL1        0.0621
     44 H          -6.2910    2.0819    0.5054 H       1  UNL1        0.0618
     45 H          -6.0098    3.1948   -1.6437 H       1  UNL1        0.0618
     46 H          -4.1422    2.5821   -3.1154 H       1  UNL1        0.0618
     47 H          -2.6092    0.8777   -2.4134 H       1  UNL1        0.0621
     48 H          -1.8958    1.0395    1.8447 H       1  UNL1        0.0621
     49 H          -2.3123    0.9609    4.2206 H       1  UNL1        0.0618
     50 H          -3.5913   -0.9832    5.1938 H       1  UNL1        0.0618
     51 H          -4.3756   -2.7384    3.6955 H       1  UNL1        0.0618
     52 H          -3.9282   -2.6349    1.2190 H       1  UNL1        0.0621
     53 H           6.3162   -0.7389   -0.5249 H       1  UNL1        0.0345
     54 H           6.6878    0.8550   -1.3989 H       1  UNL1        0.0345
     55 H           5.9681    3.0903   -0.0018 H       1  UNL1        0.1920
@<TRIPOS>BOND
     1     1     2    1
     2     2     3    1
     3     3     4    1
     4     4     5    1
     5     5     6    1
     6     6     7    1
     7     7     8    1
     8     6     9    1
     9     9    10    1
    10    10    11    1
    11    11    12   ar
    12    12    13   ar
    13    13    14   ar
    14    14    15   ar
    15    15    16   ar
    16    10    17    1
    17    17    18   ar
    18    18    19   ar
    19    19    20   ar
    20    20    21   ar
    21    21    22   ar
    22     1    23    1
    23    23    24    1
    24    24    25   ar
    25    25    26   ar
    26    26    27   ar
    27    27    28   ar
    28     8     3    1
    29    16    11   ar
    30    22    17   ar
    31    28    24   ar
    32     1    29    1
    33     1    30    1
    34     2    31    1
    35     2    32    1
    36     4    33    1
    37     4    34    1
    38     5    35    1
    39     5    36    1
    40     6    37    1
    41     7    38    1
    42     7    39    1
    43     8    40    1
    44     8    41    1
    45    10    42    1
    46    12    43    1
    47    13    44    1
    48    14    45    1
    49    15    46    1
    50    16    47    1
    51    18    48    1
    52    19    49    1
    53    20    50    1
    54    21    51    1
    55    22    52    1
    56    23    53    1
    57    23    54    1
    58    28    55    1
