
     RDKit          3D

 38 41  0  0  0  0  0  0  0  0999 V2000
    4.4341   -1.7784   -0.8612 O   0  0  0  0  0  0  0  0  0  0  0  0
    3.0393   -1.2251   -0.7226 S   0  0  0  0  0  6  0  0  0  0  0  0
    2.7843   -0.1662   -1.7616 O   0  0  0  0  0  0  0  0  0  0  0  0
    1.9066   -2.4975   -0.8203 N   0  0  0  0  0  0  0  0  0  0  0  0
    0.5028   -2.3841   -0.7179 C   0  0  0  0  0  0  0  0  0  0  0  0
   -0.2041   -1.2047   -0.8079 C   0  0  0  0  0  0  0  0  0  0  0  0
   -1.5886   -1.1774   -0.7057 C   0  0  0  0  0  0  0  0  0  0  0  0
   -2.2626    0.1048   -0.8122 C   0  0  0  0  0  0  0  0  0  0  0  0
   -3.5394    0.1283   -1.3590 C   0  0  0  0  0  0  0  0  0  0  0  0
   -4.2285    1.3059   -1.4862 C   0  0  0  0  0  0  0  0  0  0  0  0
   -3.6313    2.4791   -1.0598 C   0  0  0  0  0  0  0  0  0  0  0  0
   -4.0163    3.7648   -1.0407 N   0  0  0  0  0  0  0  0  0  0  0  0
   -3.0086    4.4678   -0.5052 C   0  0  0  0  0  0  0  0  0  0  0  0
   -2.0303    3.6702   -0.1984 O   0  0  0  0  0  0  0  0  0  0  0  0
   -2.3639    2.4427   -0.5189 C   0  0  0  0  0  0  0  0  0  0  0  0
   -1.6464    1.2547   -0.3809 C   0  0  0  0  0  0  0  0  0  0  0  0
   -2.3100   -2.3311   -0.5100 C   0  0  0  0  0  0  0  0  0  0  0  0
   -1.6105   -3.4701   -0.4244 N   0  0  0  0  0  0  0  0  0  0  0  0
   -0.2704   -3.5198   -0.5204 C   0  0  0  0  0  0  0  0  0  0  0  0
    0.4828   -5.0925   -0.3861 Cl  0  0  0  0  0  0  0  0  0  0  0  0
    3.0172   -0.3932    0.8267 C   0  0  0  0  0  0  0  0  0  0  0  0
    2.2857    0.7529    1.0443 C   0  0  0  0  0  0  0  0  0  0  0  0
    2.2944    1.3734    2.2891 C   0  0  0  0  0  0  0  0  0  0  0  0
    3.0288    0.8661    3.3359 C   0  0  0  0  0  0  0  0  0  0  0  0
    3.0409    1.4721    4.5608 F   0  0  0  0  0  0  0  0  0  0  0  0
    3.7672   -0.2820    3.1328 C   0  0  0  0  0  0  0  0  0  0  0  0
    3.7540   -0.8849    1.9103 C   0  0  0  0  0  0  0  0  0  0  0  0
    2.2944   -3.4765   -0.9757 H   0  0  0  0  0  0  0  0  0  0  0  0
    0.3306   -0.2950   -0.9624 H   0  0  0  0  0  0  0  0  0  0  0  0
   -4.0156   -0.7878   -1.6964 H   0  0  0  0  0  0  0  0  0  0  0  0
   -5.2323    1.3754   -1.9088 H   0  0  0  0  0  0  0  0  0  0  0  0
   -3.0444    5.5345   -0.3671 H   0  0  0  0  0  0  0  0  0  0  0  0
   -0.6744    1.2692    0.0403 H   0  0  0  0  0  0  0  0  0  0  0  0
   -3.3917   -2.2853   -0.4330 H   0  0  0  0  0  0  0  0  0  0  0  0
    1.7028    1.1966    0.2782 H   0  0  0  0  0  0  0  0  0  0  0  0
    1.7271    2.2779    2.4889 H   0  0  0  0  0  0  0  0  0  0  0  0
    4.3522   -0.6989    3.9414 H   0  0  0  0  0  0  0  0  0  0  0  0
    4.3241   -1.7862    1.7244 H   0  0  0  0  0  0  0  0  0  0  0  0
  1  2  2  0
  2  3  2  0
  2  4  1  0
  4  5  1  0
  5  6  2  0
  6  7  1  0
  7  8  1  0
  8  9  2  0
  9 10  1  0
 10 11  2  0
 11 12  1  0
 12 13  2  0
 13 14  1  0
 14 15  1  0
 15 16  2  0
  7 17  2  0
 17 18  1  0
 18 19  2  0
 19 20  1  0
  2 21  1  0
 21 22  2  0
 22 23  1  0
 23 24  2  0
 24 25  1  0
 24 26  1  0
 26 27  2  0
 19  5  1  0
 27 21  1  0
 16  8  1  0
 15 11  1  0
  4 28  1  0
  6 29  1  0
  9 30  1  0
 10 31  1  0
 13 32  1  0
 16 33  1  0
 17 34  1  0
 22 35  1  0
 23 36  1  0
 26 37  1  0
 27 38  1  0
M  END
$$$$
