@<TRIPOS>MOLECULE
*****
 38 41 0 0 0
SMALL
GASTEIGER

@<TRIPOS>ATOM
      1 O           4.4341   -1.7784   -0.8612 O.2     1  UNL1       -0.1500
      2 S           3.0393   -1.2251   -0.7226 S.O2    1  UNL1        0.0724
      3 O           2.7843   -0.1662   -1.7616 O.2     1  UNL1       -0.1500
      4 N           1.9066   -2.4975   -0.8203 N.pl3   1  UNL1       -0.2133
      5 C           0.5028   -2.3841   -0.7179 C.ar    1  UNL1        0.0854
      6 C          -0.2041   -1.2047   -0.8079 C.ar    1  UNL1       -0.0272
      7 C          -1.5886   -1.1774   -0.7057 C.ar    1  UNL1        0.0022
      8 C          -2.2626    0.1048   -0.8122 C.ar    1  UNL1       -0.0128
      9 C          -3.5394    0.1283   -1.3590 C.ar    1  UNL1       -0.0517
     10 C          -4.2285    1.3059   -1.4862 C.ar    1  UNL1       -0.0320
     11 C          -3.6313    2.4791   -1.0598 C.ar    1  UNL1        0.1093
     12 N          -4.0163    3.7648   -1.0407 N.ar    1  UNL1       -0.2161
     13 C          -3.0086    4.4678   -0.5052 C.ar    1  UNL1        0.1831
     14 O          -2.0303    3.6702   -0.1984 O.2     1  UNL1       -0.4424
     15 C          -2.3639    2.4427   -0.5189 C.ar    1  UNL1        0.1556
     16 C          -1.6464    1.2547   -0.3809 C.ar    1  UNL1       -0.0094
     17 C          -2.3100   -2.3311   -0.5100 C.ar    1  UNL1        0.0371
     18 N          -1.6105   -3.4701   -0.4244 N.ar    1  UNL1       -0.2410
     19 C          -0.2704   -3.5198   -0.5204 C.ar    1  UNL1        0.1514
     20 CL          0.4828   -5.0925   -0.3861 Cl      1  UNL1       -0.0600
     21 C           3.0172   -0.3932    0.8267 C.ar    1  UNL1        0.1087
     22 C           2.2857    0.7529    1.0443 C.ar    1  UNL1       -0.0324
     23 C           2.2944    1.3734    2.2891 C.ar    1  UNL1       -0.0246
     24 C           3.0288    0.8661    3.3359 C.ar    1  UNL1        0.1235
     25 F           3.0409    1.4721    4.5608 F       1  UNL1       -0.2055
     26 C           3.7672   -0.2820    3.1328 C.ar    1  UNL1       -0.0246
     27 C           3.7540   -0.8849    1.9103 C.ar    1  UNL1       -0.0324
     28 H           2.2944   -3.4765   -0.9757 H       1  UNL1        0.1738
     29 H           0.3306   -0.2950   -0.9624 H       1  UNL1        0.0644
     30 H          -4.0156   -0.7878   -1.6964 H       1  UNL1        0.0624
     31 H          -5.2323    1.3754   -1.9088 H       1  UNL1        0.0640
     32 H          -3.0444    5.5345   -0.3671 H       1  UNL1        0.1255
     33 H          -0.6744    1.2692    0.0403 H       1  UNL1        0.0661
     34 H          -3.3917   -2.2853   -0.4330 H       1  UNL1        0.0836
     35 H           1.7028    1.1966    0.2782 H       1  UNL1        0.0638
     36 H           1.7271    2.2779    2.4889 H       1  UNL1        0.0647
     37 H           4.3522   -0.6989    3.9414 H       1  UNL1        0.0647
     38 H           4.3241   -1.7862    1.7244 H       1  UNL1        0.0638
@<TRIPOS>BOND
     1     1     2    2
     2     2     3    2
     3     2     4    1
     4     4     5    1
     5     5     6   ar
     6     6     7   ar
     7     7     8    1
     8     8     9   ar
     9     9    10   ar
    10    10    11   ar
    11    11    12   ar
    12    12    13   ar
    13    13    14   ar
    14    14    15   ar
    15    15    16   ar
    16     7    17   ar
    17    17    18   ar
    18    18    19   ar
    19    19    20    1
    20     2    21    1
    21    21    22   ar
    22    22    23   ar
    23    23    24   ar
    24    24    25    1
    25    24    26   ar
    26    26    27   ar
    27    19     5   ar
    28    27    21   ar
    29    16     8   ar
    30    15    11   ar
    31     4    28    1
    32     6    29    1
    33     9    30    1
    34    10    31    1
    35    13    32    1
    36    16    33    1
    37    17    34    1
    38    22    35    1
    39    23    36    1
    40    26    37    1
    41    27    38    1
