@<TRIPOS>MOLECULE
*****
 50 53 0 0 0
SMALL
GASTEIGER

@<TRIPOS>ATOM
      1 C           6.8447   -3.0448   -1.1697 C.3     1  UNL1       -0.0495
      2 C           7.6163   -1.8906   -0.5791 C.3     1  UNL1        0.0091
      3 N           6.8049   -0.6745   -0.5096 N.am    1  UNL1       -0.3116
      4 C           5.6058   -0.6388    0.2411 C.2     1  UNL1        0.2441
      5 O           5.2763   -1.6889    0.8373 O.2     1  UNL1       -0.2702
      6 C           4.7628    0.5712    0.3329 C.ar    1  UNL1        0.0384
      7 C           5.0746    1.7485   -0.2993 C.ar    1  UNL1       -0.0495
      8 C           4.3003    2.8837   -0.2238 C.ar    1  UNL1       -0.0593
      9 C           3.1445    2.8059    0.5414 C.ar    1  UNL1       -0.0404
     10 C           2.7834    1.6497    1.1971 C.ar    1  UNL1        0.0355
     11 N           1.5864    1.6604    1.9557 N.am    1  UNL1       -0.2692
     12 C           0.3461    1.3034    1.3615 C.2     1  UNL1        0.3081
     13 O           0.3688    0.9828    0.1458 O.2     1  UNL1       -0.2522
     14 N          -0.8841    1.3022    2.0955 N.am    1  UNL1       -0.2692
     15 C          -2.1109    0.9400    1.4743 C.ar    1  UNL1        0.0348
     16 C          -2.5630   -0.3616    1.4526 C.ar    1  UNL1       -0.0399
     17 C          -3.7697   -0.6793    0.8347 C.ar    1  UNL1       -0.0522
     18 C          -4.5579    0.2562    0.2279 C.ar    1  UNL1       -0.0156
     19 C          -5.8208   -0.0378   -0.4341 C.ar    1  UNL1        0.0105
     20 C          -6.9666    0.6952   -0.1815 C.ar    1  UNL1       -0.0338
     21 C          -8.1446    0.3755   -0.8234 C.ar    1  UNL1        0.0307
     22 N          -8.1920   -0.6532   -1.7027 N.ar    1  UNL1       -0.2344
     23 C          -7.0950   -1.3824   -1.9679 C.ar    1  UNL1        0.1783
     24 N          -6.9130   -2.4147   -2.7821 N.ar    1  UNL1       -0.2166
     25 C          -5.6263   -2.7878   -2.6915 C.ar    1  UNL1        0.0962
     26 N          -5.0136   -1.9571   -1.7969 N.ar    1  UNL1       -0.3426
     27 C          -5.9032   -1.0747   -1.3318 C.ar    1  UNL1        0.0929
     28 C          -4.0885    1.5746    0.2563 C.ar    1  UNL1       -0.0522
     29 C          -2.8954    1.8964    0.8662 C.ar    1  UNL1       -0.0399
     30 C           3.5963    0.5470    1.0851 C.ar    1  UNL1       -0.0283
     31 H           5.7488   -2.9088   -1.0994 H       1  UNL1        0.0245
     32 H           7.1918   -4.0049   -0.7238 H       1  UNL1        0.0245
     33 H           7.1142   -3.0791   -2.2561 H       1  UNL1        0.0245
     34 H           7.8927   -2.1057    0.4936 H       1  UNL1        0.0459
     35 H           8.5515   -1.6984   -1.0996 H       1  UNL1        0.0459
     36 H           7.1358    0.1516   -1.0245 H       1  UNL1        0.1490
     37 H           5.9699    1.7970   -0.8877 H       1  UNL1        0.0625
     38 H           4.5610    3.8041   -0.7288 H       1  UNL1        0.0618
     39 H           2.5132    3.6892    0.6184 H       1  UNL1        0.0636
     40 H           1.6324    1.9358    2.9607 H       1  UNL1        0.1564
     41 H          -0.8222    1.5817    3.1062 H       1  UNL1        0.1564
     42 H          -1.9525   -1.1211    1.9286 H       1  UNL1        0.0636
     43 H          -4.0991   -1.7202    0.8419 H       1  UNL1        0.0624
     44 H          -6.8807    1.4997    0.5215 H       1  UNL1        0.0639
     45 H          -9.0482    0.9383   -0.6369 H       1  UNL1        0.0830
     46 H          -5.1469   -3.5873   -3.2155 H       1  UNL1        0.1027
     47 H          -4.0135   -1.9882   -1.5120 H       1  UNL1        0.1669
     48 H          -4.6965    2.3410   -0.2194 H       1  UNL1        0.0624
     49 H          -2.5257    2.9199    0.8913 H       1  UNL1        0.0636
     50 H           3.3074   -0.3510    1.5998 H       1  UNL1        0.0644
@<TRIPOS>BOND
     1     1     2    1
     2     2     3    1
     3     3     4   am
     4     4     5    2
     5     4     6    1
     6     6     7   ar
     7     7     8   ar
     8     8     9   ar
     9     9    10   ar
    10    10    11    1
    11    11    12   am
    12    12    13    2
    13    12    14   am
    14    14    15    1
    15    15    16   ar
    16    16    17   ar
    17    17    18   ar
    18    18    19    1
    19    19    20   ar
    20    20    21   ar
    21    21    22   ar
    22    22    23   ar
    23    23    24   ar
    24    24    25   ar
    25    25    26   ar
    26    26    27   ar
    27    18    28   ar
    28    28    29   ar
    29    10    30   ar
    30    30     6   ar
    31    29    15   ar
    32    27    19   ar
    33    27    23   ar
    34     1    31    1
    35     1    32    1
    36     1    33    1
    37     2    34    1
    38     2    35    1
    39     3    36    1
    40     7    37    1
    41     8    38    1
    42     9    39    1
    43    11    40    1
    44    14    41    1
    45    16    42    1
    46    17    43    1
    47    20    44    1
    48    21    45    1
    49    25    46    1
    50    26    47    1
    51    28    48    1
    52    29    49    1
    53    30    50    1
