
     RDKit          3D

 50 53  0  0  0  0  0  0  0  0999 V2000
    6.8447   -3.0448   -1.1697 C   0  0  0  0  0  0  0  0  0  0  0  0
    7.6163   -1.8906   -0.5791 C   0  0  0  0  0  0  0  0  0  0  0  0
    6.8049   -0.6745   -0.5096 N   0  0  0  0  0  0  0  0  0  0  0  0
    5.6058   -0.6388    0.2411 C   0  0  0  0  0  0  0  0  0  0  0  0
    5.2763   -1.6889    0.8373 O   0  0  0  0  0  0  0  0  0  0  0  0
    4.7628    0.5712    0.3329 C   0  0  0  0  0  0  0  0  0  0  0  0
    5.0746    1.7485   -0.2993 C   0  0  0  0  0  0  0  0  0  0  0  0
    4.3003    2.8837   -0.2238 C   0  0  0  0  0  0  0  0  0  0  0  0
    3.1445    2.8059    0.5414 C   0  0  0  0  0  0  0  0  0  0  0  0
    2.7834    1.6497    1.1971 C   0  0  0  0  0  0  0  0  0  0  0  0
    1.5864    1.6604    1.9557 N   0  0  0  0  0  0  0  0  0  0  0  0
    0.3461    1.3034    1.3615 C   0  0  0  0  0  0  0  0  0  0  0  0
    0.3688    0.9828    0.1458 O   0  0  0  0  0  0  0  0  0  0  0  0
   -0.8841    1.3022    2.0955 N   0  0  0  0  0  0  0  0  0  0  0  0
   -2.1109    0.9400    1.4743 C   0  0  0  0  0  0  0  0  0  0  0  0
   -2.5630   -0.3616    1.4526 C   0  0  0  0  0  0  0  0  0  0  0  0
   -3.7697   -0.6793    0.8347 C   0  0  0  0  0  0  0  0  0  0  0  0
   -4.5579    0.2562    0.2279 C   0  0  0  0  0  0  0  0  0  0  0  0
   -5.8208   -0.0378   -0.4341 C   0  0  0  0  0  0  0  0  0  0  0  0
   -6.9666    0.6952   -0.1815 C   0  0  0  0  0  0  0  0  0  0  0  0
   -8.1446    0.3755   -0.8234 C   0  0  0  0  0  0  0  0  0  0  0  0
   -8.1920   -0.6532   -1.7027 N   0  0  0  0  0  0  0  0  0  0  0  0
   -7.0950   -1.3824   -1.9679 C   0  0  0  0  0  0  0  0  0  0  0  0
   -6.9130   -2.4147   -2.7821 N   0  0  0  0  0  0  0  0  0  0  0  0
   -5.6263   -2.7878   -2.6915 C   0  0  0  0  0  0  0  0  0  0  0  0
   -5.0136   -1.9571   -1.7969 N   0  0  0  0  0  0  0  0  0  0  0  0
   -5.9032   -1.0747   -1.3318 C   0  0  0  0  0  0  0  0  0  0  0  0
   -4.0885    1.5746    0.2563 C   0  0  0  0  0  0  0  0  0  0  0  0
   -2.8954    1.8964    0.8662 C   0  0  0  0  0  0  0  0  0  0  0  0
    3.5963    0.5470    1.0851 C   0  0  0  0  0  0  0  0  0  0  0  0
    5.7488   -2.9088   -1.0994 H   0  0  0  0  0  0  0  0  0  0  0  0
    7.1918   -4.0049   -0.7238 H   0  0  0  0  0  0  0  0  0  0  0  0
    7.1142   -3.0791   -2.2561 H   0  0  0  0  0  0  0  0  0  0  0  0
    7.8927   -2.1057    0.4936 H   0  0  0  0  0  0  0  0  0  0  0  0
    8.5515   -1.6984   -1.0996 H   0  0  0  0  0  0  0  0  0  0  0  0
    7.1358    0.1516   -1.0245 H   0  0  0  0  0  0  0  0  0  0  0  0
    5.9699    1.7970   -0.8877 H   0  0  0  0  0  0  0  0  0  0  0  0
    4.5610    3.8041   -0.7288 H   0  0  0  0  0  0  0  0  0  0  0  0
    2.5132    3.6892    0.6184 H   0  0  0  0  0  0  0  0  0  0  0  0
    1.6324    1.9358    2.9607 H   0  0  0  0  0  0  0  0  0  0  0  0
   -0.8222    1.5817    3.1062 H   0  0  0  0  0  0  0  0  0  0  0  0
   -1.9525   -1.1211    1.9286 H   0  0  0  0  0  0  0  0  0  0  0  0
   -4.0991   -1.7202    0.8419 H   0  0  0  0  0  0  0  0  0  0  0  0
   -6.8807    1.4997    0.5215 H   0  0  0  0  0  0  0  0  0  0  0  0
   -9.0482    0.9383   -0.6369 H   0  0  0  0  0  0  0  0  0  0  0  0
   -5.1469   -3.5873   -3.2155 H   0  0  0  0  0  0  0  0  0  0  0  0
   -4.0135   -1.9882   -1.5120 H   0  0  0  0  0  0  0  0  0  0  0  0
   -4.6965    2.3410   -0.2194 H   0  0  0  0  0  0  0  0  0  0  0  0
   -2.5257    2.9199    0.8913 H   0  0  0  0  0  0  0  0  0  0  0  0
    3.3074   -0.3510    1.5998 H   0  0  0  0  0  0  0  0  0  0  0  0
  1  2  1  0
  2  3  1  0
  3  4  1  0
  4  5  2  0
  4  6  1  0
  6  7  2  0
  7  8  1  0
  8  9  2  0
  9 10  1  0
 10 11  1  0
 11 12  1  0
 12 13  2  0
 12 14  1  0
 14 15  1  0
 15 16  2  0
 16 17  1  0
 17 18  2  0
 18 19  1  0
 19 20  2  0
 20 21  1  0
 21 22  2  0
 22 23  1  0
 23 24  1  0
 24 25  2  0
 25 26  1  0
 26 27  1  0
 18 28  1  0
 28 29  2  0
 10 30  2  0
 30  6  1  0
 29 15  1  0
 27 19  1  0
 27 23  2  0
  1 31  1  0
  1 32  1  0
  1 33  1  0
  2 34  1  0
  2 35  1  0
  3 36  1  0
  7 37  1  0
  8 38  1  0
  9 39  1  0
 11 40  1  0
 14 41  1  0
 16 42  1  0
 17 43  1  0
 20 44  1  0
 21 45  1  0
 25 46  1  0
 26 47  1  0
 28 48  1  0
 29 49  1  0
 30 50  1  0
M  END
$$$$
