
     RDKit          3D

 31 32  0  0  0  0  0  0  0  0999 V2000
   -3.2865   -0.4737   -1.6513 C   0  0  0  0  0  0  0  0  0  0  0  0
   -2.6611    0.0911   -0.4462 N   0  0  0  0  0  0  0  0  0  0  0  0
   -3.5857    0.3347    0.6706 C   0  0  0  0  0  0  0  0  0  0  0  0
   -1.3073    0.4478   -0.1646 C   0  0  0  0  0  0  0  0  0  0  0  0
   -0.2217   -0.3854   -0.1806 C   0  0  0  0  0  0  0  0  0  0  0  0
   -0.4642   -1.7044   -0.5022 C   0  0  0  0  0  0  0  0  0  0  0  0
    0.6307   -2.5526   -0.5200 C   0  0  0  0  0  0  0  0  0  0  0  0
    1.9199   -2.1003   -0.2276 C   0  0  0  0  0  0  0  0  0  0  0  0
    2.0731   -0.7634    0.0844 C   0  0  0  0  0  0  0  0  0  0  0  0
    1.0201    0.1298    0.1183 C   0  0  0  0  0  0  0  0  0  0  0  0
    1.1992    1.4469    0.4298 C   0  0  0  0  0  0  0  0  0  0  0  0
    0.0852    2.2916    0.4440 C   0  0  0  0  0  0  0  0  0  0  0  0
   -1.1742    1.7827    0.1438 C   0  0  0  0  0  0  0  0  0  0  0  0
    3.6590   -0.1418    0.4582 S   0  0  0  0  0  0  0  0  0  0  0  0
    4.1513    1.0991   -0.6150 N   0  0  0  0  0  0  0  0  0  0  0  0
    3.5943    0.4216    1.8458 O   0  0  0  0  0  0  0  0  0  0  0  0
    4.6764   -1.2477    0.4342 O   0  0  0  0  0  0  0  0  0  0  0  0
   -4.1519    0.1700   -1.9241 H   0  0  0  0  0  0  0  0  0  0  0  0
   -3.7063   -1.4816   -1.4491 H   0  0  0  0  0  0  0  0  0  0  0  0
   -2.5877   -0.4881   -2.4949 H   0  0  0  0  0  0  0  0  0  0  0  0
   -3.0880    0.3640    1.6425 H   0  0  0  0  0  0  0  0  0  0  0  0
   -4.4267   -0.3795    0.6377 H   0  0  0  0  0  0  0  0  0  0  0  0
   -4.0212    1.3503    0.4735 H   0  0  0  0  0  0  0  0  0  0  0  0
   -1.4628   -2.0490   -0.7274 H   0  0  0  0  0  0  0  0  0  0  0  0
    0.5106   -3.6130   -0.7672 H   0  0  0  0  0  0  0  0  0  0  0  0
    2.7973   -2.7251   -0.2300 H   0  0  0  0  0  0  0  0  0  0  0  0
    2.1701    1.8526    0.6641 H   0  0  0  0  0  0  0  0  0  0  0  0
    0.2714    3.3426    0.6992 H   0  0  0  0  0  0  0  0  0  0  0  0
   -1.9822    2.5089    0.1786 H   0  0  0  0  0  0  0  0  0  0  0  0
    4.5692    0.7509   -1.5048 H   0  0  0  0  0  0  0  0  0  0  0  0
    4.7997    1.7209   -0.0823 H   0  0  0  0  0  0  0  0  0  0  0  0
  1  2  1  0
  2  3  1  0
  2  4  1  0
  4  5  2  0
  5  6  1  0
  6  7  2  0
  7  8  1  0
  8  9  2  0
  9 10  1  0
 10 11  2  0
 11 12  1  0
 12 13  2  0
  9 14  1  0
 14 15  1  0
 14 16  2  0
 14 17  2  0
 13  4  1  0
 10  5  1  0
  1 18  1  0
  1 19  1  0
  1 20  1  0
  3 21  1  0
  3 22  1  0
  3 23  1  0
  6 24  1  0
  7 25  1  0
  8 26  1  0
 11 27  1  0
 12 28  1  0
 13 29  1  0
 15 30  1  0
 15 31  1  0
M  END
$$$$
