
     RDKit          3D

 59 62  0  0  0  0  0  0  0  0999 V2000
   -2.3534   -0.7501   -2.4479 C   0  0  0  0  0  0  0  0  0  0  0  0
   -1.9840   -0.7959   -1.2830 C   0  0  0  0  0  0  0  0  0  0  0  0
   -1.5315   -0.8297    0.1353 C   0  0  0  0  0  0  0  0  0  0  0  0
   -1.0110    0.4448    0.4874 N   0  0  0  0  0  0  0  0  0  0  0  0
   -2.0308    1.1555    1.2608 C   0  0  0  0  0  0  0  0  0  0  0  0
   -3.3842    1.2389    0.8279 C   0  0  0  0  0  0  0  0  0  0  0  0
   -3.9722    2.4434    0.4278 C   0  0  0  0  0  0  0  0  0  0  0  0
   -5.3070    2.5026    0.0458 C   0  0  0  0  0  0  0  0  0  0  0  0
   -6.0592    1.3843    0.0484 C   0  0  0  0  0  0  0  0  0  0  0  0
   -7.4144    1.3599   -0.3228 C   0  0  0  0  0  0  0  0  0  0  0  0
   -8.1266    0.1828   -0.3028 C   0  0  0  0  0  0  0  0  0  0  0  0
   -7.5070   -0.9793    0.0811 C   0  0  0  0  0  0  0  0  0  0  0  0
   -6.1916   -1.0071    0.4560 C   0  0  0  0  0  0  0  0  0  0  0  0
   -5.5841   -2.1731    0.8370 O   0  0  0  0  0  0  0  0  0  0  0  0
   -5.4863    0.1751    0.4351 C   0  0  0  0  0  0  0  0  0  0  0  0
   -4.1935    0.1769    0.7996 N   0  0  0  0  0  0  0  0  0  0  0  0
    0.1590    0.5108    1.2845 C   0  0  0  0  0  0  0  0  0  0  0  0
    1.4397   -0.0110    0.8278 C   0  0  0  0  0  0  0  0  0  0  0  0
    1.9287    0.5344   -0.4630 C   0  0  0  0  0  0  0  0  0  0  0  0
    3.0353   -0.2236   -1.0880 C   0  0  0  0  0  0  0  0  0  0  0  0
    3.3753   -1.4950   -0.5819 N   0  0  0  0  0  0  0  0  0  0  0  0
    4.5124   -1.5174    0.2831 C   0  0  0  0  0  0  0  0  0  0  0  0
    5.5606   -0.5350   -0.1397 C   0  0  0  0  0  0  0  0  0  0  0  0
    6.4262   -0.8697   -1.1221 C   0  0  0  0  0  0  0  0  0  0  0  0
    7.3623    0.0786   -1.5010 C   0  0  0  0  0  0  0  0  0  0  0  0
    7.4546    1.3243   -0.9395 C   0  0  0  0  0  0  0  0  0  0  0  0
    6.5459    1.6359    0.0763 C   0  0  0  0  0  0  0  0  0  0  0  0
    5.5850    0.7052    0.4879 C   0  0  0  0  0  0  0  0  0  0  0  0
    2.2365   -2.2332   -0.0298 C   0  0  0  0  0  0  0  0  0  0  0  0
    1.6905   -1.4389    1.1214 C   0  0  0  0  0  0  0  0  0  0  0  0
   -2.6709   -0.6961   -3.4738 H   0  0  0  0  0  0  0  0  0  0  0  0
   -2.3394   -1.1862    0.7845 H   0  0  0  0  0  0  0  0  0  0  0  0
   -0.7958   -1.6813    0.1211 H   0  0  0  0  0  0  0  0  0  0  0  0
   -1.9522    0.7043    2.3206 H   0  0  0  0  0  0  0  0  0  0  0  0
   -1.5388    2.1769    1.4038 H   0  0  0  0  0  0  0  0  0  0  0  0
   -3.3671    3.3240    0.4374 H   0  0  0  0  0  0  0  0  0  0  0  0
   -5.7843    3.4572   -0.2517 H   0  0  0  0  0  0  0  0  0  0  0  0
   -7.8919    2.3000   -0.6211 H   0  0  0  0  0  0  0  0  0  0  0  0
   -9.1939    0.2212   -0.6002 H   0  0  0  0  0  0  0  0  0  0  0  0
   -8.1246   -1.8767    0.0813 H   0  0  0  0  0  0  0  0  0  0  0  0
   -4.8397   -2.6248    0.3218 H   0  0  0  0  0  0  0  0  0  0  0  0
   -0.1118    0.0573    2.2833 H   0  0  0  0  0  0  0  0  0  0  0  0
    0.2216    1.6331    1.6005 H   0  0  0  0  0  0  0  0  0  0  0  0
    2.1877    0.5342    1.6025 H   0  0  0  0  0  0  0  0  0  0  0  0
    2.3053    1.5838   -0.2846 H   0  0  0  0  0  0  0  0  0  0  0  0
    1.0991    0.7042   -1.2075 H   0  0  0  0  0  0  0  0  0  0  0  0
    3.9516    0.4012   -1.2025 H   0  0  0  0  0  0  0  0  0  0  0  0
    2.7429   -0.4033   -2.1898 H   0  0  0  0  0  0  0  0  0  0  0  0
    4.9574   -2.5557    0.1749 H   0  0  0  0  0  0  0  0  0  0  0  0
    4.3427   -1.3700    1.3350 H   0  0  0  0  0  0  0  0  0  0  0  0
    6.4128   -1.8406   -1.6163 H   0  0  0  0  0  0  0  0  0  0  0  0
    8.0648   -0.1773   -2.2757 H   0  0  0  0  0  0  0  0  0  0  0  0
    8.1793    2.0508   -1.2291 H   0  0  0  0  0  0  0  0  0  0  0  0
    6.5519    2.5929    0.5665 H   0  0  0  0  0  0  0  0  0  0  0  0
    4.8653    0.9012    1.2480 H   0  0  0  0  0  0  0  0  0  0  0  0
    2.7104   -3.1624    0.4073 H   0  0  0  0  0  0  0  0  0  0  0  0
    1.5377   -2.5157   -0.7883 H   0  0  0  0  0  0  0  0  0  0  0  0
    2.4784   -1.5627    1.9678 H   0  0  0  0  0  0  0  0  0  0  0  0
    0.8266   -1.9841    1.5483 H   0  0  0  0  0  0  0  0  0  0  0  0
  1  2  3  0
  2  3  1  0
  3  4  1  0
  4  5  1  0
  5  6  1  0
  6  7  2  0
  7  8  1  0
  8  9  2  0
  9 10  1  0
 10 11  2  0
 11 12  1  0
 12 13  2  0
 13 14  1  0
 13 15  1  0
 15 16  2  0
  4 17  1  0
 17 18  1  0
 18 19  1  0
 19 20  1  0
 20 21  1  0
 21 22  1  0
 22 23  1  0
 23 24  2  0
 24 25  1  0
 25 26  2  0
 26 27  1  0
 27 28  2  0
 21 29  1  0
 29 30  1  0
 16  6  1  0
 30 18  1  0
 15  9  1  0
 28 23  1  0
  1 31  1  0
  3 32  1  0
  3 33  1  0
  5 34  1  0
  5 35  1  0
  7 36  1  0
  8 37  1  0
 10 38  1  0
 11 39  1  0
 12 40  1  0
 14 41  1  0
 17 42  1  0
 17 43  1  0
 18 44  1  0
 19 45  1  0
 19 46  1  0
 20 47  1  0
 20 48  1  0
 22 49  1  0
 22 50  1  0
 24 51  1  0
 25 52  1  0
 26 53  1  0
 27 54  1  0
 28 55  1  0
 29 56  1  0
 29 57  1  0
 30 58  1  0
 30 59  1  0
M  END
$$$$
