@<TRIPOS>MOLECULE
*****
 59 62 0 0 0
SMALL
GASTEIGER

@<TRIPOS>ATOM
      1 C          -2.3534   -0.7501   -2.4479 C.1     1  UNL1       -0.1179
      2 C          -1.9840   -0.7959   -1.2830 C.1     1  UNL1       -0.0900
      3 C          -1.5315   -0.8297    0.1353 C.3     1  UNL1        0.0610
      4 N          -1.0110    0.4448    0.4874 N.3     1  UNL1       -0.2856
      5 C          -2.0308    1.1555    1.2608 C.3     1  UNL1        0.0421
      6 C          -3.3842    1.2389    0.8279 C.ar    1  UNL1        0.0561
      7 C          -3.9722    2.4434    0.4278 C.ar    1  UNL1       -0.0385
      8 C          -5.3070    2.5026    0.0458 C.ar    1  UNL1       -0.0507
      9 C          -6.0592    1.3843    0.0484 C.ar    1  UNL1        0.0040
     10 C          -7.4144    1.3599   -0.3228 C.ar    1  UNL1       -0.0523
     11 C          -8.1266    0.1828   -0.3028 C.ar    1  UNL1       -0.0576
     12 C          -7.5070   -0.9793    0.0811 C.ar    1  UNL1       -0.0180
     13 C          -6.1916   -1.0071    0.4560 C.ar    1  UNL1        0.1427
     14 O          -5.5841   -2.1731    0.8370 O.3     1  UNL1       -0.5046
     15 C          -5.4863    0.1751    0.4351 C.ar    1  UNL1        0.1126
     16 N          -4.1935    0.1769    0.7996 N.ar    1  UNL1       -0.2466
     17 C           0.1590    0.5108    1.2845 C.3     1  UNL1        0.0031
     18 C           1.4397   -0.0110    0.8278 C.3     1  UNL1       -0.0259
     19 C           1.9287    0.5344   -0.4630 C.3     1  UNL1       -0.0361
     20 C           3.0353   -0.2236   -1.0880 C.3     1  UNL1       -0.0005
     21 N           3.3753   -1.4950   -0.5819 N.3     1  UNL1       -0.2981
     22 C           4.5124   -1.5174    0.2831 C.3     1  UNL1        0.0240
     23 C           5.5606   -0.5350   -0.1397 C.ar    1  UNL1       -0.0334
     24 C           6.4262   -0.8697   -1.1221 C.ar    1  UNL1       -0.0573
     25 C           7.3623    0.0786   -1.5010 C.ar    1  UNL1       -0.0615
     26 C           7.4546    1.3243   -0.9395 C.ar    1  UNL1       -0.0617
     27 C           6.5459    1.6359    0.0763 C.ar    1  UNL1       -0.0615
     28 C           5.5850    0.7052    0.4879 C.ar    1  UNL1       -0.0573
     29 C           2.2365   -2.2332   -0.0298 C.3     1  UNL1       -0.0005
     30 C           1.6905   -1.4389    1.1214 C.3     1  UNL1       -0.0361
     31 H          -2.6709   -0.6961   -3.4738 H       1  UNL1        0.1228
     32 H          -2.3394   -1.1862    0.7845 H       1  UNL1        0.0563
     33 H          -0.7958   -1.6813    0.1211 H       1  UNL1        0.0563
     34 H          -1.9522    0.7043    2.3206 H       1  UNL1        0.0491
     35 H          -1.5388    2.1769    1.4038 H       1  UNL1        0.0491
     36 H          -3.3671    3.3240    0.4374 H       1  UNL1        0.0636
     37 H          -5.7843    3.4572   -0.2517 H       1  UNL1        0.0625
     38 H          -7.8919    2.3000   -0.6211 H       1  UNL1        0.0624
     39 H          -9.1939    0.2212   -0.6002 H       1  UNL1        0.0619
     40 H          -8.1246   -1.8767    0.0813 H       1  UNL1        0.0655
     41 H          -4.8397   -2.6248    0.3218 H       1  UNL1        0.2922
     42 H          -0.1118    0.0573    2.2833 H       1  UNL1        0.0430
     43 H           0.2216    1.6331    1.6005 H       1  UNL1        0.0430
     44 H           2.1877    0.5342    1.6025 H       1  UNL1        0.0314
     45 H           2.3053    1.5838   -0.2846 H       1  UNL1        0.0281
     46 H           1.0991    0.7042   -1.2075 H       1  UNL1        0.0281
     47 H           3.9516    0.4012   -1.2025 H       1  UNL1        0.0427
     48 H           2.7429   -0.4033   -2.1898 H       1  UNL1        0.0427
     49 H           4.9574   -2.5557    0.1749 H       1  UNL1        0.0476
     50 H           4.3427   -1.3700    1.3350 H       1  UNL1        0.0476
     51 H           6.4128   -1.8406   -1.6163 H       1  UNL1        0.0621
     52 H           8.0648   -0.1773   -2.2757 H       1  UNL1        0.0618
     53 H           8.1793    2.0508   -1.2291 H       1  UNL1        0.0618
     54 H           6.5519    2.5929    0.5665 H       1  UNL1        0.0618
     55 H           4.8653    0.9012    1.2480 H       1  UNL1        0.0621
     56 H           2.7104   -3.1624    0.4073 H       1  UNL1        0.0427
     57 H           1.5377   -2.5157   -0.7883 H       1  UNL1        0.0427
     58 H           2.4784   -1.5627    1.9678 H       1  UNL1        0.0281
     59 H           0.8266   -1.9841    1.5483 H       1  UNL1        0.0281
@<TRIPOS>BOND
     1     1     2    3
     2     2     3    1
     3     3     4    1
     4     4     5    1
     5     5     6    1
     6     6     7   ar
     7     7     8   ar
     8     8     9   ar
     9     9    10   ar
    10    10    11   ar
    11    11    12   ar
    12    12    13   ar
    13    13    14    1
    14    13    15   ar
    15    15    16   ar
    16     4    17    1
    17    17    18    1
    18    18    19    1
    19    19    20    1
    20    20    21    1
    21    21    22    1
    22    22    23    1
    23    23    24   ar
    24    24    25   ar
    25    25    26   ar
    26    26    27   ar
    27    27    28   ar
    28    21    29    1
    29    29    30    1
    30    16     6   ar
    31    30    18    1
    32    15     9   ar
    33    28    23   ar
    34     1    31    1
    35     3    32    1
    36     3    33    1
    37     5    34    1
    38     5    35    1
    39     7    36    1
    40     8    37    1
    41    10    38    1
    42    11    39    1
    43    12    40    1
    44    14    41    1
    45    17    42    1
    46    17    43    1
    47    18    44    1
    48    19    45    1
    49    19    46    1
    50    20    47    1
    51    20    48    1
    52    22    49    1
    53    22    50    1
    54    24    51    1
    55    25    52    1
    56    26    53    1
    57    27    54    1
    58    28    55    1
    59    29    56    1
    60    29    57    1
    61    30    58    1
    62    30    59    1
