
     RDKit          3D

 47 50  0  0  0  0  0  0  0  0999 V2000
   -2.7180   -0.6429   -2.0641 C   0  0  0  0  0  0  0  0  0  0  0  0
   -1.9658   -0.7389   -0.7535 C   0  0  1  0  0  0  0  0  0  0  0  0
   -1.6512    0.5274   -0.2427 O   0  0  0  0  0  0  0  0  0  0  0  0
   -0.3898    0.9910    0.0283 C   0  0  0  0  0  0  0  0  0  0  0  0
    0.6653    0.1907   -0.2027 N   0  0  0  0  0  0  0  0  0  0  0  0
    1.9413    0.5790    0.0404 C   0  0  0  0  0  0  0  0  0  0  0  0
    3.0588   -0.3366   -0.2304 C   0  0  0  0  0  0  0  0  0  0  0  0
    4.3782   -0.0178   -0.0109 C   0  0  0  0  0  0  0  0  0  0  0  0
    5.3762   -0.9591   -0.3003 C   0  0  0  0  0  0  0  0  0  0  0  0
    5.0871   -2.2105   -0.8034 C   0  0  0  0  0  0  0  0  0  0  0  0
    6.1587   -3.2033   -1.1073 C   0  0  0  0  0  0  0  0  0  0  0  0
    5.7340   -4.4830   -0.7665 F   0  0  0  0  0  0  0  0  0  0  0  0
    7.2938   -2.9623   -0.3579 F   0  0  0  0  0  0  0  0  0  0  0  0
    6.5109   -3.2253   -2.4220 F   0  0  0  0  0  0  0  0  0  0  0  0
    3.7856   -2.4885   -1.0059 N   0  0  0  0  0  0  0  0  0  0  0  0
    2.8098   -1.6026   -0.7362 C   0  0  0  0  0  0  0  0  0  0  0  0
    2.1047    1.8486    0.5415 C   0  0  0  0  0  0  0  0  0  0  0  0
    1.0343    2.7040    0.7926 C   0  0  0  0  0  0  0  0  0  0  0  0
    0.9042    3.9499    1.2629 N   0  0  0  0  0  0  0  0  0  0  0  0
   -0.3620    4.3203    1.3129 N   0  0  0  0  0  0  0  0  0  0  0  0
   -0.9153    5.5956    1.7637 C   0  0  0  0  0  0  0  0  0  0  0  0
   -1.1062    3.2936    0.8629 C   0  0  0  0  0  0  0  0  0  0  0  0
   -0.2392    2.2542    0.5260 C   0  0  0  0  0  0  0  0  0  0  0  0
   -2.8612   -1.4321    0.2589 C   0  0  1  0  0  0  0  0  0  0  0  0
   -4.1133   -0.6348    0.4411 C   0  0  0  0  0  0  0  0  0  0  0  0
   -5.2012   -1.4577   -0.0624 N   0  0  0  0  0  0  0  0  0  0  0  0
   -4.6591   -2.5426   -0.7728 C   0  0  0  0  0  0  0  0  0  0  0  0
   -5.2653   -3.1539   -1.6903 O   0  0  0  0  0  0  0  0  0  0  0  0
   -3.3098   -2.7871   -0.2369 C   0  0  0  0  0  0  0  0  0  0  0  0
   -2.2139    0.0143   -2.7809 H   0  0  0  0  0  0  0  0  0  0  0  0
   -3.7937   -0.4110   -1.9166 H   0  0  0  0  0  0  0  0  0  0  0  0
   -2.7028   -1.6763   -2.5104 H   0  0  0  0  0  0  0  0  0  0  0  0
   -1.0733   -1.3698   -0.9310 H   0  0  0  0  0  0  0  0  0  0  0  0
    4.6265    0.9490    0.3796 H   0  0  0  0  0  0  0  0  0  0  0  0
    6.4148   -0.6996   -0.1243 H   0  0  0  0  0  0  0  0  0  0  0  0
    1.7572   -1.8459   -0.9070 H   0  0  0  0  0  0  0  0  0  0  0  0
    3.0991    2.2095    0.7533 H   0  0  0  0  0  0  0  0  0  0  0  0
   -0.9998    6.2639    0.8972 H   0  0  0  0  0  0  0  0  0  0  0  0
   -0.2513    6.0734    2.5189 H   0  0  0  0  0  0  0  0  0  0  0  0
   -1.8839    5.4183    2.2734 H   0  0  0  0  0  0  0  0  0  0  0  0
   -2.1914    3.2561    0.7689 H   0  0  0  0  0  0  0  0  0  0  0  0
   -2.2620   -1.5410    1.1818 H   0  0  0  0  0  0  0  0  0  0  0  0
   -4.1058    0.3471   -0.0463 H   0  0  0  0  0  0  0  0  0  0  0  0
   -4.2825   -0.5078    1.5462 H   0  0  0  0  0  0  0  0  0  0  0  0
   -6.2052   -1.1995    0.1273 H   0  0  0  0  0  0  0  0  0  0  0  0
   -3.4037   -3.4420    0.6518 H   0  0  0  0  0  0  0  0  0  0  0  0
   -2.6138   -3.2139   -0.9783 H   0  0  0  0  0  0  0  0  0  0  0  0
  1  2  1  0
  2  3  1  0
  3  4  1  0
  4  5  2  0
  5  6  1  0
  6  7  1  0
  7  8  2  0
  8  9  1  0
  9 10  2  0
 10 11  1  0
 11 12  1  0
 11 13  1  0
 11 14  1  0
 10 15  1  0
 15 16  2  0
  6 17  2  0
 17 18  1  0
 18 19  2  0
 19 20  1  0
 20 21  1  0
 20 22  1  0
 22 23  2  0
  2 24  1  0
 24 25  1  0
 25 26  1  0
 26 27  1  0
 27 28  2  0
 27 29  1  0
 23  4  1  0
 29 24  1  0
 16  7  1  0
 23 18  1  0
  1 30  1  0
  1 31  1  0
  1 32  1  0
  2 33  1  6
  8 34  1  0
  9 35  1  0
 16 36  1  0
 17 37  1  0
 21 38  1  0
 21 39  1  0
 21 40  1  0
 22 41  1  0
 24 42  1  1
 25 43  1  0
 25 44  1  0
 26 45  1  0
 29 46  1  0
 29 47  1  0
M  END
$$$$
