@<TRIPOS>MOLECULE
*****
 47 50 0 0 0
SMALL
GASTEIGER

@<TRIPOS>ATOM
      1 C          -2.7180   -0.6429   -2.0641 C.3     1  UNL1       -0.0274
      2 C          -1.9658   -0.7389   -0.7535 C.3     1  UNL1        0.1037
      3 O          -1.6512    0.5274   -0.2427 O.3     1  UNL1       -0.4725
      4 C          -0.3898    0.9910    0.0283 C.ar    1  UNL1        0.2265
      5 N           0.6653    0.1907   -0.2027 N.ar    1  UNL1       -0.2122
      6 C           1.9413    0.5790    0.0404 C.ar    1  UNL1        0.0783
      7 C           3.0588   -0.3366   -0.2304 C.ar    1  UNL1        0.0187
      8 C           4.3782   -0.0178   -0.0109 C.ar    1  UNL1       -0.0491
      9 C           5.3762   -0.9591   -0.3003 C.ar    1  UNL1       -0.0310
     10 C           5.0871   -2.2105   -0.8034 C.ar    1  UNL1        0.1436
     11 C           6.1587   -3.2033   -1.1073 C.3     1  UNL1        0.4342
     12 F           5.7340   -4.4830   -0.7665 F       1  UNL1       -0.1644
     13 F           7.2938   -2.9623   -0.3579 F       1  UNL1       -0.1644
     14 F           6.5109   -3.2253   -2.4220 F       1  UNL1       -0.1644
     15 N           3.7856   -2.4885   -1.0059 N.ar    1  UNL1       -0.2503
     16 C           2.8098   -1.6026   -0.7362 C.ar    1  UNL1        0.0374
     17 C           2.1047    1.8486    0.5415 C.ar    1  UNL1       -0.0077
     18 C           1.0343    2.7040    0.7926 C.ar    1  UNL1        0.0999
     19 N           0.9042    3.9499    1.2629 N.ar    1  UNL1       -0.1712
     20 N          -0.3620    4.3203    1.3129 N.ar    1  UNL1       -0.2732
     21 C          -0.9153    5.5956    1.7637 C.3     1  UNL1        0.0302
     22 C          -1.1062    3.2936    0.8629 C.ar    1  UNL1        0.0380
     23 C          -0.2392    2.2542    0.5260 C.ar    1  UNL1        0.0812
     24 C          -2.8612   -1.4321    0.2589 C.3     1  UNL1        0.0196
     25 C          -4.1133   -0.6348    0.4411 C.3     1  UNL1        0.0182
     26 N          -5.2012   -1.4577   -0.0624 N.am    1  UNL1       -0.3149
     27 C          -4.6591   -2.5426   -0.7728 C.2     1  UNL1        0.2135
     28 O          -5.2653   -3.1539   -1.6903 O.2     1  UNL1       -0.2758
     29 C          -3.3098   -2.7871   -0.2369 C.3     1  UNL1        0.0315
     30 H          -2.2139    0.0143   -2.7809 H       1  UNL1        0.0265
     31 H          -3.7937   -0.4110   -1.9166 H       1  UNL1        0.0265
     32 H          -2.7028   -1.6763   -2.5104 H       1  UNL1        0.0265
     33 H          -1.0733   -1.3698   -0.9310 H       1  UNL1        0.0734
     34 H           4.6265    0.9490    0.3796 H       1  UNL1        0.0625
     35 H           6.4148   -0.6996   -0.1243 H       1  UNL1        0.0638
     36 H           1.7572   -1.8459   -0.9070 H       1  UNL1        0.0836
     37 H           3.0991    2.2095    0.7533 H       1  UNL1        0.0661
     38 H          -0.9998    6.2639    0.8972 H       1  UNL1        0.0473
     39 H          -0.2513    6.0734    2.5189 H       1  UNL1        0.0473
     40 H          -1.8839    5.4183    2.2734 H       1  UNL1        0.0473
     41 H          -2.1914    3.2561    0.7689 H       1  UNL1        0.0834
     42 H          -2.2620   -1.5410    1.1818 H       1  UNL1        0.0356
     43 H          -4.1058    0.3471   -0.0463 H       1  UNL1        0.0466
     44 H          -4.2825   -0.5078    1.5462 H       1  UNL1        0.0466
     45 H          -6.2052   -1.1995    0.1273 H       1  UNL1        0.1487
     46 H          -3.4037   -3.4420    0.6518 H       1  UNL1        0.0363
     47 H          -2.6138   -3.2139   -0.9783 H       1  UNL1        0.0363
@<TRIPOS>BOND
     1     1     2    1
     2     2     3    1
     3     3     4    1
     4     4     5   ar
     5     5     6   ar
     6     6     7    1
     7     7     8   ar
     8     8     9   ar
     9     9    10   ar
    10    10    11    1
    11    11    12    1
    12    11    13    1
    13    11    14    1
    14    10    15   ar
    15    15    16   ar
    16     6    17   ar
    17    17    18   ar
    18    18    19   ar
    19    19    20   ar
    20    20    21    1
    21    20    22   ar
    22    22    23   ar
    23     2    24    1
    24    24    25    1
    25    25    26    1
    26    26    27   am
    27    27    28    2
    28    27    29    1
    29    23     4   ar
    30    29    24    1
    31    16     7   ar
    32    23    18   ar
    33     1    30    1
    34     1    31    1
    35     1    32    1
    36     2    33    1
    37     8    34    1
    38     9    35    1
    39    16    36    1
    40    17    37    1
    41    21    38    1
    42    21    39    1
    43    21    40    1
    44    22    41    1
    45    24    42    1
    46    25    43    1
    47    25    44    1
    48    26    45    1
    49    29    46    1
    50    29    47    1
