@<TRIPOS>MOLECULE
*****
 40 40 0 0 0
SMALL
GASTEIGER

@<TRIPOS>ATOM
      1 C          -0.3400    2.4284    1.4619 C.3     1  UNL1       -0.0497
      2 C           0.4129    1.6007    0.4305 C.3     1  UNL1        0.0051
      3 C           0.6827    2.5365   -0.7337 C.3     1  UNL1       -0.0497
      4 N          -0.3157    0.4202    0.0642 N.3     1  UNL1       -0.2954
      5 C           0.3504   -0.4251   -0.8665 C.3     1  UNL1        0.0244
      6 C           1.6537   -0.9400   -0.3572 C.ar    1  UNL1       -0.0319
      7 C           2.8086   -0.2523   -0.5973 C.ar    1  UNL1       -0.0559
      8 C           4.0491   -0.7059   -0.1317 C.ar    1  UNL1       -0.0417
      9 C           4.1299   -1.8738    0.5893 C.ar    1  UNL1        0.0593
     10 CL          5.6758   -2.4810    1.1950 Cl      1  UNL1       -0.0820
     11 C           2.9552   -2.5626    0.8270 C.ar    1  UNL1        0.0595
     12 CL          3.0751   -4.0516    1.7488 Cl      1  UNL1       -0.0820
     13 C           1.7347   -2.1134    0.3672 C.ar    1  UNL1       -0.0376
     14 C          -1.6237    0.7551   -0.4030 C.3     1  UNL1        0.0046
     15 C          -2.3986   -0.4769   -0.7884 C.3     1  UNL1       -0.0032
     16 C          -2.5779   -1.4431    0.3635 C.3     1  UNL1        0.0011
     17 N          -3.9445   -1.6640   -0.1370 N.3     1  UNL1       -0.3153
     18 C          -3.9066   -0.2687   -0.5679 C.3     1  UNL1        0.0011
     19 CL          0.6909    0.0000    0.0000 Cl      2  UNL2       -0.1454
     20 H          -0.9081    1.8104    2.1599 H       1  UNL1        0.0245
     21 H          -0.9677    3.2061    0.9575 H       1  UNL1        0.0245
     22 H           0.4298    2.9774    2.0462 H       1  UNL1        0.0245
     23 H           1.3905    1.2779    0.8876 H       1  UNL1        0.0457
     24 H           0.1843    3.5206   -0.6072 H       1  UNL1        0.0245
     25 H           0.3260    2.1475   -1.7006 H       1  UNL1        0.0245
     26 H           1.7817    2.7905   -0.7780 H       1  UNL1        0.0245
     27 H          -0.2766   -1.3193   -1.1472 H       1  UNL1        0.0476
     28 H           0.5616    0.1355   -1.7960 H       1  UNL1        0.0476
     29 H           2.8373    0.6688   -1.1542 H       1  UNL1        0.0621
     30 H           4.9537   -0.1496   -0.3304 H       1  UNL1        0.0633
     31 H           0.8215   -2.6634    0.5607 H       1  UNL1        0.0636
     32 H          -1.5379    1.4762   -1.2427 H       1  UNL1        0.0430
     33 H          -2.2346    1.2914    0.3663 H       1  UNL1        0.0430
     34 H          -2.1635   -0.9349   -1.7624 H       1  UNL1        0.0338
     35 H          -1.9440   -2.3386    0.3266 H       1  UNL1        0.0428
     36 H          -2.5550   -0.8764    1.3282 H       1  UNL1        0.0428
     37 H          -4.6300   -1.8780    0.5994 H       1  UNL1        0.1220
     38 H          -4.0254    0.4130    0.2958 H       1  UNL1        0.0428
     39 H          -4.4649   -0.0374   -1.4740 H       1  UNL1        0.0428
     40 H          -0.6909    0.0000    0.0000 H       1  UNL1        0.1454
@<TRIPOS>BOND
     1     1     2    1
     2     2     3    1
     3     2     4    1
     4     4     5    1
     5     5     6    1
     6     6     7   ar
     7     7     8   ar
     8     8     9   ar
     9     9    10    1
    10     9    11   ar
    11    11    12    1
    12    11    13   ar
    13     4    14    1
    14    14    15    1
    15    15    16    1
    16    16    17    1
    17    17    18    1
    18    13     6   ar
    19    18    15    1
    20     1    20    1
    21     1    21    1
    22     1    22    1
    23     2    23    1
    24     3    24    1
    25     3    25    1
    26     3    26    1
    27     5    27    1
    28     5    28    1
    29     7    29    1
    30     8    30    1
    31    13    31    1
    32    14    32    1
    33    14    33    1
    34    15    34    1
    35    16    35    1
    36    16    36    1
    37    17    37    1
    38    18    38    1
    39    18    39    1
    40    19    40    1
