
     RDKit          3D

 40 40  0  0  0  0  0  0  0  0999 V2000
   -0.3400    2.4284    1.4619 C   0  0  0  0  0  0  0  0  0  0  0  0
    0.4129    1.6007    0.4305 C   0  0  0  0  0  0  0  0  0  0  0  0
    0.6827    2.5365   -0.7337 C   0  0  0  0  0  0  0  0  0  0  0  0
   -0.3157    0.4202    0.0642 N   0  0  0  0  0  0  0  0  0  0  0  0
    0.3504   -0.4251   -0.8665 C   0  0  0  0  0  0  0  0  0  0  0  0
    1.6537   -0.9400   -0.3572 C   0  0  0  0  0  0  0  0  0  0  0  0
    2.8086   -0.2523   -0.5973 C   0  0  0  0  0  0  0  0  0  0  0  0
    4.0491   -0.7059   -0.1317 C   0  0  0  0  0  0  0  0  0  0  0  0
    4.1299   -1.8738    0.5893 C   0  0  0  0  0  0  0  0  0  0  0  0
    5.6758   -2.4810    1.1950 Cl  0  0  0  0  0  0  0  0  0  0  0  0
    2.9552   -2.5626    0.8270 C   0  0  0  0  0  0  0  0  0  0  0  0
    3.0751   -4.0516    1.7488 Cl  0  0  0  0  0  0  0  0  0  0  0  0
    1.7347   -2.1134    0.3672 C   0  0  0  0  0  0  0  0  0  0  0  0
   -1.6237    0.7551   -0.4030 C   0  0  0  0  0  0  0  0  0  0  0  0
   -2.3986   -0.4769   -0.7884 C   0  0  0  0  0  0  0  0  0  0  0  0
   -2.5779   -1.4431    0.3635 C   0  0  0  0  0  0  0  0  0  0  0  0
   -3.9445   -1.6640   -0.1370 N   0  0  0  0  0  0  0  0  0  0  0  0
   -3.9066   -0.2687   -0.5679 C   0  0  0  0  0  0  0  0  0  0  0  0
    0.6909    0.0000    0.0000 Cl  0  0  0  0  0  0  0  0  0  0  0  0
   -0.9081    1.8104    2.1599 H   0  0  0  0  0  0  0  0  0  0  0  0
   -0.9677    3.2061    0.9575 H   0  0  0  0  0  0  0  0  0  0  0  0
    0.4298    2.9774    2.0462 H   0  0  0  0  0  0  0  0  0  0  0  0
    1.3905    1.2779    0.8876 H   0  0  0  0  0  0  0  0  0  0  0  0
    0.1843    3.5206   -0.6072 H   0  0  0  0  0  0  0  0  0  0  0  0
    0.3260    2.1475   -1.7006 H   0  0  0  0  0  0  0  0  0  0  0  0
    1.7817    2.7905   -0.7780 H   0  0  0  0  0  0  0  0  0  0  0  0
   -0.2766   -1.3193   -1.1472 H   0  0  0  0  0  0  0  0  0  0  0  0
    0.5616    0.1355   -1.7960 H   0  0  0  0  0  0  0  0  0  0  0  0
    2.8373    0.6688   -1.1542 H   0  0  0  0  0  0  0  0  0  0  0  0
    4.9537   -0.1496   -0.3304 H   0  0  0  0  0  0  0  0  0  0  0  0
    0.8215   -2.6634    0.5607 H   0  0  0  0  0  0  0  0  0  0  0  0
   -1.5379    1.4762   -1.2427 H   0  0  0  0  0  0  0  0  0  0  0  0
   -2.2346    1.2914    0.3663 H   0  0  0  0  0  0  0  0  0  0  0  0
   -2.1635   -0.9349   -1.7624 H   0  0  0  0  0  0  0  0  0  0  0  0
   -1.9440   -2.3386    0.3266 H   0  0  0  0  0  0  0  0  0  0  0  0
   -2.5550   -0.8764    1.3282 H   0  0  0  0  0  0  0  0  0  0  0  0
   -4.6300   -1.8780    0.5994 H   0  0  0  0  0  0  0  0  0  0  0  0
   -4.0254    0.4130    0.2958 H   0  0  0  0  0  0  0  0  0  0  0  0
   -4.4649   -0.0374   -1.4740 H   0  0  0  0  0  0  0  0  0  0  0  0
   -0.6909    0.0000    0.0000 H   0  0  0  0  0  0  0  0  0  0  0  0
  1  2  1  0
  2  3  1  0
  2  4  1  0
  4  5  1  0
  5  6  1  0
  6  7  2  0
  7  8  1  0
  8  9  2  0
  9 10  1  0
  9 11  1  0
 11 12  1  0
 11 13  2  0
  4 14  1  0
 14 15  1  0
 15 16  1  0
 16 17  1  0
 17 18  1  0
 13  6  1  0
 18 15  1  0
  1 20  1  0
  1 21  1  0
  1 22  1  0
  2 23  1  0
  3 24  1  0
  3 25  1  0
  3 26  1  0
  5 27  1  0
  5 28  1  0
  7 29  1  0
  8 30  1  0
 13 31  1  0
 14 32  1  0
 14 33  1  0
 15 34  1  0
 16 35  1  0
 16 36  1  0
 17 37  1  0
 18 38  1  0
 18 39  1  0
 19 40  1  0
M  END
$$$$
