@<TRIPOS>MOLECULE
*****
 27 28 0 0 0
SMALL
GASTEIGER

@<TRIPOS>ATOM
      1 O           4.7197   -1.7205   -1.0275 O.co2   1  UNL1       -0.7202
      2 S           4.0543   -1.3630    0.4657 S.3     1  UNL1       -0.0512
      3 O           4.9625   -0.4850    1.2486 O.2     1  UNL1       -0.1803
      4 O           3.8053   -2.6086    1.2747 O.2     1  UNL1       -0.1803
      5 C           2.5021   -0.5678    0.2763 C.ar    1  UNL1        0.0772
      6 C           1.3459   -1.3190    0.2131 C.ar    1  UNL1       -0.0300
      7 C           0.1448   -0.6523    0.0636 C.ar    1  UNL1       -0.0126
      8 C           0.1261    0.7292   -0.0182 C.ar    1  UNL1        0.0062
      9 C           1.3021    1.4539    0.0483 C.ar    1  UNL1       -0.0505
     10 C           2.5213    0.8147    0.1979 C.ar    1  UNL1       -0.0372
     11 C          -1.1049    1.3361   -0.1670 C.ar    1  UNL1        0.0861
     12 C          -2.2513    0.5707   -0.2285 C.ar    1  UNL1       -0.0133
     13 C          -2.2356   -0.7864   -0.1484 C.ar    1  UNL1        0.0790
     14 C          -0.9989   -1.3937    0.0010 C.ar    1  UNL1       -0.0300
     15 S          -3.6658   -1.7841   -0.2226 S.3     1  UNL1       -0.0511
     16 O          -4.0060   -2.2145   -1.8255 O.co2   1  UNL1       -0.7202
     17 O          -4.8292   -1.0381    0.3630 O.2     1  UNL1       -0.1803
     18 O          -3.5227   -3.0553    0.5592 O.2     1  UNL1       -0.1803
     19 S          -1.1039    3.0706   -0.2674 S.3     1  UNL1       -0.0506
     20 O          -2.7147    3.5565   -0.4443 O.co2   1  UNL1       -0.7201
     21 O          -0.4072    3.5420   -1.5291 O.2     1  UNL1       -0.1803
     22 O          -0.5756    3.7593    0.9359 O.2     1  UNL1       -0.1803
     23 H           1.3722   -2.4032    0.2784 H       1  UNL1        0.0642
     24 H           1.2892    2.5344   -0.0155 H       1  UNL1        0.0625
     25 H           3.4276    1.3948    0.2479 H       1  UNL1        0.0636
     26 H          -3.2104    1.0860   -0.3469 H       1  UNL1        0.0655
     27 H          -0.9470   -2.4567    0.0674 H       1  UNL1        0.0642
@<TRIPOS>UNITY_ATOM_ATTR
1 1
charge -1
16 1
charge -1
20 1
charge -1
@<TRIPOS>BOND
     1     1     2    1
     2     2     3    2
     3     2     4    2
     4     2     5    1
     5     5     6   ar
     6     6     7   ar
     7     7     8   ar
     8     8     9   ar
     9     9    10   ar
    10     8    11   ar
    11    11    12   ar
    12    12    13   ar
    13    13    14   ar
    14    13    15    1
    15    15    16    1
    16    15    17    2
    17    15    18    2
    18    11    19    1
    19    19    20    1
    20    19    21    2
    21    19    22    2
    22    10     5   ar
    23    14     7   ar
    24     6    23    1
    25     9    24    1
    26    10    25    1
    27    12    26    1
    28    14    27    1
