@<TRIPOS>MOLECULE
*****
 62 66 0 0 0
SMALL
GASTEIGER

@<TRIPOS>ATOM
      1 C          -1.0787    0.6406    3.0814 C.3     1  UNL1       -0.0188
      2 C          -1.0440    0.5267    1.5801 C.ar    1  UNL1        0.0814
      3 N          -2.0960    0.0533    0.8393 N.ar    1  UNL1       -0.1741
      4 N          -1.7900    0.1405   -0.4360 N.ar    1  UNL1       -0.2634
      5 C          -2.6451   -0.3135   -1.5125 C.3     1  UNL1        0.0559
      6 C          -3.8233    0.5817   -1.6423 C.3     1  UNL1       -0.0146
      7 C          -5.1145   -0.2349   -1.5737 C.3     1  UNL1        0.0167
      8 N          -5.1276   -0.9817   -0.3588 N.am    1  UNL1       -0.2992
      9 C          -6.0136   -0.8359    0.7028 C.2     1  UNL1        0.2439
     10 O          -5.9794   -1.6143    1.6921 O.2     1  UNL1       -0.2728
     11 C          -7.0550    0.2289    0.7482 C.3     1  UNL1        0.1283
     12 C          -8.2875   -0.2291   -0.0493 C.3     1  UNL1       -0.0303
     13 O          -6.5480    1.3975    0.1287 O.3     1  UNL1       -0.3828
     14 C          -4.0580   -2.0019   -0.2519 C.3     1  UNL1        0.0167
     15 C          -2.9884   -1.7664   -1.2588 C.3     1  UNL1       -0.0146
     16 C          -0.5330    0.6705   -0.5997 C.ar    1  UNL1        0.0579
     17 C           0.1013    0.9784   -1.8766 C.3     1  UNL1       -0.0208
     18 C          -0.0861    0.8955    0.6993 C.ar    1  UNL1        0.0774
     19 N           1.2452    1.3342    0.9981 N.pl3   1  UNL1       -0.2807
     20 C           2.2771    0.4309    0.5220 C.ar    1  UNL1        0.2202
     21 N           1.9495   -0.7348   -0.0699 N.ar    1  UNL1       -0.2212
     22 C           2.8338   -1.5240   -0.7293 C.ar    1  UNL1        0.0516
     23 C           4.1427   -1.1283   -0.8052 C.ar    1  UNL1        0.0852
     24 CL          5.3528   -2.0854   -1.6229 Cl      1  UNL1       -0.0797
     25 C           4.4997    0.0704   -0.1935 C.ar    1  UNL1        0.0979
     26 C           5.9103    0.4110   -0.2107 C.ar    1  UNL1        0.0470
     27 C           6.3693    1.5483   -0.9419 C.ar    1  UNL1        0.0596
     28 N           7.6377    1.7450   -0.6662 N.ar    1  UNL1       -0.1741
     29 N           8.0475    0.8055    0.1959 N.ar    1  UNL1       -0.2392
     30 C           9.2583    0.5269    0.7163 C.ar    1  UNL1        0.0298
     31 C           9.4658   -0.5831    1.5293 C.ar    1  UNL1       -0.0435
     32 C           8.4220   -1.4252    1.8216 C.ar    1  UNL1       -0.0583
     33 C           7.1727   -1.1331    1.2920 C.ar    1  UNL1       -0.0355
     34 C           7.0045   -0.0055    0.4739 C.ar    1  UNL1        0.0760
     35 N           3.5710    0.7823    0.4339 N.ar    1  UNL1       -0.2126
     36 H          -0.5317    1.5801    3.3715 H       1  UNL1        0.0294
     37 H          -0.5944   -0.2250    3.5260 H       1  UNL1        0.0294
     38 H          -2.1619    0.6901    3.3967 H       1  UNL1        0.0294
     39 H          -2.1242   -0.3198   -2.4981 H       1  UNL1        0.0546
     40 H          -3.8594    1.0614   -2.6710 H       1  UNL1        0.0301
     41 H          -3.8918    1.3909   -0.9142 H       1  UNL1        0.0301
     42 H          -5.9534    0.4161   -1.7763 H       1  UNL1        0.0465
     43 H          -4.9788   -0.9989   -2.4095 H       1  UNL1        0.0465
     44 H          -7.4029    0.5055    1.7410 H       1  UNL1        0.0687
     45 H          -8.0297   -1.2094   -0.5555 H       1  UNL1        0.0259
     46 H          -8.5838    0.5467   -0.7940 H       1  UNL1        0.0259
     47 H          -9.1553   -0.4225    0.5879 H       1  UNL1        0.0259
     48 H          -5.9781    1.8115    0.8513 H       1  UNL1        0.2104
     49 H          -4.4940   -2.9961   -0.4701 H       1  UNL1        0.0465
     50 H          -3.6751   -1.9344    0.7710 H       1  UNL1        0.0465
     51 H          -3.2403   -2.2721   -2.2235 H       1  UNL1        0.0301
     52 H          -2.0772   -2.2824   -0.9042 H       1  UNL1        0.0301
     53 H          -0.7068    1.0659   -2.6672 H       1  UNL1        0.0293
     54 H           0.4971    2.0491   -1.8329 H       1  UNL1        0.0293
     55 H           0.8490    0.2856   -2.2367 H       1  UNL1        0.0293
     56 H           1.4181    2.2069    1.4920 H       1  UNL1        0.1551
     57 H           2.5408   -2.4436   -1.1778 H       1  UNL1        0.0846
     58 H           5.7273    2.1173   -1.6020 H       1  UNL1        0.0855
     59 H          10.0983    1.2113    0.4999 H       1  UNL1        0.0830
     60 H          10.4589   -0.8040    1.9283 H       1  UNL1        0.0633
     61 H           8.5588   -2.3223    2.4443 H       1  UNL1        0.0619
     62 H           6.2977   -1.7377    1.4676 H       1  UNL1        0.0639
@<TRIPOS>BOND
     1     1     2    1
     2     2     3   ar
     3     3     4   ar
     4     4     5    1
     5     5     6    1
     6     6     7    1
     7     7     8    1
     8     8     9   am
     9     9    10    2
    10     9    11    1
    11    11    12    1
    12    11    13    1
    13     8    14    1
    14    14    15    1
    15     4    16   ar
    16    16    17    1
    17    16    18   ar
    18    18    19    1
    19    19    20    1
    20    20    21   ar
    21    21    22   ar
    22    22    23   ar
    23    23    24    1
    24    23    25   ar
    25    25    26    1
    26    26    27   ar
    27    27    28   ar
    28    28    29   ar
    29    29    30   ar
    30    30    31   ar
    31    31    32   ar
    32    32    33   ar
    33    33    34   ar
    34    25    35   ar
    35    18     2   ar
    36    35    20   ar
    37    15     5    1
    38    34    26   ar
    39    34    29   ar
    40     1    36    1
    41     1    37    1
    42     1    38    1
    43     5    39    1
    44     6    40    1
    45     6    41    1
    46     7    42    1
    47     7    43    1
    48    11    44    1
    49    12    45    1
    50    12    46    1
    51    12    47    1
    52    13    48    1
    53    14    49    1
    54    14    50    1
    55    15    51    1
    56    15    52    1
    57    17    53    1
    58    17    54    1
    59    17    55    1
    60    19    56    1
    61    22    57    1
    62    27    58    1
    63    30    59    1
    64    31    60    1
    65    32    61    1
    66    33    62    1
