
     RDKit          3D

 62 66  0  0  0  0  0  0  0  0999 V2000
   -1.0787    0.6406    3.0814 C   0  0  0  0  0  0  0  0  0  0  0  0
   -1.0440    0.5267    1.5801 C   0  0  0  0  0  0  0  0  0  0  0  0
   -2.0960    0.0533    0.8393 N   0  0  0  0  0  0  0  0  0  0  0  0
   -1.7900    0.1405   -0.4360 N   0  0  0  0  0  0  0  0  0  0  0  0
   -2.6451   -0.3135   -1.5125 C   0  0  0  0  0  0  0  0  0  0  0  0
   -3.8233    0.5817   -1.6423 C   0  0  0  0  0  0  0  0  0  0  0  0
   -5.1145   -0.2349   -1.5737 C   0  0  0  0  0  0  0  0  0  0  0  0
   -5.1276   -0.9817   -0.3588 N   0  0  0  0  0  0  0  0  0  0  0  0
   -6.0136   -0.8359    0.7028 C   0  0  0  0  0  0  0  0  0  0  0  0
   -5.9794   -1.6143    1.6921 O   0  0  0  0  0  0  0  0  0  0  0  0
   -7.0550    0.2289    0.7482 C   0  0  2  0  0  0  0  0  0  0  0  0
   -8.2875   -0.2291   -0.0493 C   0  0  0  0  0  0  0  0  0  0  0  0
   -6.5480    1.3975    0.1287 O   0  0  0  0  0  0  0  0  0  0  0  0
   -4.0580   -2.0019   -0.2519 C   0  0  0  0  0  0  0  0  0  0  0  0
   -2.9884   -1.7664   -1.2588 C   0  0  0  0  0  0  0  0  0  0  0  0
   -0.5330    0.6705   -0.5997 C   0  0  0  0  0  0  0  0  0  0  0  0
    0.1013    0.9784   -1.8766 C   0  0  0  0  0  0  0  0  0  0  0  0
   -0.0861    0.8955    0.6993 C   0  0  0  0  0  0  0  0  0  0  0  0
    1.2452    1.3342    0.9981 N   0  0  0  0  0  0  0  0  0  0  0  0
    2.2771    0.4309    0.5220 C   0  0  0  0  0  0  0  0  0  0  0  0
    1.9495   -0.7348   -0.0699 N   0  0  0  0  0  0  0  0  0  0  0  0
    2.8338   -1.5240   -0.7293 C   0  0  0  0  0  0  0  0  0  0  0  0
    4.1427   -1.1283   -0.8052 C   0  0  0  0  0  0  0  0  0  0  0  0
    5.3528   -2.0854   -1.6229 Cl  0  0  0  0  0  0  0  0  0  0  0  0
    4.4997    0.0704   -0.1935 C   0  0  0  0  0  0  0  0  0  0  0  0
    5.9103    0.4110   -0.2107 C   0  0  0  0  0  0  0  0  0  0  0  0
    6.3693    1.5483   -0.9419 C   0  0  0  0  0  0  0  0  0  0  0  0
    7.6377    1.7450   -0.6662 N   0  0  0  0  0  0  0  0  0  0  0  0
    8.0475    0.8055    0.1959 N   0  0  0  0  0  0  0  0  0  0  0  0
    9.2583    0.5269    0.7163 C   0  0  0  0  0  0  0  0  0  0  0  0
    9.4658   -0.5831    1.5293 C   0  0  0  0  0  0  0  0  0  0  0  0
    8.4220   -1.4252    1.8216 C   0  0  0  0  0  0  0  0  0  0  0  0
    7.1727   -1.1331    1.2920 C   0  0  0  0  0  0  0  0  0  0  0  0
    7.0045   -0.0055    0.4739 C   0  0  0  0  0  0  0  0  0  0  0  0
    3.5710    0.7823    0.4339 N   0  0  0  0  0  0  0  0  0  0  0  0
   -0.5317    1.5801    3.3715 H   0  0  0  0  0  0  0  0  0  0  0  0
   -0.5944   -0.2250    3.5260 H   0  0  0  0  0  0  0  0  0  0  0  0
   -2.1619    0.6901    3.3967 H   0  0  0  0  0  0  0  0  0  0  0  0
   -2.1242   -0.3198   -2.4981 H   0  0  0  0  0  0  0  0  0  0  0  0
   -3.8594    1.0614   -2.6710 H   0  0  0  0  0  0  0  0  0  0  0  0
   -3.8918    1.3909   -0.9142 H   0  0  0  0  0  0  0  0  0  0  0  0
   -5.9534    0.4161   -1.7763 H   0  0  0  0  0  0  0  0  0  0  0  0
   -4.9788   -0.9989   -2.4095 H   0  0  0  0  0  0  0  0  0  0  0  0
   -7.4029    0.5055    1.7410 H   0  0  0  0  0  0  0  0  0  0  0  0
   -8.0297   -1.2094   -0.5555 H   0  0  0  0  0  0  0  0  0  0  0  0
   -8.5838    0.5467   -0.7940 H   0  0  0  0  0  0  0  0  0  0  0  0
   -9.1553   -0.4225    0.5879 H   0  0  0  0  0  0  0  0  0  0  0  0
   -5.9781    1.8115    0.8513 H   0  0  0  0  0  0  0  0  0  0  0  0
   -4.4940   -2.9961   -0.4701 H   0  0  0  0  0  0  0  0  0  0  0  0
   -3.6751   -1.9344    0.7710 H   0  0  0  0  0  0  0  0  0  0  0  0
   -3.2403   -2.2721   -2.2235 H   0  0  0  0  0  0  0  0  0  0  0  0
   -2.0772   -2.2824   -0.9042 H   0  0  0  0  0  0  0  0  0  0  0  0
   -0.7068    1.0659   -2.6672 H   0  0  0  0  0  0  0  0  0  0  0  0
    0.4971    2.0491   -1.8329 H   0  0  0  0  0  0  0  0  0  0  0  0
    0.8490    0.2856   -2.2367 H   0  0  0  0  0  0  0  0  0  0  0  0
    1.4181    2.2069    1.4920 H   0  0  0  0  0  0  0  0  0  0  0  0
    2.5408   -2.4436   -1.1778 H   0  0  0  0  0  0  0  0  0  0  0  0
    5.7273    2.1173   -1.6020 H   0  0  0  0  0  0  0  0  0  0  0  0
   10.0983    1.2113    0.4999 H   0  0  0  0  0  0  0  0  0  0  0  0
   10.4589   -0.8040    1.9283 H   0  0  0  0  0  0  0  0  0  0  0  0
    8.5588   -2.3223    2.4443 H   0  0  0  0  0  0  0  0  0  0  0  0
    6.2977   -1.7377    1.4676 H   0  0  0  0  0  0  0  0  0  0  0  0
  1  2  1  0
  2  3  2  0
  3  4  1  0
  4  5  1  0
  5  6  1  0
  6  7  1  0
  7  8  1  0
  8  9  1  0
  9 10  2  0
  9 11  1  0
 11 12  1  0
 11 13  1  0
  8 14  1  0
 14 15  1  0
  4 16  1  0
 16 17  1  0
 16 18  2  0
 18 19  1  0
 19 20  1  0
 20 21  2  0
 21 22  1  0
 22 23  2  0
 23 24  1  0
 23 25  1  0
 25 26  1  0
 26 27  1  0
 27 28  2  0
 28 29  1  0
 29 30  1  0
 30 31  2  0
 31 32  1  0
 32 33  2  0
 33 34  1  0
 25 35  2  0
 18  2  1  0
 35 20  1  0
 15  5  1  0
 34 26  2  0
 34 29  1  0
  1 36  1  0
  1 37  1  0
  1 38  1  0
  5 39  1  0
  6 40  1  0
  6 41  1  0
  7 42  1  0
  7 43  1  0
 11 44  1  1
 12 45  1  0
 12 46  1  0
 12 47  1  0
 13 48  1  0
 14 49  1  0
 14 50  1  0
 15 51  1  0
 15 52  1  0
 17 53  1  0
 17 54  1  0
 17 55  1  0
 19 56  1  0
 22 57  1  0
 27 58  1  0
 30 59  1  0
 31 60  1  0
 32 61  1  0
 33 62  1  0
M  END
$$$$
