@<TRIPOS>MOLECULE
*****
 63 68 0 0 0
SMALL
GASTEIGER

@<TRIPOS>ATOM
      1 O           1.1823    0.9646   -0.8186 O.2     1  UNL1       -0.2732
      2 C           0.6753    0.2080    0.0305 C.2     1  UNL1        0.2405
      3 N           1.5393   -0.4947    0.9077 N.am    1  UNL1       -0.2815
      4 C           2.9396   -0.3152    0.7910 C.ar    1  UNL1        0.0691
      5 C           3.5631    0.6678    1.5033 C.ar    1  UNL1       -0.0370
      6 C           4.9350    0.8471    1.3918 C.ar    1  UNL1       -0.0491
      7 C           5.7106    0.0609    0.5778 C.ar    1  UNL1        0.0233
      8 C           7.1346    0.2918    0.5000 C.ar    1  UNL1        0.1794
      9 N           8.0104   -0.3957   -0.2497 N.ar    1  UNL1       -0.1084
     10 N           9.2289    0.0969   -0.0666 N.ar    1  UNL1       -0.0229
     11 N           9.1116    1.0952    0.8006 N.ar    1  UNL1       -0.0464
     12 N           7.8352    1.2239    1.1543 N.ar    1  UNL1       -0.2388
     13 C           5.0827   -0.9428   -0.1511 C.ar    1  UNL1       -0.0139
     14 C           3.7184   -1.1104   -0.0312 C.ar    1  UNL1        0.1452
     15 F           3.0730   -2.0777   -0.7259 F       1  UNL1       -0.2035
     16 C          -0.7782    0.0461    0.1233 C.3     1  UNL1        0.1154
     17 C          -1.2299   -1.3722    0.0976 C.3     1  UNL1       -0.0116
     18 C          -0.8860   -2.1931   -1.0863 C.3     1  UNL1       -0.0479
     19 C          -1.1761   -3.6614   -0.7164 C.3     1  UNL1       -0.0527
     20 C          -2.6832   -3.7705   -0.6487 C.3     1  UNL1       -0.0530
     21 C          -3.2968   -2.7947    0.2915 C.3     1  UNL1       -0.0527
     22 C          -2.7520   -1.4109    0.2655 C.3     1  UNL1       -0.0479
     23 N          -1.5572    0.9461   -0.6869 N.ar    1  UNL1       -0.3112
     24 C          -2.4957    1.7918   -0.1824 C.ar    1  UNL1        0.1425
     25 C          -2.8523    1.9346    1.2224 C.ar    1  UNL1        0.0176
     26 C          -4.1410    1.6234    1.6741 C.ar    1  UNL1       -0.0497
     27 C          -4.4855    1.7630    2.9964 C.ar    1  UNL1       -0.0427
     28 C          -3.5872    2.2134    3.9416 C.ar    1  UNL1        0.0410
     29 CL         -4.0825    2.3709    5.6110 Cl      1  UNL1       -0.0835
     30 C          -2.3131    2.5257    3.5195 C.ar    1  UNL1       -0.0427
     31 C          -1.9741    2.3829    2.1881 C.ar    1  UNL1       -0.0497
     32 N          -3.0112    2.4667   -1.2220 N.ar    1  UNL1       -0.2274
     33 C          -2.4286    2.0752   -2.3636 C.ar    1  UNL1        0.0926
     34 C          -2.6139    2.4725   -3.6707 C.ar    1  UNL1        0.0039
     35 C          -1.8517    1.8837   -4.6513 C.ar    1  UNL1        0.1605
     36 F          -2.0310    2.2732   -5.9473 F       1  UNL1       -0.2024
     37 C          -0.9259    0.9233   -4.3515 C.ar    1  UNL1        0.1605
     38 F          -0.1747    0.3435   -5.3195 F       1  UNL1       -0.2024
     39 C          -0.7327    0.5165   -3.0351 C.ar    1  UNL1        0.0021
     40 C          -1.4862    1.0926   -2.0327 C.ar    1  UNL1        0.0727
     41 H           1.1773   -1.1522    1.6509 H       1  UNL1        0.1549
     42 H           2.9649    1.2930    2.1470 H       1  UNL1        0.0637
     43 H           5.3645    1.6497    1.9885 H       1  UNL1        0.0625
     44 H           7.5088    1.9474    1.8291 H       1  UNL1        0.1923
     45 H           5.6826   -1.5697   -0.7966 H       1  UNL1        0.0654
     46 H          -0.9808    0.3521    1.2297 H       1  UNL1        0.0627
     47 H          -0.8603   -1.8638    1.0549 H       1  UNL1        0.0325
     48 H          -1.6097   -1.9825   -1.8994 H       1  UNL1        0.0269
     49 H           0.1789   -2.1083   -1.4001 H       1  UNL1        0.0269
     50 H          -0.8326   -4.3191   -1.5312 H       1  UNL1        0.0265
     51 H          -0.6880   -3.8582    0.2395 H       1  UNL1        0.0265
     52 H          -3.1004   -3.7351   -1.6571 H       1  UNL1        0.0265
     53 H          -2.9052   -4.8032   -0.2558 H       1  UNL1        0.0265
     54 H          -4.3911   -2.7209    0.0185 H       1  UNL1        0.0265
     55 H          -3.3224   -3.2070    1.3427 H       1  UNL1        0.0265
     56 H          -2.9688   -0.9547    1.2629 H       1  UNL1        0.0269
     57 H          -3.1738   -0.8518   -0.5769 H       1  UNL1        0.0269
     58 H          -4.8359    1.2725    0.9295 H       1  UNL1        0.0625
     59 H          -5.4884    1.5208    3.3481 H       1  UNL1        0.0632
     60 H          -1.5969    2.8838    4.2676 H       1  UNL1        0.0632
     61 H          -0.9592    2.6414    1.8843 H       1  UNL1        0.0625
     62 H          -3.3520    3.2361   -3.8961 H       1  UNL1        0.0669
     63 H          -0.0048   -0.2324   -2.8106 H       1  UNL1        0.0668
@<TRIPOS>BOND
     1     1     2    2
     2     2     3   am
     3     3     4    1
     4     4     5   ar
     5     5     6   ar
     6     6     7   ar
     7     7     8    1
     8     8     9   ar
     9     9    10   ar
    10    10    11   ar
    11    11    12   ar
    12     7    13   ar
    13    13    14   ar
    14    14    15    1
    15     2    16    1
    16    16    17    1
    17    17    18    1
    18    18    19    1
    19    19    20    1
    20    20    21    1
    21    21    22    1
    22    16    23    1
    23    23    24   ar
    24    24    25    1
    25    25    26   ar
    26    26    27   ar
    27    27    28   ar
    28    28    29    1
    29    28    30   ar
    30    30    31   ar
    31    24    32   ar
    32    32    33   ar
    33    33    34   ar
    34    34    35   ar
    35    35    36    1
    36    35    37   ar
    37    37    38    1
    38    37    39   ar
    39    39    40   ar
    40    14     4   ar
    41    22    17    1
    42    40    23   ar
    43    12     8   ar
    44    31    25   ar
    45    40    33   ar
    46     3    41    1
    47     5    42    1
    48     6    43    1
    49    12    44    1
    50    13    45    1
    51    16    46    1
    52    17    47    1
    53    18    48    1
    54    18    49    1
    55    19    50    1
    56    19    51    1
    57    20    52    1
    58    20    53    1
    59    21    54    1
    60    21    55    1
    61    22    56    1
    62    22    57    1
    63    26    58    1
    64    27    59    1
    65    30    60    1
    66    31    61    1
    67    34    62    1
    68    39    63    1
