@<TRIPOS>MOLECULE
*****
 64 68 0 0 0
SMALL
GASTEIGER

@<TRIPOS>ATOM
      1 C          -4.1536    1.1710   -0.7386 C.3     1  UNL1       -0.0046
      2 C          -4.2533    1.8764   -2.0683 C.3     1  UNL1       -0.0576
      3 C          -3.8651    2.2001    0.2968 C.ar    1  UNL1        0.0013
      4 C          -4.8793    3.1322    0.3677 C.ar    1  UNL1       -0.0133
      5 C          -4.8257    4.1968    1.2734 C.ar    1  UNL1        0.1174
      6 O          -5.8157    5.1641    1.3895 O.3     1  UNL1       -0.5068
      7 C          -3.7076    4.2607    2.0864 C.ar    1  UNL1       -0.0167
      8 C          -2.6987    3.3452    2.0253 C.ar    1  UNL1       -0.0162
      9 C          -2.7582    2.2818    1.1168 C.ar    1  UNL1        0.1251
     10 O          -1.8420    1.2618    0.9078 O.3     1  UNL1       -0.4833
     11 C          -1.7828    0.6955   -0.3946 C.3     1  UNL1        0.1324
     12 C          -0.6071   -0.1669   -0.5132 C.ar    1  UNL1       -0.0065
     13 C          -0.4473   -1.4098   -1.0829 C.ar    1  UNL1       -0.0516
     14 C           0.8041   -2.0364   -1.0583 C.ar    1  UNL1       -0.0196
     15 C           1.9222   -1.4344   -0.4643 C.ar    1  UNL1        0.1206
     16 O           2.9664   -2.2842   -0.6037 O.3     1  UNL1       -0.4907
     17 C           4.2858   -2.2022   -0.2232 C.3     1  UNL1        0.1022
     18 C           5.0730   -1.0917   -0.8295 C.3     1  UNL1        0.0331
     19 N           6.4525   -1.0746   -0.3796 N.3     1  UNL1       -0.2991
     20 C           6.6145   -0.7333    1.0005 C.3     1  UNL1       -0.0010
     21 C           7.9318   -0.0109    1.1386 C.3     1  UNL1       -0.0390
     22 C           8.4548    0.1833   -0.2648 C.3     1  UNL1       -0.0390
     23 C           7.2905   -0.1914   -1.1517 C.3     1  UNL1       -0.0010
     24 C           1.7410   -0.1943    0.0984 C.ar    1  UNL1       -0.0196
     25 C           0.5092    0.4224    0.0741 C.ar    1  UNL1       -0.0516
     26 C          -3.0754    0.1113   -0.8277 C.3     1  UNL1        0.0320
     27 C          -3.5540   -1.0627   -0.1003 C.ar    1  UNL1       -0.0396
     28 C          -4.0842   -2.1737   -0.7733 C.ar    1  UNL1       -0.0547
     29 C          -4.5689   -3.3452   -0.2295 C.ar    1  UNL1       -0.0199
     30 C          -4.5060   -3.3873    1.1456 C.ar    1  UNL1        0.1169
     31 O          -4.9842   -4.5539    1.7614 O.3     1  UNL1       -0.5068
     32 C          -4.0137   -2.3751    1.9123 C.ar    1  UNL1       -0.0199
     33 C          -3.5473   -1.2321    1.2723 C.ar    1  UNL1       -0.0547
     34 H          -5.1229    0.6924   -0.5390 H       1  UNL1        0.0354
     35 H          -5.2832    2.2134   -2.2840 H       1  UNL1        0.0236
     36 H          -4.0126    1.1116   -2.8490 H       1  UNL1        0.0236
     37 H          -3.5088    2.6868   -2.2012 H       1  UNL1        0.0236
     38 H          -5.7910    3.1573   -0.2321 H       1  UNL1        0.0658
     39 H          -6.7753    4.9431    1.6717 H       1  UNL1        0.2921
     40 H          -3.5517    5.0338    2.8238 H       1  UNL1        0.0655
     41 H          -1.7951    3.3218    2.6213 H       1  UNL1        0.0655
     42 H          -1.5914    1.5685   -1.0901 H       1  UNL1        0.0791
     43 H          -1.3504   -1.7926   -1.5166 H       1  UNL1        0.0623
     44 H           0.7111   -3.0057   -1.5603 H       1  UNL1        0.0654
     45 H           4.3103   -2.0791    0.9048 H       1  UNL1        0.0709
     46 H           4.7491   -3.2027   -0.3878 H       1  UNL1        0.0709
     47 H           5.0923   -1.2369   -1.9294 H       1  UNL1        0.0460
     48 H           4.6458   -0.1179   -0.6163 H       1  UNL1        0.0460
     49 H           5.8037   -0.0098    1.2823 H       1  UNL1        0.0427
     50 H           6.5070   -1.5906    1.6921 H       1  UNL1        0.0427
     51 H           8.6560   -0.5853    1.7859 H       1  UNL1        0.0278
     52 H           7.8336    0.9840    1.6165 H       1  UNL1        0.0278
     53 H           8.7693    1.2298   -0.4544 H       1  UNL1        0.0278
     54 H           9.3626   -0.4532   -0.4632 H       1  UNL1        0.0278
     55 H           7.5959   -0.6121   -2.1249 H       1  UNL1        0.0427
     56 H           6.6877    0.7240   -1.3481 H       1  UNL1        0.0427
     57 H           2.6410    0.1893    0.5358 H       1  UNL1        0.0654
     58 H           0.5574    1.3981    0.5673 H       1  UNL1        0.0623
     59 H          -3.0217   -0.1669   -1.9040 H       1  UNL1        0.0394
     60 H          -4.1087   -2.0812   -1.8686 H       1  UNL1        0.0622
     61 H          -4.9438   -4.1056   -0.8902 H       1  UNL1        0.0654
     62 H          -6.0012   -4.6706    1.8070 H       1  UNL1        0.2921
     63 H          -3.9744   -2.4312    2.9874 H       1  UNL1        0.0654
     64 H          -3.1664   -0.4551    1.8858 H       1  UNL1        0.0622
@<TRIPOS>BOND
     1     1     2    1
     2     1     3    1
     3     3     4   ar
     4     4     5   ar
     5     5     6    1
     6     5     7   ar
     7     7     8   ar
     8     8     9   ar
     9     9    10    1
    10    10    11    1
    11    11    12    1
    12    12    13   ar
    13    13    14   ar
    14    14    15   ar
    15    15    16    1
    16    16    17    1
    17    17    18    1
    18    18    19    1
    19    19    20    1
    20    20    21    1
    21    21    22    1
    22    22    23    1
    23    15    24   ar
    24    24    25   ar
    25    11    26    1
    26    26    27    1
    27    27    28   ar
    28    28    29   ar
    29    29    30   ar
    30    30    31    1
    31    30    32   ar
    32    32    33   ar
    33    26     1    1
    34    33    27   ar
    35     9     3   ar
    36    25    12   ar
    37    23    19    1
    38     1    34    1
    39     2    35    1
    40     2    36    1
    41     2    37    1
    42     4    38    1
    43     6    39    1
    44     7    40    1
    45     8    41    1
    46    11    42    1
    47    13    43    1
    48    14    44    1
    49    17    45    1
    50    17    46    1
    51    18    47    1
    52    18    48    1
    53    20    49    1
    54    20    50    1
    55    21    51    1
    56    21    52    1
    57    22    53    1
    58    22    54    1
    59    23    55    1
    60    23    56    1
    61    24    57    1
    62    25    58    1
    63    26    59    1
    64    28    60    1
    65    29    61    1
    66    31    62    1
    67    32    63    1
    68    33    64    1
