@<TRIPOS>MOLECULE
*****
 38 40 0 0 0
SMALL
GASTEIGER

@<TRIPOS>ATOM
      1 C          -5.1626    1.1890    0.7042 C.3     1  UNL1       -0.0495
      2 C          -4.1879    1.3289   -0.4289 C.3     1  UNL1        0.0088
      3 N          -2.8317    1.1234    0.0473 N.am    1  UNL1       -0.3134
      4 C          -2.6557   -0.1560    0.6091 C.2     1  UNL1        0.2447
      5 O          -3.6094   -0.9905    0.6673 O.2     1  UNL1       -0.2729
      6 C          -1.4842   -0.8489    1.2245 C.3     1  UNL1        0.1650
      7 O          -0.4030    0.0166    1.1424 O.3     1  UNL1       -0.3387
      8 C           0.0987   -0.2300   -0.1267 C.3     1  UNL1        0.1672
      9 C           0.2499   -1.7361   -0.0832 C.3     1  UNL1        0.1290
     10 O           0.4254   -2.2528   -1.3541 O.3     1  UNL1       -0.3846
     11 C          -1.1513   -2.0910    0.4405 C.3     1  UNL1        0.1199
     12 O          -1.1555   -3.2352    1.2062 O.3     1  UNL1       -0.3860
     13 N           1.3334    0.4668   -0.3845 N.ar    1  UNL1       -0.2855
     14 C           1.3894    1.6947   -0.9297 C.ar    1  UNL1        0.1004
     15 N           2.6760    2.0661   -1.0402 N.ar    1  UNL1       -0.2306
     16 C           3.4849    1.0984   -0.5739 C.ar    1  UNL1        0.1473
     17 C           2.6062    0.1079   -0.1698 C.ar    1  UNL1        0.1674
     18 N           3.1161   -1.0192    0.3547 N.ar    1  UNL1       -0.2159
     19 C           4.4553   -1.1356    0.4641 C.ar    1  UNL1        0.1205
     20 N           5.3221   -0.1694    0.0704 N.ar    1  UNL1       -0.2188
     21 C           4.8561    0.9877   -0.4657 C.ar    1  UNL1        0.1472
     22 N           5.6735    2.0645   -0.9109 N.pl3   1  UNL1       -0.3413
     23 H          -5.6269    0.1907    0.7144 H       1  UNL1        0.0245
     24 H          -5.9132    2.0085    0.6687 H       1  UNL1        0.0245
     25 H          -4.5924    1.3129    1.6675 H       1  UNL1        0.0245
     26 H          -4.2410    2.3301   -0.8660 H       1  UNL1        0.0459
     27 H          -4.3607    0.5410   -1.1997 H       1  UNL1        0.0459
     28 H          -1.9470    1.6639    0.0916 H       1  UNL1        0.1487
     29 H          -1.7325   -1.0937    2.2874 H       1  UNL1        0.0721
     30 H          -0.5973   -0.0009   -0.9334 H       1  UNL1        0.0867
     31 H           0.9673   -2.0922    0.6561 H       1  UNL1        0.0666
     32 H           0.1118   -3.1967   -1.3254 H       1  UNL1        0.2101
     33 H          -1.8295   -2.1683   -0.4221 H       1  UNL1        0.0652
     34 H          -0.7161   -3.0789    2.0755 H       1  UNL1        0.2100
     35 H           0.6009    2.3410   -1.2518 H       1  UNL1        0.1030
     36 H           4.9950   -1.9869    0.8669 H       1  UNL1        0.1048
     37 H           6.1614    2.2802   -1.7920 H       1  UNL1        0.1438
     38 H           5.6747    2.6699   -0.0413 H       1  UNL1        0.1438
@<TRIPOS>BOND
     1     1     2    1
     2     2     3    1
     3     3     4   am
     4     4     5    2
     5     4     6    1
     6     6     7    1
     7     7     8    1
     8     8     9    1
     9     9    10    1
    10     9    11    1
    11    11    12    1
    12     8    13    1
    13    13    14   ar
    14    14    15   ar
    15    15    16   ar
    16    16    17   ar
    17    17    18   ar
    18    18    19   ar
    19    19    20   ar
    20    20    21   ar
    21    21    22    1
    22    11     6    1
    23    17    13   ar
    24    21    16   ar
    25     1    23    1
    26     1    24    1
    27     1    25    1
    28     2    26    1
    29     2    27    1
    30     3    28    1
    31     6    29    1
    32     8    30    1
    33     9    31    1
    34    10    32    1
    35    11    33    1
    36    12    34    1
    37    14    35    1
    38    19    36    1
    39    22    37    1
    40    22    38    1
