
     RDKit          3D

 38 40  0  0  0  0  0  0  0  0999 V2000
   -5.1626    1.1890    0.7042 C   0  0  0  0  0  0  0  0  0  0  0  0
   -4.1879    1.3289   -0.4289 C   0  0  0  0  0  0  0  0  0  0  0  0
   -2.8317    1.1234    0.0473 N   0  0  0  0  0  0  0  0  0  0  0  0
   -2.6557   -0.1560    0.6091 C   0  0  0  0  0  0  0  0  0  0  0  0
   -3.6094   -0.9905    0.6673 O   0  0  0  0  0  0  0  0  0  0  0  0
   -1.4842   -0.8489    1.2245 C   0  0  2  0  0  0  0  0  0  0  0  0
   -0.4030    0.0166    1.1424 O   0  0  0  0  0  0  0  0  0  0  0  0
    0.0987   -0.2300   -0.1267 C   0  0  2  0  0  0  0  0  0  0  0  0
    0.2499   -1.7361   -0.0832 C   0  0  2  0  0  0  0  0  0  0  0  0
    0.4254   -2.2528   -1.3541 O   0  0  0  0  0  0  0  0  0  0  0  0
   -1.1513   -2.0910    0.4405 C   0  0  1  0  0  0  0  0  0  0  0  0
   -1.1555   -3.2352    1.2062 O   0  0  0  0  0  0  0  0  0  0  0  0
    1.3334    0.4668   -0.3845 N   0  0  0  0  0  0  0  0  0  0  0  0
    1.3894    1.6947   -0.9297 C   0  0  0  0  0  0  0  0  0  0  0  0
    2.6760    2.0661   -1.0402 N   0  0  0  0  0  0  0  0  0  0  0  0
    3.4849    1.0984   -0.5739 C   0  0  0  0  0  0  0  0  0  0  0  0
    2.6062    0.1079   -0.1698 C   0  0  0  0  0  0  0  0  0  0  0  0
    3.1161   -1.0192    0.3547 N   0  0  0  0  0  0  0  0  0  0  0  0
    4.4553   -1.1356    0.4641 C   0  0  0  0  0  0  0  0  0  0  0  0
    5.3221   -0.1694    0.0704 N   0  0  0  0  0  0  0  0  0  0  0  0
    4.8561    0.9877   -0.4657 C   0  0  0  0  0  0  0  0  0  0  0  0
    5.6735    2.0645   -0.9109 N   0  0  0  0  0  0  0  0  0  0  0  0
   -5.6269    0.1907    0.7144 H   0  0  0  0  0  0  0  0  0  0  0  0
   -5.9132    2.0085    0.6687 H   0  0  0  0  0  0  0  0  0  0  0  0
   -4.5924    1.3129    1.6675 H   0  0  0  0  0  0  0  0  0  0  0  0
   -4.2410    2.3301   -0.8660 H   0  0  0  0  0  0  0  0  0  0  0  0
   -4.3607    0.5410   -1.1997 H   0  0  0  0  0  0  0  0  0  0  0  0
   -1.9470    1.6639    0.0916 H   0  0  0  0  0  0  0  0  0  0  0  0
   -1.7325   -1.0937    2.2874 H   0  0  0  0  0  0  0  0  0  0  0  0
   -0.5973   -0.0009   -0.9334 H   0  0  0  0  0  0  0  0  0  0  0  0
    0.9673   -2.0922    0.6561 H   0  0  0  0  0  0  0  0  0  0  0  0
    0.1118   -3.1967   -1.3254 H   0  0  0  0  0  0  0  0  0  0  0  0
   -1.8295   -2.1683   -0.4221 H   0  0  0  0  0  0  0  0  0  0  0  0
   -0.7161   -3.0789    2.0755 H   0  0  0  0  0  0  0  0  0  0  0  0
    0.6009    2.3410   -1.2518 H   0  0  0  0  0  0  0  0  0  0  0  0
    4.9950   -1.9869    0.8669 H   0  0  0  0  0  0  0  0  0  0  0  0
    6.1614    2.2802   -1.7920 H   0  0  0  0  0  0  0  0  0  0  0  0
    5.6747    2.6699   -0.0413 H   0  0  0  0  0  0  0  0  0  0  0  0
  1  2  1  0
  2  3  1  0
  3  4  1  0
  4  5  2  0
  4  6  1  0
  6  7  1  0
  7  8  1  0
  8  9  1  0
  9 10  1  0
  9 11  1  0
 11 12  1  0
  8 13  1  0
 13 14  1  0
 14 15  2  0
 15 16  1  0
 16 17  2  0
 17 18  1  0
 18 19  2  0
 19 20  1  0
 20 21  2  0
 21 22  1  0
 11  6  1  0
 17 13  1  0
 21 16  1  0
  1 23  1  0
  1 24  1  0
  1 25  1  0
  2 26  1  0
  2 27  1  0
  3 28  1  0
  6 29  1  1
  8 30  1  6
  9 31  1  1
 10 32  1  0
 11 33  1  6
 12 34  1  0
 14 35  1  0
 19 36  1  0
 22 37  1  0
 22 38  1  0
M  END
$$$$
