
     RDKit          3D

 64 66  0  0  0  0  0  0  0  0999 V2000
   -5.1263    3.9191   -0.6239 C   0  0  0  0  0  0  0  0  0  0  0  0
   -4.2792    2.6669   -0.3322 C   0  0  0  0  0  0  0  0  0  0  0  0
   -4.9922    1.8268    0.6724 C   0  0  0  0  0  0  0  0  0  0  0  0
   -4.2015    0.3704    1.1977 S   0  0  0  0  0  6  0  0  0  0  0  0
   -5.0956   -0.3083    2.2223 O   0  0  0  0  0  0  0  0  0  0  0  0
   -2.9225    0.6919    1.9817 O   0  0  0  0  0  0  0  0  0  0  0  0
   -3.8525   -0.7851   -0.0135 N   0  0  0  0  0  0  0  0  0  0  0  0
   -2.9653   -0.2520   -0.9619 C   0  0  0  0  0  0  0  0  0  0  0  0
   -1.8870   -1.1876   -1.4634 C   0  0  0  0  0  0  0  0  0  0  0  0
   -1.2527   -1.8305   -0.3958 N   0  0  0  0  0  0  0  0  0  0  0  0
    0.1473   -1.5820   -0.2213 C   0  0  0  0  0  0  0  0  0  0  0  0
    0.3022   -0.1509    0.1466 C   0  0  0  0  0  0  0  0  0  0  0  0
    1.5610    0.4189    0.3953 N   0  0  0  0  0  0  0  0  0  0  0  0
    2.6110    0.6730   -0.4966 C   0  0  0  0  0  0  0  0  0  0  0  0
    2.5581    0.4313   -1.7249 O   0  0  0  0  0  0  0  0  0  0  0  0
    3.8774    1.2620   -0.0009 C   0  0  0  0  0  0  0  0  0  0  0  0
    4.6798    0.6036    0.9060 C   0  0  0  0  0  0  0  0  0  0  0  0
    5.8607    1.1761    1.3540 C   0  0  0  0  0  0  0  0  0  0  0  0
    6.2307    2.4205    0.8819 C   0  0  0  0  0  0  0  0  0  0  0  0
    5.4329    3.1000   -0.0341 C   0  0  0  0  0  0  0  0  0  0  0  0
    5.8255    4.4554   -0.5552 C   0  0  0  0  0  0  0  0  0  0  0  0
    7.0248    4.8344    0.0157 F   0  0  0  0  0  0  0  0  0  0  0  0
    4.8557    5.3755   -0.1604 F   0  0  0  0  0  0  0  0  0  0  0  0
    5.9813    4.4203   -1.9091 F   0  0  0  0  0  0  0  0  0  0  0  0
    4.2782    2.5093   -0.4545 C   0  0  0  0  0  0  0  0  0  0  0  0
    3.2472    3.3408   -1.6114 Cl  0  0  0  0  0  0  0  0  0  0  0  0
    0.8905   -1.9383   -1.4755 C   0  0  0  0  0  0  0  0  0  0  0  0
    0.5446   -3.3921   -1.8734 C   0  0  0  0  0  0  0  0  0  0  0  0
    0.7792   -4.2957   -0.6828 C   0  0  0  0  0  0  0  0  0  0  0  0
    1.5179   -3.6123    0.4147 C   0  0  0  0  0  0  0  0  0  0  0  0
    0.6786   -2.4521    0.9210 C   0  0  0  0  0  0  0  0  0  0  0  0
   -2.0209   -2.2867    0.6723 C   0  0  0  0  0  0  0  0  0  0  0  0
   -3.5068   -2.0415    0.5596 C   0  0  0  0  0  0  0  0  0  0  0  0
   -4.4787    4.7406   -0.9249 H   0  0  0  0  0  0  0  0  0  0  0  0
   -5.6355    4.1648    0.3189 H   0  0  0  0  0  0  0  0  0  0  0  0
   -5.9095    3.6528   -1.3616 H   0  0  0  0  0  0  0  0  0  0  0  0
   -4.2558    2.1218   -1.3008 H   0  0  0  0  0  0  0  0  0  0  0  0
   -3.2895    2.9990   -0.0249 H   0  0  0  0  0  0  0  0  0  0  0  0
   -6.0357    1.5764    0.3585 H   0  0  0  0  0  0  0  0  0  0  0  0
   -5.1583    2.4957    1.5736 H   0  0  0  0  0  0  0  0  0  0  0  0
   -3.5866   -0.0308   -1.8893 H   0  0  0  0  0  0  0  0  0  0  0  0
   -2.4965    0.7090   -0.6900 H   0  0  0  0  0  0  0  0  0  0  0  0
   -1.1916   -0.5586   -2.0470 H   0  0  0  0  0  0  0  0  0  0  0  0
   -2.3363   -1.9765   -2.1398 H   0  0  0  0  0  0  0  0  0  0  0  0
   -0.4281    0.0468    1.0003 H   0  0  0  0  0  0  0  0  0  0  0  0
   -0.1685    0.4976   -0.6691 H   0  0  0  0  0  0  0  0  0  0  0  0
    1.7639    0.7057    1.4085 H   0  0  0  0  0  0  0  0  0  0  0  0
    4.3705   -0.3795    1.2681 H   0  0  0  0  0  0  0  0  0  0  0  0
    6.5139    0.6791    2.0698 H   0  0  0  0  0  0  0  0  0  0  0  0
    7.1464    2.9093    1.2036 H   0  0  0  0  0  0  0  0  0  0  0  0
    1.9829   -1.9813   -1.3312 H   0  0  0  0  0  0  0  0  0  0  0  0
    0.6401   -1.3245   -2.3296 H   0  0  0  0  0  0  0  0  0  0  0  0
   -0.4574   -3.4338   -2.2934 H   0  0  0  0  0  0  0  0  0  0  0  0
    1.2749   -3.6621   -2.6527 H   0  0  0  0  0  0  0  0  0  0  0  0
   -0.2054   -4.6221   -0.3102 H   0  0  0  0  0  0  0  0  0  0  0  0
    1.3259   -5.2182   -0.9634 H   0  0  0  0  0  0  0  0  0  0  0  0
    2.5417   -3.3045    0.1448 H   0  0  0  0  0  0  0  0  0  0  0  0
    1.6130   -4.3185    1.2674 H   0  0  0  0  0  0  0  0  0  0  0  0
   -0.1231   -2.9068    1.5063 H   0  0  0  0  0  0  0  0  0  0  0  0
    1.3427   -1.8368    1.5763 H   0  0  0  0  0  0  0  0  0  0  0  0
   -1.7177   -1.7780    1.6094 H   0  0  0  0  0  0  0  0  0  0  0  0
   -1.8677   -3.3747    0.8252 H   0  0  0  0  0  0  0  0  0  0  0  0
   -3.9448   -2.8399   -0.0760 H   0  0  0  0  0  0  0  0  0  0  0  0
   -4.0115   -2.1329    1.5443 H   0  0  0  0  0  0  0  0  0  0  0  0
  1  2  1  0
  2  3  1  0
  3  4  1  0
  4  5  2  0
  4  6  2  0
  4  7  1  0
  7  8  1  0
  8  9  1  0
  9 10  1  0
 10 11  1  0
 11 12  1  0
 12 13  1  0
 13 14  1  0
 14 15  2  0
 14 16  1  0
 16 17  2  0
 17 18  1  0
 18 19  2  0
 19 20  1  0
 20 21  1  0
 21 22  1  0
 21 23  1  0
 21 24  1  0
 20 25  2  0
 25 26  1  0
 11 27  1  0
 27 28  1  0
 28 29  1  0
 29 30  1  0
 30 31  1  0
 10 32  1  0
 32 33  1  0
 33  7  1  0
 31 11  1  0
 25 16  1  0
  1 34  1  0
  1 35  1  0
  1 36  1  0
  2 37  1  0
  2 38  1  0
  3 39  1  0
  3 40  1  0
  8 41  1  0
  8 42  1  0
  9 43  1  0
  9 44  1  0
 12 45  1  0
 12 46  1  0
 13 47  1  0
 17 48  1  0
 18 49  1  0
 19 50  1  0
 27 51  1  0
 27 52  1  0
 28 53  1  0
 28 54  1  0
 29 55  1  0
 29 56  1  0
 30 57  1  0
 30 58  1  0
 31 59  1  0
 31 60  1  0
 32 61  1  0
 32 62  1  0
 33 63  1  0
 33 64  1  0
M  END
$$$$
