@<TRIPOS>MOLECULE
*****
 64 66 0 0 0
SMALL
GASTEIGER

@<TRIPOS>ATOM
      1 C          -5.1263    3.9191   -0.6239 C.3     1  UNL1       -0.0638
      2 C          -4.2792    2.6669   -0.3322 C.3     1  UNL1       -0.0350
      3 C          -4.9922    1.8268    0.6724 C.3     1  UNL1        0.0817
      4 S          -4.2015    0.3704    1.1977 S.O2    1  UNL1        0.0319
      5 O          -5.0956   -0.3083    2.2223 O.2     1  UNL1       -0.1580
      6 O          -2.9225    0.6919    1.9817 O.2     1  UNL1       -0.1580
      7 N          -3.8525   -0.7851   -0.0135 N.3     1  UNL1       -0.1787
      8 C          -2.9653   -0.2520   -0.9619 C.3     1  UNL1        0.0329
      9 C          -1.8870   -1.1876   -1.4634 C.3     1  UNL1        0.0139
     10 N          -1.2527   -1.8305   -0.3958 N.3     1  UNL1       -0.2927
     11 C           0.1473   -1.5820   -0.2213 C.3     1  UNL1        0.0375
     12 C           0.3022   -0.1509    0.1466 C.3     1  UNL1        0.0304
     13 N           1.5610    0.4189    0.3953 N.am    1  UNL1       -0.3095
     14 C           2.6110    0.6730   -0.4966 C.2     1  UNL1        0.2456
     15 O           2.5581    0.4313   -1.7249 O.2     1  UNL1       -0.2702
     16 C           3.8774    1.2620   -0.0009 C.ar    1  UNL1        0.0555
     17 C           4.6798    0.6036    0.9060 C.ar    1  UNL1       -0.0482
     18 C           5.8607    1.1761    1.3540 C.ar    1  UNL1       -0.0604
     19 C           6.2307    2.4205    0.8819 C.ar    1  UNL1       -0.0487
     20 C           5.4329    3.1000   -0.0341 C.ar    1  UNL1        0.0738
     21 C           5.8255    4.4554   -0.5552 C.3     1  UNL1        0.4188
     22 F           7.0248    4.8344    0.0157 F       1  UNL1       -0.1658
     23 F           4.8557    5.3755   -0.1604 F       1  UNL1       -0.1658
     24 F           5.9813    4.4203   -1.9091 F       1  UNL1       -0.1658
     25 C           4.2782    2.5093   -0.4545 C.ar    1  UNL1        0.0647
     26 CL          3.2472    3.3408   -1.6114 Cl      1  UNL1       -0.0822
     27 C           0.8905   -1.9383   -1.4755 C.3     1  UNL1       -0.0330
     28 C           0.5446   -3.3921   -1.8734 C.3     1  UNL1       -0.0513
     29 C           0.7792   -4.2957   -0.6828 C.3     1  UNL1       -0.0529
     30 C           1.5179   -3.6123    0.4147 C.3     1  UNL1       -0.0513
     31 C           0.6786   -2.4521    0.9210 C.3     1  UNL1       -0.0330
     32 C          -2.0209   -2.2867    0.6723 C.3     1  UNL1        0.0139
     33 C          -3.5068   -2.0415    0.5596 C.3     1  UNL1        0.0329
     34 H          -4.4787    4.7406   -0.9249 H       1  UNL1        0.0230
     35 H          -5.6355    4.1648    0.3189 H       1  UNL1        0.0230
     36 H          -5.9095    3.6528   -1.3616 H       1  UNL1        0.0230
     37 H          -4.2558    2.1218   -1.3008 H       1  UNL1        0.0279
     38 H          -3.2895    2.9990   -0.0249 H       1  UNL1        0.0279
     39 H          -6.0357    1.5764    0.3585 H       1  UNL1        0.0515
     40 H          -5.1583    2.4957    1.5736 H       1  UNL1        0.0515
     41 H          -3.5866   -0.0308   -1.8893 H       1  UNL1        0.0456
     42 H          -2.4965    0.7090   -0.6900 H       1  UNL1        0.0456
     43 H          -1.1916   -0.5586   -2.0470 H       1  UNL1        0.0440
     44 H          -2.3363   -1.9765   -2.1398 H       1  UNL1        0.0440
     45 H          -0.4281    0.0468    1.0003 H       1  UNL1        0.0480
     46 H          -0.1685    0.4976   -0.6691 H       1  UNL1        0.0480
     47 H           1.7639    0.7057    1.4085 H       1  UNL1        0.1491
     48 H           4.3705   -0.3795    1.2681 H       1  UNL1        0.0625
     49 H           6.5139    0.6791    2.0698 H       1  UNL1        0.0618
     50 H           7.1464    2.9093    1.2036 H       1  UNL1        0.0623
     51 H           1.9829   -1.9813   -1.3312 H       1  UNL1        0.0284
     52 H           0.6401   -1.3245   -2.3296 H       1  UNL1        0.0284
     53 H          -0.4574   -3.4338   -2.2934 H       1  UNL1        0.0266
     54 H           1.2749   -3.6621   -2.6527 H       1  UNL1        0.0266
     55 H          -0.2054   -4.6221   -0.3102 H       1  UNL1        0.0265
     56 H           1.3259   -5.2182   -0.9634 H       1  UNL1        0.0265
     57 H           2.5417   -3.3045    0.1448 H       1  UNL1        0.0266
     58 H           1.6130   -4.3185    1.2674 H       1  UNL1        0.0266
     59 H          -0.1231   -2.9068    1.5063 H       1  UNL1        0.0284
     60 H           1.3427   -1.8368    1.5763 H       1  UNL1        0.0284
     61 H          -1.7177   -1.7780    1.6094 H       1  UNL1        0.0440
     62 H          -1.8677   -3.3747    0.8252 H       1  UNL1        0.0440
     63 H          -3.9448   -2.8399   -0.0760 H       1  UNL1        0.0456
     64 H          -4.0115   -2.1329    1.5443 H       1  UNL1        0.0456
@<TRIPOS>BOND
     1     1     2    1
     2     2     3    1
     3     3     4    1
     4     4     5    2
     5     4     6    2
     6     4     7    1
     7     7     8    1
     8     8     9    1
     9     9    10    1
    10    10    11    1
    11    11    12    1
    12    12    13    1
    13    13    14   am
    14    14    15    2
    15    14    16    1
    16    16    17   ar
    17    17    18   ar
    18    18    19   ar
    19    19    20   ar
    20    20    21    1
    21    21    22    1
    22    21    23    1
    23    21    24    1
    24    20    25   ar
    25    25    26    1
    26    11    27    1
    27    27    28    1
    28    28    29    1
    29    29    30    1
    30    30    31    1
    31    10    32    1
    32    32    33    1
    33    33     7    1
    34    31    11    1
    35    25    16   ar
    36     1    34    1
    37     1    35    1
    38     1    36    1
    39     2    37    1
    40     2    38    1
    41     3    39    1
    42     3    40    1
    43     8    41    1
    44     8    42    1
    45     9    43    1
    46     9    44    1
    47    12    45    1
    48    12    46    1
    49    13    47    1
    50    17    48    1
    51    18    49    1
    52    19    50    1
    53    27    51    1
    54    27    52    1
    55    28    53    1
    56    28    54    1
    57    29    55    1
    58    29    56    1
    59    30    57    1
    60    30    58    1
    61    31    59    1
    62    31    60    1
    63    32    61    1
    64    32    62    1
    65    33    63    1
    66    33    64    1
