@<TRIPOS>MOLECULE
*****
 64 69 0 0 0
SMALL
GASTEIGER

@<TRIPOS>ATOM
      1 C           8.6210    1.5915   -0.4139 C.3     1  UNL1        0.0371
      2 O           8.1423    0.7049    0.5273 O.3     1  UNL1       -0.3738
      3 C           6.8820    0.2217    0.3142 C.3     1  UNL1        0.1235
      4 C           5.7959    1.2113    0.2982 C.2     1  UNL1        0.2414
      5 O           5.9759    2.4412    0.4947 O.2     1  UNL1       -0.2731
      6 N           4.4742    0.7491    0.0469 N.am    1  UNL1       -0.2955
      7 C           3.1977    1.4344   -0.0384 C.3     1  UNL1        0.0371
      8 C           2.5285    0.1090   -0.2045 C.3     1  UNL1        0.0657
      9 N           1.6771   -0.2249    0.9174 N.ar    1  UNL1       -0.3417
     10 C           2.0816   -0.6099    2.1380 C.ar    1  UNL1        0.0090
     11 C           0.9748   -0.8354    2.9252 C.ar    1  UNL1       -0.0205
     12 C           0.9309   -1.2804    4.3630 C.3     1  UNL1       -0.0376
     13 C          -0.1238   -0.5647    2.1119 C.ar    1  UNL1        0.0630
     14 C           0.3326   -0.1938    0.8886 C.ar    1  UNL1        0.0570
     15 C          -0.8361    0.0943   -0.0212 C.3     1  UNL1        0.0973
     16 C          -0.7670   -0.8563   -1.1489 C.ar    1  UNL1       -0.0208
     17 C          -0.5454   -0.4152   -2.4286 C.ar    1  UNL1       -0.0550
     18 C          -0.4724   -1.3356   -3.4801 C.ar    1  UNL1       -0.0431
     19 C          -0.6252   -2.6808   -3.2132 C.ar    1  UNL1        0.0410
     20 CL         -0.5431   -3.8901   -4.4988 Cl      1  UNL1       -0.0835
     21 C          -0.8474   -3.1420   -1.9411 C.ar    1  UNL1       -0.0431
     22 C          -0.9135   -2.1968   -0.9230 C.ar    1  UNL1       -0.0550
     23 N          -1.9758   -0.1150    0.8357 N.am    1  UNL1       -0.2530
     24 C          -3.3210    0.0926    0.4444 C.ar    1  UNL1        0.0545
     25 C          -4.0780   -0.9345   -0.0534 C.ar    1  UNL1       -0.0324
     26 C          -5.3901   -0.7729   -0.4505 C.ar    1  UNL1       -0.0041
     27 C          -6.1569   -1.9231   -0.9813 C.3     1  UNL1       -0.0361
     28 C          -5.9421    0.4829   -0.3324 C.ar    1  UNL1        0.1641
     29 N          -7.1636    0.9821   -0.6183 N.ar    1  UNL1       -0.1292
     30 N          -7.1693    2.2667   -0.3118 N.ar    1  UNL1       -0.1340
     31 C          -5.9733    2.6386    0.1747 C.ar    1  UNL1        0.1347
     32 C          -5.5707    3.9989    0.6350 C.3     1  UNL1       -0.0041
     33 N          -5.2221    1.5211    0.1559 N.ar    1  UNL1       -0.2846
     34 C          -3.9429    1.3358    0.5363 C.ar    1  UNL1        0.0344
     35 C          -1.5874   -0.5355    2.1397 C.2     1  UNL1        0.2538
     36 O          -2.3140   -0.8275    3.1273 O.2     1  UNL1       -0.2695
     37 C           3.8655   -0.5528   -0.2204 C.3     1  UNL1        0.0371
     38 H           8.6302    1.0688   -1.4168 H       1  UNL1        0.0524
     39 H           8.0454    2.5084   -0.4680 H       1  UNL1        0.0524
     40 H           9.6874    1.8237   -0.1749 H       1  UNL1        0.0524
     41 H           6.7857   -0.3749   -0.6206 H       1  UNL1        0.0656
     42 H           6.6805   -0.5133    1.1453 H       1  UNL1        0.0656
     43 H           3.1866    2.1015   -0.9233 H       1  UNL1        0.0485
     44 H           2.9134    1.9908    0.8780 H       1  UNL1        0.0485
     45 H           2.0359    0.0493   -1.1945 H       1  UNL1        0.0559
     46 H           3.1129   -0.7384    2.4973 H       1  UNL1        0.0812
     47 H          -0.0911   -1.1319    4.7345 H       1  UNL1        0.0278
     48 H           1.0981   -2.3962    4.3571 H       1  UNL1        0.0278
     49 H           1.6559   -0.7524    4.9824 H       1  UNL1        0.0278
     50 H          -0.7431    1.1506   -0.3513 H       1  UNL1        0.0619
     51 H          -0.4227    0.6373   -2.6592 H       1  UNL1        0.0621
     52 H          -0.3010   -1.0445   -4.4987 H       1  UNL1        0.0632
     53 H          -0.9702   -4.2072   -1.7174 H       1  UNL1        0.0632
     54 H          -1.0890   -2.5769    0.0720 H       1  UNL1        0.0621
     55 H          -3.6516   -1.9177   -0.1430 H       1  UNL1        0.0640
     56 H          -5.8990   -2.1113   -2.0281 H       1  UNL1        0.0279
     57 H          -7.2414   -1.7593   -0.8161 H       1  UNL1        0.0279
     58 H          -5.8194   -2.8310   -0.4027 H       1  UNL1        0.0279
     59 H          -4.9593    4.4939   -0.1534 H       1  UNL1        0.0308
     60 H          -5.0560    3.9812    1.6126 H       1  UNL1        0.0308
     61 H          -6.4830    4.6145    0.7561 H       1  UNL1        0.0308
     62 H          -3.3927    2.1597    0.9168 H       1  UNL1        0.0833
     63 H           4.0662   -1.3292    0.5185 H       1  UNL1        0.0485
     64 H           4.2224   -0.8840   -1.2335 H       1  UNL1        0.0485
@<TRIPOS>BOND
     1     1     2    1
     2     2     3    1
     3     3     4    1
     4     4     5    2
     5     4     6   am
     6     6     7    1
     7     7     8    1
     8     8     9    1
     9     9    10   ar
    10    10    11   ar
    11    11    12    1
    12    11    13   ar
    13    13    14   ar
    14    14    15    1
    15    15    16    1
    16    16    17   ar
    17    17    18   ar
    18    18    19   ar
    19    19    20    1
    20    19    21   ar
    21    21    22   ar
    22    15    23    1
    23    23    24    1
    24    24    25   ar
    25    25    26   ar
    26    26    27    1
    27    26    28   ar
    28    28    29   ar
    29    29    30   ar
    30    30    31   ar
    31    31    32    1
    32    31    33   ar
    33    33    34   ar
    34    23    35   am
    35    35    36    2
    36     8    37    1
    37    37     6    1
    38    14     9   ar
    39    22    16   ar
    40    34    24   ar
    41    35    13    1
    42    33    28   ar
    43     1    38    1
    44     1    39    1
    45     1    40    1
    46     3    41    1
    47     3    42    1
    48     7    43    1
    49     7    44    1
    50     8    45    1
    51    10    46    1
    52    12    47    1
    53    12    48    1
    54    12    49    1
    55    15    50    1
    56    17    51    1
    57    18    52    1
    58    21    53    1
    59    22    54    1
    60    25    55    1
    61    27    56    1
    62    27    57    1
    63    27    58    1
    64    32    59    1
    65    32    60    1
    66    32    61    1
    67    34    62    1
    68    37    63    1
    69    37    64    1
