
     RDKit          3D

 76 81  0  0  0  0  0  0  0  0999 V2000
   -2.6950    7.8400    1.0254 C   0  0  0  0  0  0  0  0  0  0  0  0
   -1.9953    6.7519    0.4539 O   0  0  0  0  0  0  0  0  0  0  0  0
   -2.1910    5.4906    1.0216 C   0  0  0  0  0  0  0  0  0  0  0  0
   -1.5415    4.3726    0.5189 C   0  0  0  0  0  0  0  0  0  0  0  0
   -1.7250    3.1220    1.0684 C   0  0  0  0  0  0  0  0  0  0  0  0
   -1.0621    1.9676    0.5557 N   0  0  0  0  0  0  0  0  0  0  0  0
    0.2078    1.4760    0.9739 C   0  0  0  0  0  0  0  0  0  0  0  0
    0.7653    1.6568    2.0878 O   0  0  0  0  0  0  0  0  0  0  0  0
    0.7639    0.7159   -0.1207 N   0  0  0  0  0  0  0  0  0  0  0  0
    2.0216    0.0380   -0.1327 C   0  0  0  0  0  0  0  0  0  0  0  0
    2.1213   -1.2892    0.2549 C   0  0  0  0  0  0  0  0  0  0  0  0
    3.3467   -1.9227    0.2360 C   0  0  0  0  0  0  0  0  0  0  0  0
    4.4819   -1.2827   -0.1558 C   0  0  0  0  0  0  0  0  0  0  0  0
    5.7777   -1.9903   -0.1694 C   0  0  0  0  0  0  0  0  0  0  0  0
    5.8194   -3.3431   -0.4415 C   0  0  0  0  0  0  0  0  0  0  0  0
    7.0167   -4.0171   -0.4550 C   0  0  0  0  0  0  0  0  0  0  0  0
    8.2244   -3.3831   -0.2000 C   0  0  0  0  0  0  0  0  0  0  0  0
    9.4470   -4.1635   -0.2334 C   0  0  0  0  0  0  0  0  0  0  0  0
    9.4620   -5.3973   -0.4835 O   0  0  0  0  0  0  0  0  0  0  0  0
   10.6428   -3.5402    0.0169 O   0  0  0  0  0  0  0  0  0  0  0  0
    8.1943   -2.0372    0.0719 C   0  0  0  0  0  0  0  0  0  0  0  0
    9.4500   -1.3229    0.3502 C   0  0  0  0  0  0  0  0  0  0  0  0
    6.9717   -1.3556    0.0842 C   0  0  0  0  0  0  0  0  0  0  0  0
    4.4078    0.0349   -0.5446 C   0  0  0  0  0  0  0  0  0  0  0  0
    3.1856    0.6587   -0.5233 C   0  0  0  0  0  0  0  0  0  0  0  0
   -0.2034    0.7858   -1.1550 C   0  0  0  0  0  0  0  0  0  0  0  0
   -0.0125    0.6628   -2.3611 O   0  0  0  0  0  0  0  0  0  0  0  0
   -1.5050    1.0386   -0.4916 C   0  0  0  0  0  0  0  0  0  0  0  0
   -1.9245   -0.2834    0.1056 C   0  0  0  0  0  0  0  0  0  0  0  0
   -3.3552   -0.3634    0.4740 C   0  0  0  0  0  0  0  0  0  0  0  0
   -4.2720    0.1696   -0.4752 N   0  0  0  0  0  0  0  0  0  0  0  0
   -4.7240   -0.7746   -1.4625 C   0  0  0  0  0  0  0  0  0  0  0  0
   -5.3896   -1.9412   -0.8939 C   0  0  0  0  0  0  0  0  0  0  0  0
   -4.7459   -3.1155   -0.8354 N   0  0  0  0  0  0  0  0  0  0  0  0
   -5.3003   -4.2250   -0.3257 C   0  0  0  0  0  0  0  0  0  0  0  0
   -6.5828   -4.2117    0.1719 C   0  0  0  0  0  0  0  0  0  0  0  0
   -7.2866   -3.0282    0.1344 C   0  0  0  0  0  0  0  0  0  0  0  0
   -6.6760   -1.8883   -0.4052 C   0  0  0  0  0  0  0  0  0  0  0  0
   -7.4325   -0.6266   -0.4422 C   0  0  0  0  0  0  0  0  0  0  0  0
   -3.9311    1.4476   -1.0099 C   0  0  0  0  0  0  0  0  0  0  0  0
   -2.5094    1.6230   -1.4174 C   0  0  0  0  0  0  0  0  0  0  0  0
   -2.5532    2.9999    2.1120 N   0  0  0  0  0  0  0  0  0  0  0  0
   -3.1767    4.0842    2.5915 C   0  0  0  0  0  0  0  0  0  0  0  0
   -3.0099    5.3115    2.0685 N   0  0  0  0  0  0  0  0  0  0  0  0
   -2.3605    8.8115    0.6387 H   0  0  0  0  0  0  0  0  0  0  0  0
   -2.5676    7.7581    2.1307 H   0  0  0  0  0  0  0  0  0  0  0  0
   -3.7846    7.7580    0.8003 H   0  0  0  0  0  0  0  0  0  0  0  0
   -0.8779    4.4975   -0.3239 H   0  0  0  0  0  0  0  0  0  0  0  0
    1.2492   -1.8178    0.5669 H   0  0  0  0  0  0  0  0  0  0  0  0
    3.4539   -2.9690    0.5371 H   0  0  0  0  0  0  0  0  0  0  0  0
    4.8677   -3.8384   -0.6419 H   0  0  0  0  0  0  0  0  0  0  0  0
    7.0194   -5.0720   -0.6705 H   0  0  0  0  0  0  0  0  0  0  0  0
   11.5008   -3.9964    0.2527 H   0  0  0  0  0  0  0  0  0  0  0  0
    9.9406   -1.7136    1.2735 H   0  0  0  0  0  0  0  0  0  0  0  0
    9.1956   -0.2345    0.4982 H   0  0  0  0  0  0  0  0  0  0  0  0
   10.0856   -1.3508   -0.5371 H   0  0  0  0  0  0  0  0  0  0  0  0
    6.9495   -0.3070    0.2961 H   0  0  0  0  0  0  0  0  0  0  0  0
    5.3303    0.5180   -0.8510 H   0  0  0  0  0  0  0  0  0  0  0  0
    3.1172    1.7019   -0.8298 H   0  0  0  0  0  0  0  0  0  0  0  0
   -1.6297   -1.0763   -0.6080 H   0  0  0  0  0  0  0  0  0  0  0  0
   -1.2925   -0.4258    1.0167 H   0  0  0  0  0  0  0  0  0  0  0  0
   -3.6070   -1.4577    0.5997 H   0  0  0  0  0  0  0  0  0  0  0  0
   -3.5384    0.0870    1.4627 H   0  0  0  0  0  0  0  0  0  0  0  0
   -5.3943   -0.2198   -2.1586 H   0  0  0  0  0  0  0  0  0  0  0  0
   -3.8535   -1.0883   -2.0590 H   0  0  0  0  0  0  0  0  0  0  0  0
   -4.7783   -5.1750   -0.2788 H   0  0  0  0  0  0  0  0  0  0  0  0
   -7.0611   -5.0897    0.5909 H   0  0  0  0  0  0  0  0  0  0  0  0
   -8.2976   -2.9991    0.5218 H   0  0  0  0  0  0  0  0  0  0  0  0
   -8.4237   -0.7485    0.0351 H   0  0  0  0  0  0  0  0  0  0  0  0
   -6.8937    0.1302    0.1924 H   0  0  0  0  0  0  0  0  0  0  0  0
   -7.5687   -0.2354   -1.4616 H   0  0  0  0  0  0  0  0  0  0  0  0
   -4.5653    1.6359   -1.9026 H   0  0  0  0  0  0  0  0  0  0  0  0
   -4.1780    2.2177   -0.2436 H   0  0  0  0  0  0  0  0  0  0  0  0
   -2.3200    2.7343   -1.4919 H   0  0  0  0  0  0  0  0  0  0  0  0
   -2.3603    1.2051   -2.4474 H   0  0  0  0  0  0  0  0  0  0  0  0
   -3.8643    4.0143    3.4498 H   0  0  0  0  0  0  0  0  0  0  0  0
  1  2  1  0
  2  3  1  0
  3  4  2  0
  4  5  1  0
  5  6  1  0
  6  7  1  0
  7  8  2  0
  7  9  1  0
  9 10  1  0
 10 11  2  0
 11 12  1  0
 12 13  2  0
 13 14  1  0
 14 15  2  0
 15 16  1  0
 16 17  2  0
 17 18  1  0
 18 19  2  0
 18 20  1  0
 17 21  1  0
 21 22  1  0
 21 23  2  0
 13 24  1  0
 24 25  2  0
  9 26  1  0
 26 27  2  0
 26 28  1  0
 28 29  1  0
 29 30  1  0
 30 31  1  0
 31 32  1  0
 32 33  1  0
 33 34  2  0
 34 35  1  0
 35 36  2  0
 36 37  1  0
 37 38  2  0
 38 39  1  0
 31 40  1  0
 40 41  1  0
  5 42  2  0
 42 43  1  0
 43 44  2  0
 44  3  1  0
 28  6  1  0
 38 33  1  0
 25 10  1  0
 41 28  1  0
 23 14  1  0
  1 45  1  0
  1 46  1  0
  1 47  1  0
  4 48  1  0
 11 49  1  0
 12 50  1  0
 15 51  1  0
 16 52  1  0
 20 53  1  0
 22 54  1  0
 22 55  1  0
 22 56  1  0
 23 57  1  0
 24 58  1  0
 25 59  1  0
 29 60  1  0
 29 61  1  0
 30 62  1  0
 30 63  1  0
 32 64  1  0
 32 65  1  0
 35 66  1  0
 36 67  1  0
 37 68  1  0
 39 69  1  0
 39 70  1  0
 39 71  1  0
 40 72  1  0
 40 73  1  0
 41 74  1  0
 41 75  1  0
 43 76  1  0
M  END
$$$$
