@<TRIPOS>MOLECULE
*****
 76 81 0 0 0
SMALL
GASTEIGER

@<TRIPOS>ATOM
      1 C          -2.6950    7.8400    1.0254 C.3     1  UNL1        0.0804
      2 O          -1.9953    6.7519    0.4539 O.3     1  UNL1       -0.4795
      3 C          -2.1910    5.4906    1.0216 C.ar    1  UNL1        0.2191
      4 C          -1.5415    4.3726    0.5189 C.ar    1  UNL1        0.0404
      5 C          -1.7250    3.1220    1.0684 C.ar    1  UNL1        0.1364
      6 N          -1.0621    1.9676    0.5557 N.am    1  UNL1       -0.2240
      7 C           0.2078    1.4760    0.9739 C.2     1  UNL1        0.3219
      8 O           0.7653    1.6568    2.0878 O.2     1  UNL1       -0.2512
      9 N           0.7639    0.7159   -0.1207 N.am    1  UNL1       -0.1920
     10 C           2.0216    0.0380   -0.1327 C.ar    1  UNL1        0.0455
     11 C           2.1213   -1.2892    0.2549 C.ar    1  UNL1       -0.0392
     12 C           3.3467   -1.9227    0.2360 C.ar    1  UNL1       -0.0523
     13 C           4.4819   -1.2827   -0.1558 C.ar    1  UNL1       -0.0178
     14 C           5.7777   -1.9903   -0.1694 C.ar    1  UNL1       -0.0176
     15 C           5.8194   -3.3431   -0.4415 C.ar    1  UNL1       -0.0532
     16 C           7.0167   -4.0171   -0.4550 C.ar    1  UNL1       -0.0469
     17 C           8.2244   -3.3831   -0.2000 C.ar    1  UNL1        0.0618
     18 C           9.4470   -4.1635   -0.2334 C.2     1  UNL1        0.3371
     19 O           9.4620   -5.3973   -0.4835 O.2     1  UNL1       -0.2451
     20 O          10.6428   -3.5402    0.0169 O.3     1  UNL1       -0.4771
     21 C           8.1943   -2.0372    0.0719 C.ar    1  UNL1       -0.0359
     22 C           9.4500   -1.3229    0.3502 C.3     1  UNL1       -0.0389
     23 C           6.9717   -1.3556    0.0842 C.ar    1  UNL1       -0.0503
     24 C           4.4078    0.0349   -0.5446 C.ar    1  UNL1       -0.0523
     25 C           3.1856    0.6587   -0.5233 C.ar    1  UNL1       -0.0392
     26 C          -0.2034    0.7858   -1.1550 C.2     1  UNL1        0.2516
     27 O          -0.0125    0.6628   -2.3611 O.2     1  UNL1       -0.2724
     28 C          -1.5050    1.0386   -0.4916 C.3     1  UNL1        0.1240
     29 C          -1.9245   -0.2834    0.1056 C.3     1  UNL1       -0.0095
     30 C          -3.3552   -0.3634    0.4740 C.3     1  UNL1        0.0017
     31 N          -4.2720    0.1696   -0.4752 N.3     1  UNL1       -0.2965
     32 C          -4.7240   -0.7746   -1.4625 C.3     1  UNL1        0.0415
     33 C          -5.3896   -1.9412   -0.8939 C.ar    1  UNL1        0.0581
     34 N          -4.7459   -3.1155   -0.8354 N.ar    1  UNL1       -0.2583
     35 C          -5.3003   -4.2250   -0.3257 C.ar    1  UNL1        0.0279
     36 C          -6.5828   -4.2117    0.1719 C.ar    1  UNL1       -0.0433
     37 C          -7.2866   -3.0282    0.1344 C.ar    1  UNL1       -0.0557
     38 C          -6.6760   -1.8883   -0.4052 C.ar    1  UNL1       -0.0279
     39 C          -7.4325   -0.6266   -0.4422 C.3     1  UNL1       -0.0380
     40 C          -3.9311    1.4476   -1.0099 C.3     1  UNL1        0.0017
     41 C          -2.5094    1.6230   -1.4174 C.3     1  UNL1       -0.0095
     42 N          -2.5532    2.9999    2.1120 N.ar    1  UNL1       -0.2200
     43 C          -3.1767    4.0842    2.5915 C.ar    1  UNL1        0.1219
     44 N          -3.0099    5.3115    2.0685 N.ar    1  UNL1       -0.2013
     45 H          -2.3605    8.8115    0.6387 H       1  UNL1        0.0660
     46 H          -2.5676    7.7581    2.1307 H       1  UNL1        0.0660
     47 H          -3.7846    7.7580    0.8003 H       1  UNL1        0.0660
     48 H          -0.8779    4.4975   -0.3239 H       1  UNL1        0.0705
     49 H           1.2492   -1.8178    0.5669 H       1  UNL1        0.0636
     50 H           3.4539   -2.9690    0.5371 H       1  UNL1        0.0624
     51 H           4.8677   -3.8384   -0.6419 H       1  UNL1        0.0624
     52 H           7.0194   -5.0720   -0.6705 H       1  UNL1        0.0626
     53 H          11.5008   -3.9964    0.2527 H       1  UNL1        0.2954
     54 H           9.9406   -1.7136    1.2735 H       1  UNL1        0.0278
     55 H           9.1956   -0.2345    0.4982 H       1  UNL1        0.0278
     56 H          10.0856   -1.3508   -0.5371 H       1  UNL1        0.0278
     57 H           6.9495   -0.3070    0.2961 H       1  UNL1        0.0626
     58 H           5.3303    0.5180   -0.8510 H       1  UNL1        0.0624
     59 H           3.1172    1.7019   -0.8298 H       1  UNL1        0.0636
     60 H          -1.6297   -1.0763   -0.6080 H       1  UNL1        0.0303
     61 H          -1.2925   -0.4258    1.0167 H       1  UNL1        0.0303
     62 H          -3.6070   -1.4577    0.5997 H       1  UNL1        0.0427
     63 H          -3.5384    0.0870    1.4627 H       1  UNL1        0.0427
     64 H          -5.3943   -0.2198   -2.1586 H       1  UNL1        0.0491
     65 H          -3.8535   -1.0883   -2.0590 H       1  UNL1        0.0491
     66 H          -4.7783   -5.1750   -0.2788 H       1  UNL1        0.0829
     67 H          -7.0611   -5.0897    0.5909 H       1  UNL1        0.0633
     68 H          -8.2976   -2.9991    0.5218 H       1  UNL1        0.0621
     69 H          -8.4237   -0.7485    0.0351 H       1  UNL1        0.0278
     70 H          -6.8937    0.1302    0.1924 H       1  UNL1        0.0278
     71 H          -7.5687   -0.2354   -1.4616 H       1  UNL1        0.0278
     72 H          -4.5653    1.6359   -1.9026 H       1  UNL1        0.0427
     73 H          -4.1780    2.2177   -0.2436 H       1  UNL1        0.0427
     74 H          -2.3200    2.7343   -1.4919 H       1  UNL1        0.0303
     75 H          -2.3603    1.2051   -2.4474 H       1  UNL1        0.0303
     76 H          -3.8643    4.0143    3.4498 H       1  UNL1        0.1049
@<TRIPOS>BOND
     1     1     2    1
     2     2     3    1
     3     3     4   ar
     4     4     5   ar
     5     5     6    1
     6     6     7   am
     7     7     8    2
     8     7     9   am
     9     9    10    1
    10    10    11   ar
    11    11    12   ar
    12    12    13   ar
    13    13    14    1
    14    14    15   ar
    15    15    16   ar
    16    16    17   ar
    17    17    18    1
    18    18    19    2
    19    18    20    1
    20    17    21   ar
    21    21    22    1
    22    21    23   ar
    23    13    24   ar
    24    24    25   ar
    25     9    26   am
    26    26    27    2
    27    26    28    1
    28    28    29    1
    29    29    30    1
    30    30    31    1
    31    31    32    1
    32    32    33    1
    33    33    34   ar
    34    34    35   ar
    35    35    36   ar
    36    36    37   ar
    37    37    38   ar
    38    38    39    1
    39    31    40    1
    40    40    41    1
    41     5    42   ar
    42    42    43   ar
    43    43    44   ar
    44    44     3   ar
    45    28     6    1
    46    38    33   ar
    47    25    10   ar
    48    41    28    1
    49    23    14   ar
    50     1    45    1
    51     1    46    1
    52     1    47    1
    53     4    48    1
    54    11    49    1
    55    12    50    1
    56    15    51    1
    57    16    52    1
    58    20    53    1
    59    22    54    1
    60    22    55    1
    61    22    56    1
    62    23    57    1
    63    24    58    1
    64    25    59    1
    65    29    60    1
    66    29    61    1
    67    30    62    1
    68    30    63    1
    69    32    64    1
    70    32    65    1
    71    35    66    1
    72    36    67    1
    73    37    68    1
    74    39    69    1
    75    39    70    1
    76    39    71    1
    77    40    72    1
    78    40    73    1
    79    41    74    1
    80    41    75    1
    81    43    76    1
