
     RDKit          3D

 59 63  0  0  0  0  0  0  0  0999 V2000
   -0.4913   -2.2808   -1.8539 O   0  0  0  0  0  0  0  0  0  0  0  0
   -1.7513   -2.2575   -1.8416 C   0  0  0  0  0  0  0  0  0  0  0  0
   -2.6051   -2.9315   -2.7442 N   0  0  0  0  0  0  0  0  0  0  0  0
   -3.9485   -2.6260   -2.3681 C   0  0  0  0  0  0  0  0  0  0  0  0
   -5.1275   -3.0024   -2.8973 N   0  0  0  0  0  0  0  0  0  0  0  0
   -6.2996   -2.5965   -2.3950 C   0  0  0  0  0  0  0  0  0  0  0  0
   -6.2879   -1.7974   -1.3384 N   0  0  0  0  0  0  0  0  0  0  0  0
   -5.1401   -1.3473   -0.7098 C   0  0  0  0  0  0  0  0  0  0  0  0
   -5.3012   -0.5211    0.4133 N   0  0  0  0  0  0  0  0  0  0  0  0
   -6.5264    0.2370    0.5420 C   0  0  0  0  0  0  0  0  0  0  0  0
   -7.0220    0.5955    1.7569 C   0  0  0  0  0  0  0  0  0  0  0  0
   -8.1808    1.3305    1.8412 C   0  0  0  0  0  0  0  0  0  0  0  0
   -8.8461    1.7069    0.6928 C   0  0  0  0  0  0  0  0  0  0  0  0
  -10.0054    2.4394    0.8103 F   0  0  0  0  0  0  0  0  0  0  0  0
   -8.3564    1.3519   -0.5425 C   0  0  0  0  0  0  0  0  0  0  0  0
   -9.2390    1.8513   -1.9601 Cl  0  0  0  0  0  0  0  0  0  0  0  0
   -7.1788    0.6071   -0.5982 C   0  0  0  0  0  0  0  0  0  0  0  0
   -3.9595   -1.7842   -1.2592 C   0  0  0  0  0  0  0  0  0  0  0  0
   -2.5611   -1.4997   -0.8606 C   0  0  0  0  0  0  0  0  0  0  0  0
   -2.1260   -0.7715    0.1304 C   0  0  0  0  0  0  0  0  0  0  0  0
   -0.7070   -0.6217    0.4094 C   0  0  0  0  0  0  0  0  0  0  0  0
    0.1831   -1.6396    0.6537 C   0  0  0  0  0  0  0  0  0  0  0  0
    1.4398   -1.1055    0.8459 C   0  0  0  0  0  0  0  0  0  0  0  0
    1.2949    0.2599    0.7147 C   0  0  0  0  0  0  0  0  0  0  0  0
    2.4281    1.1912    0.8516 C   0  0  0  0  0  0  0  0  0  0  0  0
    2.7180    1.7721    1.9169 O   0  0  0  0  0  0  0  0  0  0  0  0
    3.2481    1.4479   -0.2941 N   0  0  0  0  0  0  0  0  0  0  0  0
    4.3814    2.3404   -0.2394 C   0  0  0  0  0  0  0  0  0  0  0  0
    5.4219    1.8896    0.7309 C   0  0  0  0  0  0  0  0  0  0  0  0
    5.9857    0.5838    0.4505 N   0  0  0  0  0  0  0  0  0  0  0  0
    6.8617    0.2497    1.5957 C   0  0  0  0  0  0  0  0  0  0  0  0
    7.8452   -0.7853    1.0573 C   0  0  0  0  0  0  0  0  0  0  0  0
    8.8442   -0.0923    0.3841 O   0  0  0  0  0  0  0  0  0  0  0  0
    8.2585    0.9031   -0.3810 C   0  0  0  0  0  0  0  0  0  0  0  0
    6.8147    0.6033   -0.7546 C   0  0  0  0  0  0  0  0  0  0  0  0
    0.0070    0.5202    0.4543 N   0  0  0  0  0  0  0  0  0  0  0  0
   -2.3380   -3.5515   -3.5550 H   0  0  0  0  0  0  0  0  0  0  0  0
   -7.2549   -2.9239   -2.8513 H   0  0  0  0  0  0  0  0  0  0  0  0
   -4.6695   -0.4103    1.1991 H   0  0  0  0  0  0  0  0  0  0  0  0
   -6.4796    0.2897    2.6671 H   0  0  0  0  0  0  0  0  0  0  0  0
   -8.5627    1.6099    2.7948 H   0  0  0  0  0  0  0  0  0  0  0  0
   -6.8465    0.3783   -1.6135 H   0  0  0  0  0  0  0  0  0  0  0  0
   -2.7704   -0.2319    0.7782 H   0  0  0  0  0  0  0  0  0  0  0  0
   -0.0544   -2.7178    0.7079 H   0  0  0  0  0  0  0  0  0  0  0  0
    2.3316   -1.6864    1.0574 H   0  0  0  0  0  0  0  0  0  0  0  0
    3.0170    0.9797   -1.1889 H   0  0  0  0  0  0  0  0  0  0  0  0
    4.0865    3.3705    0.0694 H   0  0  0  0  0  0  0  0  0  0  0  0
    4.8111    2.4476   -1.2420 H   0  0  0  0  0  0  0  0  0  0  0  0
    6.2941    2.6008    0.6016 H   0  0  0  0  0  0  0  0  0  0  0  0
    5.1399    2.0101    1.7932 H   0  0  0  0  0  0  0  0  0  0  0  0
    6.2688   -0.1408    2.4414 H   0  0  0  0  0  0  0  0  0  0  0  0
    7.4368    1.1312    1.9195 H   0  0  0  0  0  0  0  0  0  0  0  0
    8.2239   -1.4067    1.8945 H   0  0  0  0  0  0  0  0  0  0  0  0
    7.3218   -1.4057    0.2957 H   0  0  0  0  0  0  0  0  0  0  0  0
    8.3485    1.8950    0.0998 H   0  0  0  0  0  0  0  0  0  0  0  0
    8.8393    0.9496   -1.3205 H   0  0  0  0  0  0  0  0  0  0  0  0
    6.6879   -0.3246   -1.3073 H   0  0  0  0  0  0  0  0  0  0  0  0
    6.4829    1.4474   -1.3774 H   0  0  0  0  0  0  0  0  0  0  0  0
   -0.3854    1.4692    0.3045 H   0  0  0  0  0  0  0  0  0  0  0  0
  1  2  2  0
  2  3  1  0
  3  4  1  0
  4  5  2  0
  5  6  1  0
  6  7  2  0
  7  8  1  0
  8  9  1  0
  9 10  1  0
 10 11  2  0
 11 12  1  0
 12 13  2  0
 13 14  1  0
 13 15  1  0
 15 16  1  0
 15 17  2  0
  8 18  2  0
 18 19  1  0
 19 20  2  0
 20 21  1  0
 21 22  2  0
 22 23  1  0
 23 24  2  0
 24 25  1  0
 25 26  2  0
 25 27  1  0
 27 28  1  0
 28 29  1  0
 29 30  1  0
 30 31  1  0
 31 32  1  0
 32 33  1  0
 33 34  1  0
 34 35  1  0
 24 36  1  0
 19  2  1  0
 36 21  1  0
 18  4  1  0
 35 30  1  0
 17 10  1  0
  3 37  1  0
  6 38  1  0
  9 39  1  0
 11 40  1  0
 12 41  1  0
 17 42  1  0
 20 43  1  0
 22 44  1  0
 23 45  1  0
 27 46  1  0
 28 47  1  0
 28 48  1  0
 29 49  1  0
 29 50  1  0
 31 51  1  0
 31 52  1  0
 32 53  1  0
 32 54  1  0
 34 55  1  0
 34 56  1  0
 35 57  1  0
 35 58  1  0
 36 59  1  0
M  END
$$$$
