@<TRIPOS>MOLECULE
*****
 59 63 0 0 0
SMALL
GASTEIGER

@<TRIPOS>ATOM
      1 O          -0.4913   -2.2808   -1.8539 O.2     1  UNL1       -0.2698
      2 C          -1.7513   -2.2575   -1.8416 C.2     1  UNL1        0.2502
      3 N          -2.6051   -2.9315   -2.7442 N.am    1  UNL1       -0.2657
      4 C          -3.9485   -2.6260   -2.3681 C.ar    1  UNL1        0.1381
      5 N          -5.1275   -3.0024   -2.8973 N.ar    1  UNL1       -0.2198
      6 C          -6.2996   -2.5965   -2.3950 C.ar    1  UNL1        0.1202
      7 N          -6.2879   -1.7974   -1.3384 N.ar    1  UNL1       -0.2199
      8 C          -5.1401   -1.3473   -0.7098 C.ar    1  UNL1        0.1359
      9 N          -5.3012   -0.5211    0.4133 N.pl3   1  UNL1       -0.2988
     10 C          -6.5264    0.2370    0.5420 C.ar    1  UNL1        0.0339
     11 C          -7.0220    0.5955    1.7569 C.ar    1  UNL1       -0.0377
     12 C          -8.1808    1.3305    1.8412 C.ar    1  UNL1       -0.0232
     13 C          -8.8461    1.7069    0.6928 C.ar    1  UNL1        0.1417
     14 F         -10.0054    2.4394    0.8103 F       1  UNL1       -0.2040
     15 C          -8.3564    1.3519   -0.5425 C.ar    1  UNL1        0.0778
     16 CL         -9.2390    1.8513   -1.9601 Cl      1  UNL1       -0.0805
     17 C          -7.1788    0.6071   -0.5982 C.ar    1  UNL1       -0.0194
     18 C          -3.9595   -1.7842   -1.2592 C.ar    1  UNL1        0.0673
     19 C          -2.5611   -1.4997   -0.8606 C.2     1  UNL1        0.0527
     20 C          -2.1260   -0.7715    0.1304 C.2     1  UNL1       -0.0255
     21 C          -0.7070   -0.6217    0.4094 C.ar    1  UNL1        0.0405
     22 C           0.1831   -1.6396    0.6537 C.ar    1  UNL1       -0.0362
     23 C           1.4398   -1.1055    0.8459 C.ar    1  UNL1       -0.0313
     24 C           1.2949    0.2599    0.7147 C.ar    1  UNL1        0.1022
     25 C           2.4281    1.1912    0.8516 C.2     1  UNL1        0.2604
     26 O           2.7180    1.7721    1.9169 O.2     1  UNL1       -0.2686
     27 N           3.2481    1.4479   -0.2941 N.am    1  UNL1       -0.3089
     28 C           4.3814    2.3404   -0.2394 C.3     1  UNL1        0.0247
     29 C           5.4219    1.8896    0.7309 C.3     1  UNL1        0.0146
     30 N           5.9857    0.5838    0.4505 N.3     1  UNL1       -0.2965
     31 C           6.8617    0.2497    1.5957 C.3     1  UNL1        0.0225
     32 C           7.8452   -0.7853    1.0573 C.3     1  UNL1        0.0604
     33 O           8.8442   -0.0923    0.3841 O.3     1  UNL1       -0.3772
     34 C           8.2585    0.9031   -0.3810 C.3     1  UNL1        0.0604
     35 C           6.8147    0.6033   -0.7546 C.3     1  UNL1        0.0225
     36 N           0.0070    0.5202    0.4543 N.ar    1  UNL1       -0.3510
     37 H          -2.3380   -3.5515   -3.5550 H       1  UNL1        0.1566
     38 H          -7.2549   -2.9239   -2.8513 H       1  UNL1        0.1048
     39 H          -4.6695   -0.4103    1.1991 H       1  UNL1        0.1536
     40 H          -6.4796    0.2897    2.6671 H       1  UNL1        0.0637
     41 H          -8.5627    1.6099    2.7948 H       1  UNL1        0.0647
     42 H          -6.8465    0.3783   -1.6135 H       1  UNL1        0.0652
     43 H          -2.7704   -0.2319    0.7782 H       1  UNL1        0.0646
     44 H          -0.0544   -2.7178    0.7079 H       1  UNL1        0.0639
     45 H           2.3316   -1.6864    1.0574 H       1  UNL1        0.0640
     46 H           3.0170    0.9797   -1.1889 H       1  UNL1        0.1491
     47 H           4.0865    3.3705    0.0694 H       1  UNL1        0.0475
     48 H           4.8111    2.4476   -1.2420 H       1  UNL1        0.0475
     49 H           6.2941    2.6008    0.6016 H       1  UNL1        0.0442
     50 H           5.1399    2.0101    1.7932 H       1  UNL1        0.0442
     51 H           6.2688   -0.1408    2.4414 H       1  UNL1        0.0449
     52 H           7.4368    1.1312    1.9195 H       1  UNL1        0.0449
     53 H           8.2239   -1.4067    1.8945 H       1  UNL1        0.0572
     54 H           7.3218   -1.4057    0.2957 H       1  UNL1        0.0572
     55 H           8.3485    1.8950    0.0998 H       1  UNL1        0.0572
     56 H           8.8393    0.9496   -1.3205 H       1  UNL1        0.0572
     57 H           6.6879   -0.3246   -1.3073 H       1  UNL1        0.0449
     58 H           6.4829    1.4474   -1.3774 H       1  UNL1        0.0449
     59 H          -0.3854    1.4692    0.3045 H       1  UNL1        0.1660
@<TRIPOS>BOND
     1     1     2    2
     2     2     3   am
     3     3     4    1
     4     4     5   ar
     5     5     6   ar
     6     6     7   ar
     7     7     8   ar
     8     8     9    1
     9     9    10    1
    10    10    11   ar
    11    11    12   ar
    12    12    13   ar
    13    13    14    1
    14    13    15   ar
    15    15    16    1
    16    15    17   ar
    17     8    18   ar
    18    18    19    1
    19    19    20    2
    20    20    21    1
    21    21    22   ar
    22    22    23   ar
    23    23    24   ar
    24    24    25    1
    25    25    26    2
    26    25    27   am
    27    27    28    1
    28    28    29    1
    29    29    30    1
    30    30    31    1
    31    31    32    1
    32    32    33    1
    33    33    34    1
    34    34    35    1
    35    24    36   ar
    36    19     2    1
    37    36    21   ar
    38    18     4   ar
    39    35    30    1
    40    17    10   ar
    41     3    37    1
    42     6    38    1
    43     9    39    1
    44    11    40    1
    45    12    41    1
    46    17    42    1
    47    20    43    1
    48    22    44    1
    49    23    45    1
    50    27    46    1
    51    28    47    1
    52    28    48    1
    53    29    49    1
    54    29    50    1
    55    31    51    1
    56    31    52    1
    57    32    53    1
    58    32    54    1
    59    34    55    1
    60    34    56    1
    61    35    57    1
    62    35    58    1
    63    36    59    1
