
     RDKit          3D

 29 31  0  0  0  0  0  0  0  0999 V2000
   -2.0859   -2.0561   -2.3790 O   0  0  0  0  0  0  0  0  0  0  0  0
   -1.5621   -1.3081   -1.5230 C   0  0  0  0  0  0  0  0  0  0  0  0
   -0.1813   -1.1913   -1.3709 C   0  0  0  0  0  0  0  0  0  0  0  0
    0.3550   -0.3564   -0.4161 C   0  0  0  0  0  0  0  0  0  0  0  0
    1.7956   -0.2027   -0.2213 C   0  0  0  0  0  0  0  0  0  0  0  0
    2.7513   -0.8626   -0.9565 C   0  0  0  0  0  0  0  0  0  0  0  0
    4.1161   -0.6615   -0.7090 C   0  0  0  0  0  0  0  0  0  0  0  0
    4.5438    0.1958    0.2697 C   0  0  0  0  0  0  0  0  0  0  0  0
    5.8972    0.4125    0.5348 O   0  0  0  0  0  0  0  0  0  0  0  0
    3.5929    0.8575    1.0071 C   0  0  0  0  0  0  0  0  0  0  0  0
    2.2514    0.6552    0.7586 C   0  0  0  0  0  0  0  0  0  0  0  0
   -0.4813    0.3166    0.3357 O   0  0  0  0  0  0  0  0  0  0  0  0
   -1.7837    0.2319    0.2212 C   0  0  0  0  0  0  0  0  0  0  0  0
   -2.6140    0.9744    1.0520 C   0  0  0  0  0  0  0  0  0  0  0  0
   -3.9880    0.9006    0.9488 C   0  0  0  0  0  0  0  0  0  0  0  0
   -4.7774    1.6618    1.8013 O   0  0  0  0  0  0  0  0  0  0  0  0
   -4.6000    0.0879    0.0181 C   0  0  0  0  0  0  0  0  0  0  0  0
   -3.7770   -0.6492   -0.8066 C   0  0  0  0  0  0  0  0  0  0  0  0
   -2.4027   -0.5792   -0.7078 C   0  0  0  0  0  0  0  0  0  0  0  0
    0.4485   -1.7717   -2.0205 H   0  0  0  0  0  0  0  0  0  0  0  0
    2.4290   -1.5368   -1.7260 H   0  0  0  0  0  0  0  0  0  0  0  0
    4.8595   -1.1951   -1.3040 H   0  0  0  0  0  0  0  0  0  0  0  0
    6.1732    1.1830    1.1171 H   0  0  0  0  0  0  0  0  0  0  0  0
    3.9326    1.5445    1.7914 H   0  0  0  0  0  0  0  0  0  0  0  0
    1.5449    1.2109    1.3791 H   0  0  0  0  0  0  0  0  0  0  0  0
   -2.1185    1.6128    1.7833 H   0  0  0  0  0  0  0  0  0  0  0  0
   -4.4196    1.7997    2.7418 H   0  0  0  0  0  0  0  0  0  0  0  0
   -5.6847    0.0313   -0.0615 H   0  0  0  0  0  0  0  0  0  0  0  0
   -4.2148   -1.3059   -1.5579 H   0  0  0  0  0  0  0  0  0  0  0  0
  1  2  2  0
  2  3  1  0
  3  4  2  0
  4  5  1  0
  5  6  2  0
  6  7  1  0
  7  8  2  0
  8  9  1  0
  8 10  1  0
 10 11  2  0
  4 12  1  0
 12 13  1  0
 13 14  2  0
 14 15  1  0
 15 16  1  0
 15 17  2  0
 17 18  1  0
 18 19  2  0
 19  2  1  0
 11  5  1  0
 19 13  1  0
  3 20  1  0
  6 21  1  0
  7 22  1  0
  9 23  1  0
 10 24  1  0
 11 25  1  0
 14 26  1  0
 16 27  1  0
 17 28  1  0
 18 29  1  0
M  END
$$$$
