@<TRIPOS>MOLECULE
*****
 29 31 0 0 0
SMALL
GASTEIGER

@<TRIPOS>ATOM
      1 O          -2.0859   -2.0561   -2.3790 O.2     1  UNL1       -0.2870
      2 C          -1.5621   -1.3081   -1.5230 C.ar    1  UNL1        0.1931
      3 C          -0.1813   -1.1913   -1.3709 C.ar    1  UNL1        0.0287
      4 C           0.3550   -0.3564   -0.4161 C.ar    1  UNL1        0.1392
      5 C           1.7956   -0.2027   -0.2213 C.ar    1  UNL1        0.0176
      6 C           2.7513   -0.8626   -0.9565 C.ar    1  UNL1       -0.0476
      7 C           4.1161   -0.6615   -0.7090 C.ar    1  UNL1       -0.0195
      8 C           4.5438    0.1958    0.2697 C.ar    1  UNL1        0.1169
      9 O           5.8972    0.4125    0.5348 O.3     1  UNL1       -0.5068
     10 C           3.5929    0.8575    1.0071 C.ar    1  UNL1       -0.0195
     11 C           2.2514    0.6552    0.7586 C.ar    1  UNL1       -0.0476
     12 O          -0.4813    0.3166    0.3357 O.2     1  UNL1       -0.4545
     13 C          -1.7837    0.2319    0.2212 C.ar    1  UNL1        0.1427
     14 C          -2.6140    0.9744    1.0520 C.ar    1  UNL1        0.0229
     15 C          -3.9880    0.9006    0.9488 C.ar    1  UNL1        0.1204
     16 O          -4.7774    1.6618    1.8013 O.3     1  UNL1       -0.5066
     17 C          -4.6000    0.0879    0.0181 C.ar    1  UNL1       -0.0193
     18 C          -3.7770   -0.6492   -0.8066 C.ar    1  UNL1       -0.0439
     19 C          -2.4027   -0.5792   -0.7078 C.ar    1  UNL1        0.0642
     20 H           0.4485   -1.7717   -2.0205 H       1  UNL1        0.0693
     21 H           2.4290   -1.5368   -1.7260 H       1  UNL1        0.0626
     22 H           4.8595   -1.1951   -1.3040 H       1  UNL1        0.0654
     23 H           6.1732    1.1830    1.1171 H       1  UNL1        0.2921
     24 H           3.9326    1.5445    1.7914 H       1  UNL1        0.0654
     25 H           1.5449    1.2109    1.3791 H       1  UNL1        0.0626
     26 H          -2.1185    1.6128    1.7833 H       1  UNL1        0.0691
     27 H          -4.4196    1.7997    2.7418 H       1  UNL1        0.2921
     28 H          -5.6847    0.0313   -0.0615 H       1  UNL1        0.0654
     29 H          -4.2148   -1.3059   -1.5579 H       1  UNL1        0.0627
@<TRIPOS>BOND
     1     1     2    2
     2     2     3   ar
     3     3     4   ar
     4     4     5    1
     5     5     6   ar
     6     6     7   ar
     7     7     8   ar
     8     8     9    1
     9     8    10   ar
    10    10    11   ar
    11     4    12   ar
    12    12    13   ar
    13    13    14   ar
    14    14    15   ar
    15    15    16    1
    16    15    17   ar
    17    17    18   ar
    18    18    19   ar
    19    19     2   ar
    20    11     5   ar
    21    19    13   ar
    22     3    20    1
    23     6    21    1
    24     7    22    1
    25     9    23    1
    26    10    24    1
    27    11    25    1
    28    14    26    1
    29    16    27    1
    30    17    28    1
    31    18    29    1
