@<TRIPOS>MOLECULE
*****
 60 64 0 0 0
SMALL
GASTEIGER

@<TRIPOS>ATOM
      1 O           5.3377   -1.9095    3.0744 O.2     1  UNL1       -0.2507
      2 C           5.0677   -1.4422    1.8997 C.2     1  UNL1        0.3091
      3 O           4.9724   -2.3459    0.8792 O.3     1  UNL1       -0.4804
      4 C           4.8898    0.0263    1.8106 C.3     1  UNL1        0.0721
      5 C           3.8818    0.3273    0.7809 C.ar    1  UNL1       -0.0083
      6 C           2.5222    0.1158    0.8215 C.ar    1  UNL1        0.0236
      7 N           1.9859    0.5736   -0.3170 N.ar    1  UNL1       -0.3420
      8 C           2.9649    1.0850   -1.1191 C.ar    1  UNL1        0.0496
      9 C           2.9359    1.6760   -2.3624 C.ar    1  UNL1       -0.0376
     10 C           4.0797    2.1408   -2.9721 C.ar    1  UNL1       -0.0598
     11 C           5.2605    1.9903   -2.2906 C.ar    1  UNL1       -0.0611
     12 C           5.3160    1.4043   -1.0495 C.ar    1  UNL1       -0.0523
     13 C           4.1561    0.9372   -0.4390 C.ar    1  UNL1        0.0038
     14 C           0.5714    0.5116   -0.5819 C.3     1  UNL1        0.0408
     15 C          -0.1587   -0.6025    0.0422 C.3     1  UNL1        0.0504
     16 N          -1.5184   -0.2885    0.2308 N.3     1  UNL1       -0.1675
     17 C          -2.4916   -0.8008   -0.6441 C.3     1  UNL1        0.0459
     18 C          -2.9475   -2.1718   -0.4468 C.ar    1  UNL1       -0.0315
     19 C          -2.3930   -3.1832   -1.2403 C.ar    1  UNL1       -0.0546
     20 C          -2.7798   -4.4960   -1.0898 C.ar    1  UNL1       -0.0262
     21 C          -3.7255   -4.8565   -0.1506 C.ar    1  UNL1        0.1234
     22 F          -4.1041   -6.1692   -0.0240 F       1  UNL1       -0.2055
     23 C          -4.2724   -3.8693    0.6332 C.ar    1  UNL1       -0.0262
     24 C          -3.8819   -2.5535    0.4751 C.ar    1  UNL1       -0.0546
     25 S          -1.9770    0.9262    1.2763 S.O2    1  UNL1        0.0614
     26 O          -0.7552    1.6390    1.8272 O.2     1  UNL1       -0.1528
     27 O          -2.8247    0.4796    2.4445 O.2     1  UNL1       -0.1528
     28 C          -2.8727    2.1559    0.4149 C.ar    1  UNL1        0.1057
     29 C          -4.2561    2.0377    0.4477 C.ar    1  UNL1       -0.0326
     30 C          -5.0457    2.9429   -0.1982 C.ar    1  UNL1       -0.0246
     31 C          -4.4449    3.9773   -0.8862 C.ar    1  UNL1        0.1235
     32 F          -5.1951    4.8928   -1.5375 F       1  UNL1       -0.2055
     33 C          -3.0735    4.1006   -0.9236 C.ar    1  UNL1       -0.0246
     34 C          -2.2633    3.1754   -0.2618 C.ar    1  UNL1       -0.0326
     35 C           0.3934   -1.1077    1.3331 C.3     1  UNL1       -0.0287
     36 C           1.6215   -0.5002    1.8430 C.3     1  UNL1       -0.0105
     37 H           5.4134   -3.2633    0.8915 H       1  UNL1        0.2951
     38 H           4.5529    0.4208    2.8140 H       1  UNL1        0.0427
     39 H           5.8534    0.4884    1.5317 H       1  UNL1        0.0427
     40 H           1.9778    1.7628   -2.8526 H       1  UNL1        0.0638
     41 H           4.0367    2.6211   -3.9679 H       1  UNL1        0.0618
     42 H           6.1782    2.3628   -2.7676 H       1  UNL1        0.0618
     43 H           6.2633    1.2875   -0.5096 H       1  UNL1        0.0624
     44 H           0.4536    0.4259   -1.7115 H       1  UNL1        0.0508
     45 H           0.0694    1.4766   -0.3502 H       1  UNL1        0.0508
     46 H          -0.1370   -1.4610   -0.7053 H       1  UNL1        0.0498
     47 H          -3.3656   -0.0816   -0.6144 H       1  UNL1        0.0493
     48 H          -2.0994   -0.6268   -1.6957 H       1  UNL1        0.0493
     49 H          -1.6560   -2.9721   -1.9899 H       1  UNL1        0.0622
     50 H          -2.3581   -5.2884   -1.6977 H       1  UNL1        0.0646
     51 H          -5.0010   -4.1487    1.3669 H       1  UNL1        0.0646
     52 H          -4.3561   -1.8301    1.1241 H       1  UNL1        0.0622
     53 H          -4.6962    1.2307    0.9885 H       1  UNL1        0.0638
     54 H          -6.1415    2.8637   -0.1665 H       1  UNL1        0.0647
     55 H          -2.5824    4.8799   -1.4585 H       1  UNL1        0.0647
     56 H          -1.1950    3.2886   -0.2889 H       1  UNL1        0.0638
     57 H          -0.3772   -1.0975    2.1697 H       1  UNL1        0.0285
     58 H           0.5820   -2.2075    1.2138 H       1  UNL1        0.0285
     59 H           1.4205    0.3096    2.5797 H       1  UNL1        0.0328
     60 H           2.1884   -1.2601    2.4742 H       1  UNL1        0.0328
@<TRIPOS>BOND
     1     1     2    2
     2     2     3    1
     3     2     4    1
     4     4     5    1
     5     5     6   ar
     6     6     7   ar
     7     7     8   ar
     8     8     9   ar
     9     9    10   ar
    10    10    11   ar
    11    11    12   ar
    12    12    13   ar
    13     7    14    1
    14    14    15    1
    15    15    16    1
    16    16    17    1
    17    17    18    1
    18    18    19   ar
    19    19    20   ar
    20    20    21   ar
    21    21    22    1
    22    21    23   ar
    23    23    24   ar
    24    16    25    1
    25    25    26    2
    26    25    27    2
    27    25    28    1
    28    28    29   ar
    29    29    30   ar
    30    30    31   ar
    31    31    32    1
    32    31    33   ar
    33    33    34   ar
    34    15    35    1
    35    35    36    1
    36    13     5   ar
    37    24    18   ar
    38    34    28   ar
    39    36     6    1
    40    13     8   ar
    41     3    37    1
    42     4    38    1
    43     4    39    1
    44     9    40    1
    45    10    41    1
    46    11    42    1
    47    12    43    1
    48    14    44    1
    49    14    45    1
    50    15    46    1
    51    17    47    1
    52    17    48    1
    53    19    49    1
    54    20    50    1
    55    23    51    1
    56    24    52    1
    57    29    53    1
    58    30    54    1
    59    33    55    1
    60    34    56    1
    61    35    57    1
    62    35    58    1
    63    36    59    1
    64    36    60    1
