@<TRIPOS>MOLECULE
*****
 50 53 0 0 0
SMALL
GASTEIGER

@<TRIPOS>ATOM
      1 C          -5.4270    0.0110    1.2778 C.3     1  UNL1       -0.0401
      2 C          -5.9516   -0.3488   -0.1005 C.3     1  UNL1        0.0845
      3 C          -5.9537   -1.8275   -0.2532 C.3     1  UNL1       -0.0401
      4 C          -7.3880    0.1367   -0.2184 C.3     1  UNL1       -0.0401
      5 S          -4.9963    0.4962   -1.3166 S.O2    1  UNL1        0.0018
      6 O          -5.1586    1.9811   -1.1511 O.2     1  UNL1       -0.1688
      7 O          -5.5230    0.1643   -2.6972 O.2     1  UNL1       -0.1688
      8 C          -3.3182    0.0971   -1.2749 C.ar    1  UNL1        0.0908
      9 C          -2.7898   -0.9430   -2.0093 C.ar    1  UNL1       -0.0347
     10 C          -1.4355   -1.1836   -1.9089 C.ar    1  UNL1       -0.0324
     11 C          -0.5821   -0.4431   -1.1164 C.ar    1  UNL1        0.0896
     12 N           0.7318   -0.4545   -0.8375 N.ar    1  UNL1       -0.2277
     13 C           1.0548    0.5194    0.0296 C.ar    1  UNL1        0.1407
     14 C           2.3747    0.8415    0.5825 C.ar    1  UNL1        0.0340
     15 C           2.4930    1.8961    1.4707 C.ar    1  UNL1       -0.0446
     16 C           3.7189    2.2258    2.0091 C.ar    1  UNL1        0.0040
     17 C           4.7823    1.4622    1.6181 C.ar    1  UNL1        0.2557
     18 O           5.9287    1.7292    2.0877 O.2     1  UNL1       -0.2673
     19 N           4.6942    0.4258    0.7513 N.ar    1  UNL1       -0.2835
     20 C           5.8539   -0.3094    0.4045 C.ar    1  UNL1        0.0495
     21 C           6.4632   -0.0914   -0.7995 C.ar    1  UNL1       -0.0377
     22 C           7.6138   -0.8102   -1.1615 C.ar    1  UNL1       -0.0598
     23 C           8.1058   -1.7382   -0.2670 C.ar    1  UNL1       -0.0616
     24 C           7.5077   -1.9759    0.9549 C.ar    1  UNL1       -0.0598
     25 C           6.3688   -1.2351    1.2636 C.ar    1  UNL1       -0.0377
     26 C           3.4865    0.1292    0.2439 C.ar    1  UNL1        0.0238
     27 N          -0.0986    1.1573    0.2980 N.ar    1  UNL1       -0.3378
     28 C          -1.1216    0.5945   -0.3865 C.ar    1  UNL1        0.0683
     29 C          -2.4798    0.8484   -0.4768 C.ar    1  UNL1       -0.0114
     30 H          -4.6502   -0.7580    1.5208 H       1  UNL1        0.0251
     31 H          -6.2709   -0.1311    2.0033 H       1  UNL1        0.0251
     32 H          -5.0089    1.0188    1.3303 H       1  UNL1        0.0251
     33 H          -5.1836   -2.3411    0.3652 H       1  UNL1        0.0251
     34 H          -5.9214   -2.1681   -1.3107 H       1  UNL1        0.0251
     35 H          -6.9374   -2.2132    0.1475 H       1  UNL1        0.0251
     36 H          -7.6625    0.3520   -1.2628 H       1  UNL1        0.0251
     37 H          -7.5242    1.1011    0.3498 H       1  UNL1        0.0251
     38 H          -8.1055   -0.5733    0.2485 H       1  UNL1        0.0251
     39 H          -3.4403   -1.5496   -2.6478 H       1  UNL1        0.0637
     40 H          -1.0042   -2.0069   -2.4874 H       1  UNL1        0.0640
     41 H           1.6034    2.4686    1.7437 H       1  UNL1        0.0627
     42 H           3.7749    3.0488    2.6943 H       1  UNL1        0.0672
     43 H           6.1102    0.6298   -1.5350 H       1  UNL1        0.0638
     44 H           8.0766   -0.6230   -2.1124 H       1  UNL1        0.0618
     45 H           9.0008   -2.2941   -0.5541 H       1  UNL1        0.0618
     46 H           7.8990   -2.7057    1.6524 H       1  UNL1        0.0618
     47 H           5.9238   -1.4411    2.2220 H       1  UNL1        0.0638
     48 H           3.4227   -0.7098   -0.4561 H       1  UNL1        0.0821
     49 H          -0.2106    1.9836    0.9489 H       1  UNL1        0.1674
     50 H          -2.8457    1.6803    0.1230 H       1  UNL1        0.0658
@<TRIPOS>BOND
     1     1     2    1
     2     2     3    1
     3     2     4    1
     4     2     5    1
     5     5     6    2
     6     5     7    2
     7     5     8    1
     8     8     9   ar
     9     9    10   ar
    10    10    11   ar
    11    11    12   ar
    12    12    13   ar
    13    13    14    1
    14    14    15   ar
    15    15    16   ar
    16    16    17   ar
    17    17    18    2
    18    17    19   ar
    19    19    20    1
    20    20    21   ar
    21    21    22   ar
    22    22    23   ar
    23    23    24   ar
    24    24    25   ar
    25    19    26   ar
    26    13    27   ar
    27    27    28   ar
    28    28    29   ar
    29    29     8   ar
    30    28    11   ar
    31    26    14   ar
    32    25    20   ar
    33     1    30    1
    34     1    31    1
    35     1    32    1
    36     3    33    1
    37     3    34    1
    38     3    35    1
    39     4    36    1
    40     4    37    1
    41     4    38    1
    42     9    39    1
    43    10    40    1
    44    15    41    1
    45    16    42    1
    46    21    43    1
    47    22    44    1
    48    23    45    1
    49    24    46    1
    50    25    47    1
    51    26    48    1
    52    27    49    1
    53    29    50    1
