@<TRIPOS>MOLECULE
*****
 38 41 0 0 0
SMALL
GASTEIGER

@<TRIPOS>ATOM
      1 O          -3.6449    2.4574   -0.0385 O.2     1  UNL1       -0.2700
      2 C          -3.0451    1.3265   -0.0048 C.2     1  UNL1        0.2470
      3 C          -3.8407    0.1182    0.1377 C.ar    1  UNL1        0.0369
      4 C          -4.6173   -0.3601   -0.9237 C.ar    1  UNL1       -0.0496
      5 C          -5.3939   -1.4823   -0.8518 C.ar    1  UNL1       -0.0610
      6 C          -5.4293   -2.2015    0.3269 C.ar    1  UNL1       -0.0617
      7 C          -4.6640   -1.7423    1.3942 C.ar    1  UNL1       -0.0610
      8 C          -3.8930   -0.6165    1.3017 C.ar    1  UNL1       -0.0496
      9 N          -1.6354    1.2974   -0.1083 N.am    1  UNL1       -0.2912
     10 C          -0.8866    2.5214   -0.2492 C.3     1  UNL1        0.0223
     11 C           0.2228    2.5151    0.8010 C.3     1  UNL1        0.0233
     12 C           1.0954    1.3607    0.4186 C.ar    1  UNL1        0.1319
     13 O           2.3762    1.2119    0.3938 O.2     1  UNL1       -0.4387
     14 C           2.7086    0.0051   -0.0211 C.ar    1  UNL1        0.2465
     15 C           4.0610   -0.5113   -0.1725 C.ar    1  UNL1        0.1257
     16 C           5.1481    0.2499    0.1727 C.ar    1  UNL1       -0.0283
     17 C           6.4416   -0.2066    0.0286 C.ar    1  UNL1       -0.0228
     18 C           6.6437   -1.4677   -0.4786 C.ar    1  UNL1        0.1414
     19 F           7.9139   -1.9523   -0.6331 F       1  UNL1       -0.2039
     20 C           5.5452   -2.2315   -0.8255 C.ar    1  UNL1        0.0636
     21 N           4.3059   -1.7338   -0.6624 N.ar    1  UNL1       -0.2474
     22 N           1.5433   -0.6274   -0.2668 N.ar    1  UNL1       -0.2108
     23 C           0.4946    0.1696   -0.0100 C.ar    1  UNL1        0.1003
     24 C          -0.9697    0.0294   -0.0814 C.3     1  UNL1        0.0605
     25 H          -4.5657    0.2246   -1.8289 H       1  UNL1        0.0625
     26 H          -5.9854   -1.8321   -1.6789 H       1  UNL1        0.0618
     27 H          -6.0291   -3.0919    0.4195 H       1  UNL1        0.0618
     28 H          -4.6916   -2.3050    2.3197 H       1  UNL1        0.0618
     29 H          -3.3063   -0.2914    2.1643 H       1  UNL1        0.0625
     30 H          -0.3764    2.4733   -1.2607 H       1  UNL1        0.0469
     31 H          -1.5005    3.4285   -0.2094 H       1  UNL1        0.0469
     32 H          -0.1970    2.4000    1.7994 H       1  UNL1        0.0359
     33 H           0.7387    3.4872    0.7069 H       1  UNL1        0.0359
     34 H           5.0164    1.2587    0.5821 H       1  UNL1        0.0641
     35 H           7.2485    0.4311    0.3171 H       1  UNL1        0.0647
     36 H           5.7546   -3.2171   -1.2215 H       1  UNL1        0.0859
     37 H          -1.3590   -0.6285    0.7437 H       1  UNL1        0.0530
     38 H          -1.2276   -0.4668   -1.0674 H       1  UNL1        0.0530
@<TRIPOS>BOND
     1     1     2    2
     2     2     3    1
     3     3     4   ar
     4     4     5   ar
     5     5     6   ar
     6     6     7   ar
     7     7     8   ar
     8     2     9   am
     9     9    10    1
    10    10    11    1
    11    11    12    1
    12    12    13   ar
    13    13    14   ar
    14    14    15    1
    15    15    16   ar
    16    16    17   ar
    17    17    18   ar
    18    18    19    1
    19    18    20   ar
    20    20    21   ar
    21    14    22   ar
    22    22    23   ar
    23    23    24    1
    24     8     3   ar
    25    24     9    1
    26    23    12   ar
    27    21    15   ar
    28     4    25    1
    29     5    26    1
    30     6    27    1
    31     7    28    1
    32     8    29    1
    33    10    30    1
    34    10    31    1
    35    11    32    1
    36    11    33    1
    37    16    34    1
    38    17    35    1
    39    20    36    1
    40    24    37    1
    41    24    38    1
