
     RDKit          3D

 38 41  0  0  0  0  0  0  0  0999 V2000
   -3.6449    2.4574   -0.0385 O   0  0  0  0  0  0  0  0  0  0  0  0
   -3.0451    1.3265   -0.0048 C   0  0  0  0  0  0  0  0  0  0  0  0
   -3.8407    0.1182    0.1377 C   0  0  0  0  0  0  0  0  0  0  0  0
   -4.6173   -0.3601   -0.9237 C   0  0  0  0  0  0  0  0  0  0  0  0
   -5.3939   -1.4823   -0.8518 C   0  0  0  0  0  0  0  0  0  0  0  0
   -5.4293   -2.2015    0.3269 C   0  0  0  0  0  0  0  0  0  0  0  0
   -4.6640   -1.7423    1.3942 C   0  0  0  0  0  0  0  0  0  0  0  0
   -3.8930   -0.6165    1.3017 C   0  0  0  0  0  0  0  0  0  0  0  0
   -1.6354    1.2974   -0.1083 N   0  0  0  0  0  0  0  0  0  0  0  0
   -0.8866    2.5214   -0.2492 C   0  0  0  0  0  0  0  0  0  0  0  0
    0.2228    2.5151    0.8010 C   0  0  0  0  0  0  0  0  0  0  0  0
    1.0954    1.3607    0.4186 C   0  0  0  0  0  0  0  0  0  0  0  0
    2.3762    1.2119    0.3938 O   0  0  0  0  0  0  0  0  0  0  0  0
    2.7086    0.0051   -0.0211 C   0  0  0  0  0  0  0  0  0  0  0  0
    4.0610   -0.5113   -0.1725 C   0  0  0  0  0  0  0  0  0  0  0  0
    5.1481    0.2499    0.1727 C   0  0  0  0  0  0  0  0  0  0  0  0
    6.4416   -0.2066    0.0286 C   0  0  0  0  0  0  0  0  0  0  0  0
    6.6437   -1.4677   -0.4786 C   0  0  0  0  0  0  0  0  0  0  0  0
    7.9139   -1.9523   -0.6331 F   0  0  0  0  0  0  0  0  0  0  0  0
    5.5452   -2.2315   -0.8255 C   0  0  0  0  0  0  0  0  0  0  0  0
    4.3059   -1.7338   -0.6624 N   0  0  0  0  0  0  0  0  0  0  0  0
    1.5433   -0.6274   -0.2668 N   0  0  0  0  0  0  0  0  0  0  0  0
    0.4946    0.1696   -0.0100 C   0  0  0  0  0  0  0  0  0  0  0  0
   -0.9697    0.0294   -0.0814 C   0  0  0  0  0  0  0  0  0  0  0  0
   -4.5657    0.2246   -1.8289 H   0  0  0  0  0  0  0  0  0  0  0  0
   -5.9854   -1.8321   -1.6789 H   0  0  0  0  0  0  0  0  0  0  0  0
   -6.0291   -3.0919    0.4195 H   0  0  0  0  0  0  0  0  0  0  0  0
   -4.6916   -2.3050    2.3197 H   0  0  0  0  0  0  0  0  0  0  0  0
   -3.3063   -0.2914    2.1643 H   0  0  0  0  0  0  0  0  0  0  0  0
   -0.3764    2.4733   -1.2607 H   0  0  0  0  0  0  0  0  0  0  0  0
   -1.5005    3.4285   -0.2094 H   0  0  0  0  0  0  0  0  0  0  0  0
   -0.1970    2.4000    1.7994 H   0  0  0  0  0  0  0  0  0  0  0  0
    0.7387    3.4872    0.7069 H   0  0  0  0  0  0  0  0  0  0  0  0
    5.0164    1.2587    0.5821 H   0  0  0  0  0  0  0  0  0  0  0  0
    7.2485    0.4311    0.3171 H   0  0  0  0  0  0  0  0  0  0  0  0
    5.7546   -3.2171   -1.2215 H   0  0  0  0  0  0  0  0  0  0  0  0
   -1.3590   -0.6285    0.7437 H   0  0  0  0  0  0  0  0  0  0  0  0
   -1.2276   -0.4668   -1.0674 H   0  0  0  0  0  0  0  0  0  0  0  0
  1  2  2  0
  2  3  1  0
  3  4  2  0
  4  5  1  0
  5  6  2  0
  6  7  1  0
  7  8  2  0
  2  9  1  0
  9 10  1  0
 10 11  1  0
 11 12  1  0
 12 13  1  0
 13 14  1  0
 14 15  1  0
 15 16  2  0
 16 17  1  0
 17 18  2  0
 18 19  1  0
 18 20  1  0
 20 21  2  0
 14 22  2  0
 22 23  1  0
 23 24  1  0
  8  3  1  0
 24  9  1  0
 23 12  2  0
 21 15  1  0
  4 25  1  0
  5 26  1  0
  6 27  1  0
  7 28  1  0
  8 29  1  0
 10 30  1  0
 10 31  1  0
 11 32  1  0
 11 33  1  0
 16 34  1  0
 17 35  1  0
 20 36  1  0
 24 37  1  0
 24 38  1  0
M  END
$$$$
