@<TRIPOS>MOLECULE
*****
 70 74 0 0 0
SMALL
GASTEIGER

@<TRIPOS>ATOM
      1 N           2.0297   -1.8351   -0.7867 N.3     1  UNL1       -0.3173
      2 C           2.1711   -0.5473   -0.1026 C.3     1  UNL1        0.0965
      3 C           0.8115    0.0032    0.0681 C.2     1  UNL1        0.2336
      4 O           0.6307    1.1006    0.6530 O.2     1  UNL1       -0.2738
      5 N          -0.3497   -0.6609   -0.4086 N.am    1  UNL1       -0.3070
      6 C          -1.7047   -0.1045   -0.2334 C.3     1  UNL1        0.0484
      7 C          -2.5107   -1.1606    0.4329 C.3     1  UNL1       -0.0292
      8 C          -3.9181   -0.8599    0.7268 C.3     1  UNL1       -0.0382
      9 C          -4.2001    0.2873    1.6216 C.3     1  UNL1       -0.0009
     10 N          -5.6248    0.4582    1.8109 N.3     1  UNL1       -0.2980
     11 C          -6.2580   -0.5835    2.5479 C.3     1  UNL1        0.0224
     12 C          -7.7420   -0.2290    2.6436 C.3     1  UNL1        0.0604
     13 O          -7.9405    1.1272    2.4255 O.3     1  UNL1       -0.3772
     14 C          -7.6874    1.4195    1.0877 C.3     1  UNL1        0.0604
     15 C          -6.3211    0.9582    0.6791 C.3     1  UNL1        0.0224
     16 C          -2.1723    0.2429   -1.5933 C.ar    1  UNL1       -0.0271
     17 C          -2.7802    1.4707   -1.7606 C.ar    1  UNL1       -0.0554
     18 C          -3.2411    1.8559   -3.0024 C.ar    1  UNL1       -0.0431
     19 C          -3.0727    0.9762   -4.0575 C.ar    1  UNL1        0.0410
     20 CL         -3.6504    1.4495   -5.6340 Cl      1  UNL1       -0.0835
     21 C          -2.4641   -0.2508   -3.8853 C.ar    1  UNL1       -0.0431
     22 C          -2.0124   -0.6244   -2.6614 C.ar    1  UNL1       -0.0554
     23 C           2.9553    0.3301   -1.0493 C.3     1  UNL1       -0.0104
     24 C           4.4191   -0.1393   -1.0194 C.3     1  UNL1        0.0156
     25 N           4.9271    0.3031    0.2588 N.pl3   1  UNL1       -0.3144
     26 C           6.2595    0.7171    0.4538 C.ar    1  UNL1        0.1337
     27 N           6.5262    1.9727    0.8698 N.ar    1  UNL1       -0.2200
     28 C           7.7751    2.3948    1.0609 C.ar    1  UNL1        0.1204
     29 N           8.7921    1.5618    0.8378 N.ar    1  UNL1       -0.2178
     30 C           8.6300    0.2938    0.4226 C.ar    1  UNL1        0.1432
     31 N           9.4891   -0.7009    0.1416 N.ar    1  UNL1       -0.3457
     32 C           8.7602   -1.7525   -0.2282 C.ar    1  UNL1        0.0042
     33 C           7.4208   -1.4514   -0.1912 C.ar    1  UNL1       -0.0318
     34 C           7.3150   -0.1386    0.2252 C.ar    1  UNL1        0.0585
     35 C           4.0129    0.3199    1.3789 C.3     1  UNL1        0.0156
     36 C           2.9209   -0.7029    1.1732 C.3     1  UNL1       -0.0104
     37 H           2.7620   -2.5140   -0.4659 H       1  UNL1        0.1192
     38 H           1.9898   -1.7341   -1.8163 H       1  UNL1        0.1192
     39 H          -0.1928   -1.5747   -0.8952 H       1  UNL1        0.1493
     40 H          -1.5632    0.8232    0.3231 H       1  UNL1        0.0548
     41 H          -1.9833   -1.4337    1.3822 H       1  UNL1        0.0287
     42 H          -2.4639   -2.0739   -0.1956 H       1  UNL1        0.0287
     43 H          -4.4736   -0.6938   -0.2398 H       1  UNL1        0.0278
     44 H          -4.3854   -1.7704    1.1602 H       1  UNL1        0.0278
     45 H          -3.7820    0.0888    2.6534 H       1  UNL1        0.0427
     46 H          -3.7880    1.2484    1.3158 H       1  UNL1        0.0427
     47 H          -5.8596   -0.5874    3.5759 H       1  UNL1        0.0449
     48 H          -6.2008   -1.5748    2.0546 H       1  UNL1        0.0449
     49 H          -8.1493   -0.4626    3.6488 H       1  UNL1        0.0572
     50 H          -8.3209   -0.8259    1.8941 H       1  UNL1        0.0572
     51 H          -7.8164    2.5178    0.9310 H       1  UNL1        0.0572
     52 H          -8.4934    0.9449    0.4727 H       1  UNL1        0.0572
     53 H          -5.7706    1.8344    0.2789 H       1  UNL1        0.0449
     54 H          -6.4294    0.2542   -0.1656 H       1  UNL1        0.0449
     55 H          -2.9039    2.1552   -0.9088 H       1  UNL1        0.0621
     56 H          -3.7201    2.8261   -3.1294 H       1  UNL1        0.0632
     57 H          -2.3255   -0.9518   -4.7077 H       1  UNL1        0.0632
     58 H          -1.5260   -1.5629   -2.4361 H       1  UNL1        0.0621
     59 H           2.6322    0.2131   -2.1029 H       1  UNL1        0.0303
     60 H           2.9816    1.3909   -0.7250 H       1  UNL1        0.0303
     61 H           4.9916    0.2615   -1.8541 H       1  UNL1        0.0465
     62 H           4.4452   -1.2634   -1.0455 H       1  UNL1        0.0465
     63 H           7.9801    3.3984    1.3935 H       1  UNL1        0.1048
     64 H          10.5372   -0.6252    0.2122 H       1  UNL1        0.1668
     65 H           9.1525   -2.7127   -0.5185 H       1  UNL1        0.0807
     66 H           6.5950   -2.0973   -0.4348 H       1  UNL1        0.0640
     67 H           4.5829    0.0356    2.2809 H       1  UNL1        0.0465
     68 H           3.5864    1.3477    1.5318 H       1  UNL1        0.0465
     69 H           3.4345   -1.7082    1.1996 H       1  UNL1        0.0303
     70 H           2.2809   -0.6743    2.0767 H       1  UNL1        0.0303
@<TRIPOS>BOND
     1     1     2    1
     2     2     3    1
     3     3     4    2
     4     3     5   am
     5     5     6    1
     6     6     7    1
     7     7     8    1
     8     8     9    1
     9     9    10    1
    10    10    11    1
    11    11    12    1
    12    12    13    1
    13    13    14    1
    14    14    15    1
    15     6    16    1
    16    16    17   ar
    17    17    18   ar
    18    18    19   ar
    19    19    20    1
    20    19    21   ar
    21    21    22   ar
    22     2    23    1
    23    23    24    1
    24    24    25    1
    25    25    26    1
    26    26    27   ar
    27    27    28   ar
    28    28    29   ar
    29    29    30   ar
    30    30    31   ar
    31    31    32   ar
    32    32    33   ar
    33    33    34   ar
    34    25    35    1
    35    35    36    1
    36    36     2    1
    37    15    10    1
    38    22    16   ar
    39    34    26   ar
    40    34    30   ar
    41     1    37    1
    42     1    38    1
    43     5    39    1
    44     6    40    1
    45     7    41    1
    46     7    42    1
    47     8    43    1
    48     8    44    1
    49     9    45    1
    50     9    46    1
    51    11    47    1
    52    11    48    1
    53    12    49    1
    54    12    50    1
    55    14    51    1
    56    14    52    1
    57    15    53    1
    58    15    54    1
    59    17    55    1
    60    18    56    1
    61    21    57    1
    62    22    58    1
    63    23    59    1
    64    23    60    1
    65    24    61    1
    66    24    62    1
    67    28    63    1
    68    31    64    1
    69    32    65    1
    70    33    66    1
    71    35    67    1
    72    35    68    1
    73    36    69    1
    74    36    70    1
