
     RDKit          3D

 73 80  0  0  0  0  0  0  0  0999 V2000
    5.1168    0.5269   -2.4098 O   0  0  0  0  0  0  0  0  0  0  0  0
    6.0910    0.4729   -1.6227 C   0  0  0  0  0  0  0  0  0  0  0  0
    7.3800    0.4583   -2.0080 N   0  0  0  0  0  0  0  0  0  0  0  0
    8.1414    0.3989   -0.9106 C   0  0  0  0  0  0  0  0  0  0  0  0
    9.4995    0.3630   -0.7155 C   0  0  0  0  0  0  0  0  0  0  0  0
    9.9915    0.3055    0.5675 C   0  0  0  0  0  0  0  0  0  0  0  0
    9.1358    0.2835    1.6644 C   0  0  0  0  0  0  0  0  0  0  0  0
    7.7597    0.3200    1.4654 C   0  0  0  0  0  0  0  0  0  0  0  0
    7.2697    0.3770    0.1804 C   0  0  0  0  0  0  0  0  0  0  0  0
    5.9819    0.4237   -0.2837 N   0  0  0  0  0  0  0  0  0  0  0  0
    4.8179    0.4168    0.5726 C   0  0  0  0  0  0  0  0  0  0  0  0
    3.5747    0.5632   -0.2805 C   0  0  0  0  0  0  0  0  0  0  0  0
    2.4185    0.4028    0.7056 C   0  0  0  0  0  0  0  0  0  0  0  0
    2.3227   -0.9834    1.0112 N   0  0  0  0  0  0  0  0  0  0  0  0
    1.5253   -1.7712    0.1116 C   0  0  0  0  0  0  0  0  0  0  0  0
    0.1238   -1.3244    0.0190 C   0  0  0  0  0  0  0  0  0  0  0  0
   -0.8545   -1.7807    0.9061 C   0  0  0  0  0  0  0  0  0  0  0  0
   -2.1796   -1.3540    0.7930 C   0  0  0  0  0  0  0  0  0  0  0  0
   -2.5205   -0.4774   -0.2011 C   0  0  0  0  0  0  0  0  0  0  0  0
   -3.8784   -0.0183   -0.3458 C   0  0  0  0  0  0  0  0  0  0  0  0
   -4.1885    1.3058   -0.1990 N   0  0  0  0  0  0  0  0  0  0  0  0
   -5.4472    1.7550   -0.3302 C   0  0  0  0  0  0  0  0  0  0  0  0
   -5.7671    3.1025   -0.1815 C   0  0  0  0  0  0  0  0  0  0  0  0
   -7.0667    3.5585   -0.3181 C   0  0  0  0  0  0  0  0  0  0  0  0
   -7.3718    4.9672   -0.1585 C   0  0  0  0  0  0  0  0  0  0  0  0
   -8.5712    5.5293   -0.2620 N   0  0  0  0  0  0  0  0  0  0  0  0
   -8.4402    6.8219   -0.0513 N   0  0  0  0  0  0  0  0  0  0  0  0
   -7.1760    7.1168    0.1885 N   0  0  0  0  0  0  0  0  0  0  0  0
   -6.5103    5.9549    0.1208 N   0  0  0  0  0  0  0  0  0  0  0  0
   -8.0320    2.6123   -0.6092 C   0  0  0  0  0  0  0  0  0  0  0  0
   -7.7198    1.2843   -0.7562 C   0  0  0  0  0  0  0  0  0  0  0  0
   -6.4266    0.8272   -0.6207 C   0  0  0  0  0  0  0  0  0  0  0  0
   -6.1365   -0.4995   -0.7711 N   0  0  0  0  0  0  0  0  0  0  0  0
   -4.8704   -0.9245   -0.6352 C   0  0  0  0  0  0  0  0  0  0  0  0
   -4.4719   -2.3390   -0.7823 C   0  0  0  0  0  0  0  0  0  0  0  0
   -3.6110   -2.7311   -1.7807 C   0  0  0  0  0  0  0  0  0  0  0  0
   -3.2596   -4.0543   -1.8897 C   0  0  0  0  0  0  0  0  0  0  0  0
   -3.7356   -5.0279   -1.0322 C   0  0  0  0  0  0  0  0  0  0  0  0
   -4.5980   -4.6141   -0.0375 C   0  0  0  0  0  0  0  0  0  0  0  0
   -4.9526   -3.2999    0.0778 C   0  0  0  0  0  0  0  0  0  0  0  0
   -1.5561   -0.0374   -1.0633 C   0  0  0  0  0  0  0  0  0  0  0  0
   -0.2372   -0.4451   -0.9724 C   0  0  0  0  0  0  0  0  0  0  0  0
    3.5363   -1.6081    1.4012 C   0  0  0  0  0  0  0  0  0  0  0  0
    4.7646   -0.7783    1.4535 C   0  0  0  0  0  0  0  0  0  0  0  0
    7.7054    0.4880   -2.9801 H   0  0  0  0  0  0  0  0  0  0  0  0
   10.1457    0.3807   -1.5738 H   0  0  0  0  0  0  0  0  0  0  0  0
   11.0684    0.2774    0.7023 H   0  0  0  0  0  0  0  0  0  0  0  0
    9.5214    0.2390    2.6663 H   0  0  0  0  0  0  0  0  0  0  0  0
    7.0679    0.3098    2.2926 H   0  0  0  0  0  0  0  0  0  0  0  0
    4.8739    1.3824    1.1620 H   0  0  0  0  0  0  0  0  0  0  0  0
    3.5394    1.5727   -0.6790 H   0  0  0  0  0  0  0  0  0  0  0  0
    3.5491   -0.2630   -1.0055 H   0  0  0  0  0  0  0  0  0  0  0  0
    1.5130    0.7666    0.2454 H   0  0  0  0  0  0  0  0  0  0  0  0
    2.7115    0.9540    1.6229 H   0  0  0  0  0  0  0  0  0  0  0  0
    1.5237   -2.8107    0.4999 H   0  0  0  0  0  0  0  0  0  0  0  0
    2.0077   -1.8286   -0.8992 H   0  0  0  0  0  0  0  0  0  0  0  0
   -0.5588   -2.4698    1.6780 H   0  0  0  0  0  0  0  0  0  0  0  0
   -2.9105   -1.7442    1.5176 H   0  0  0  0  0  0  0  0  0  0  0  0
   -4.9728    3.7890    0.0445 H   0  0  0  0  0  0  0  0  0  0  0  0
   -5.4822    5.9105    0.2737 H   0  0  0  0  0  0  0  0  0  0  0  0
   -9.0505    2.9807   -0.7148 H   0  0  0  0  0  0  0  0  0  0  0  0
   -8.4928    0.5605   -0.9843 H   0  0  0  0  0  0  0  0  0  0  0  0
   -3.2361   -1.9680   -2.4557 H   0  0  0  0  0  0  0  0  0  0  0  0
   -2.5701   -4.3533   -2.6932 H   0  0  0  0  0  0  0  0  0  0  0  0
   -3.4702   -6.0706   -1.1035 H   0  0  0  0  0  0  0  0  0  0  0  0
   -4.9785   -5.3891    0.6469 H   0  0  0  0  0  0  0  0  0  0  0  0
   -5.6366   -3.0249    0.8803 H   0  0  0  0  0  0  0  0  0  0  0  0
   -1.8313    0.6659   -1.8597 H   0  0  0  0  0  0  0  0  0  0  0  0
    0.4563   -0.0385   -1.7146 H   0  0  0  0  0  0  0  0  0  0  0  0
    3.3594   -2.1676    2.3701 H   0  0  0  0  0  0  0  0  0  0  0  0
    3.7338   -2.4455    0.6668 H   0  0  0  0  0  0  0  0  0  0  0  0
    5.7024   -1.3793    1.3061 H   0  0  0  0  0  0  0  0  0  0  0  0
    4.8395   -0.4039    2.5214 H   0  0  0  0  0  0  0  0  0  0  0  0
  1  2  2  0
  2  3  1  0
  3  4  1  0
  4  5  2  0
  5  6  1  0
  6  7  2  0
  7  8  1  0
  8  9  2  0
  9 10  1  0
 10 11  1  0
 11 12  1  0
 12 13  1  0
 13 14  1  0
 14 15  1  0
 15 16  1  0
 16 17  2  0
 17 18  1  0
 18 19  2  0
 19 20  1  0
 20 21  2  0
 21 22  1  0
 22 23  2  0
 23 24  1  0
 24 25  1  0
 25 26  2  0
 26 27  1  0
 27 28  2  0
 28 29  1  0
 24 30  2  0
 30 31  1  0
 31 32  2  0
 32 33  1  0
 33 34  2  0
 34 35  1  0
 35 36  2  0
 36 37  1  0
 37 38  2  0
 38 39  1  0
 39 40  2  0
 19 41  1  0
 41 42  2  0
 14 43  1  0
 43 44  1  0
 10  2  1  0
 44 11  1  0
  9  4  1  0
 42 16  1  0
 34 20  1  0
 40 35  1  0
 32 22  1  0
 29 25  1  0
  3 45  1  0
  5 46  1  0
  6 47  1  0
  7 48  1  0
  8 49  1  0
 11 50  1  0
 12 51  1  0
 12 52  1  0
 13 53  1  0
 13 54  1  0
 15 55  1  0
 15 56  1  0
 17 57  1  0
 18 58  1  0
 23 59  1  0
 29 60  1  0
 30 61  1  0
 31 62  1  0
 36 63  1  0
 37 64  1  0
 38 65  1  0
 39 66  1  0
 40 67  1  0
 41 68  1  0
 42 69  1  0
 43 70  1  0
 43 71  1  0
 44 72  1  0
 44 73  1  0
M  END
$$$$
