@<TRIPOS>MOLECULE
*****
 73 80 0 0 0
SMALL
GASTEIGER

@<TRIPOS>ATOM
      1 O           5.1168    0.5269   -2.4098 O.2     1  UNL1       -0.2465
      2 C           6.0910    0.4729   -1.6227 C.ar    1  UNL1        0.3278
      3 N           7.3800    0.4583   -2.0080 N.ar    1  UNL1       -0.3059
      4 C           8.1414    0.3989   -0.9106 C.ar    1  UNL1        0.0670
      5 C           9.4995    0.3630   -0.7155 C.ar    1  UNL1       -0.0362
      6 C           9.9915    0.3055    0.5675 C.ar    1  UNL1       -0.0597
      7 C           9.1358    0.2835    1.6644 C.ar    1  UNL1       -0.0597
      8 C           7.7597    0.3200    1.4654 C.ar    1  UNL1       -0.0360
      9 C           7.2697    0.3770    0.1804 C.ar    1  UNL1        0.0700
     10 N           5.9819    0.4237   -0.2837 N.ar    1  UNL1       -0.2891
     11 C           4.8179    0.4168    0.5726 C.3     1  UNL1        0.0417
     12 C           3.5747    0.5632   -0.2805 C.3     1  UNL1       -0.0191
     13 C           2.4185    0.4028    0.7056 C.3     1  UNL1        0.0011
     14 N           2.3227   -0.9834    1.0112 N.3     1  UNL1       -0.2980
     15 C           1.5253   -1.7712    0.1116 C.3     1  UNL1        0.0240
     16 C           0.1238   -1.3244    0.0190 C.ar    1  UNL1       -0.0333
     17 C          -0.8545   -1.7807    0.9061 C.ar    1  UNL1       -0.0567
     18 C          -2.1796   -1.3540    0.7930 C.ar    1  UNL1       -0.0522
     19 C          -2.5205   -0.4774   -0.2011 C.ar    1  UNL1        0.0025
     20 C          -3.8784   -0.0183   -0.3458 C.ar    1  UNL1        0.0976
     21 N          -4.1885    1.3058   -0.1990 N.ar    1  UNL1       -0.2430
     22 C          -5.4472    1.7550   -0.3302 C.ar    1  UNL1        0.0906
     23 C          -5.7671    3.1025   -0.1815 C.ar    1  UNL1       -0.0235
     24 C          -7.0667    3.5585   -0.3181 C.ar    1  UNL1        0.0226
     25 C          -7.3718    4.9672   -0.1585 C.ar    1  UNL1        0.1794
     26 N          -8.5712    5.5293   -0.2620 N.ar    1  UNL1       -0.1084
     27 N          -8.4402    6.8219   -0.0513 N.ar    1  UNL1       -0.0229
     28 N          -7.1760    7.1168    0.1885 N.ar    1  UNL1       -0.0464
     29 N          -6.5103    5.9549    0.1208 N.ar    1  UNL1       -0.2388
     30 C          -8.0320    2.6123   -0.6092 C.ar    1  UNL1       -0.0489
     31 C          -7.7198    1.2843   -0.7562 C.ar    1  UNL1       -0.0335
     32 C          -6.4266    0.8272   -0.6207 C.ar    1  UNL1        0.0899
     33 N          -6.1365   -0.4995   -0.7711 N.ar    1  UNL1       -0.2430
     34 C          -4.8704   -0.9245   -0.6352 C.ar    1  UNL1        0.0976
     35 C          -4.4719   -2.3390   -0.7823 C.ar    1  UNL1        0.0025
     36 C          -3.6110   -2.7311   -1.7807 C.ar    1  UNL1       -0.0525
     37 C          -3.2596   -4.0543   -1.8897 C.ar    1  UNL1       -0.0611
     38 C          -3.7356   -5.0279   -1.0322 C.ar    1  UNL1       -0.0617
     39 C          -4.5980   -4.6141   -0.0375 C.ar    1  UNL1       -0.0611
     40 C          -4.9526   -3.2999    0.0778 C.ar    1  UNL1       -0.0525
     41 C          -1.5561   -0.0374   -1.0633 C.ar    1  UNL1       -0.0522
     42 C          -0.2372   -0.4451   -0.9724 C.ar    1  UNL1       -0.0567
     43 C           3.5363   -1.6081    1.4012 C.3     1  UNL1        0.0011
     44 C           4.7646   -0.7783    1.4535 C.3     1  UNL1       -0.0191
     45 H           7.7054    0.4880   -2.9801 H       1  UNL1        0.1704
     46 H          10.1457    0.3807   -1.5738 H       1  UNL1        0.0639
     47 H          11.0684    0.2774    0.7023 H       1  UNL1        0.0618
     48 H           9.5214    0.2390    2.6663 H       1  UNL1        0.0618
     49 H           7.0679    0.3098    2.2926 H       1  UNL1        0.0639
     50 H           4.8739    1.3824    1.1620 H       1  UNL1        0.0530
     51 H           3.5394    1.5727   -0.6790 H       1  UNL1        0.0298
     52 H           3.5491   -0.2630   -1.0055 H       1  UNL1        0.0298
     53 H           1.5130    0.7666    0.2454 H       1  UNL1        0.0427
     54 H           2.7115    0.9540    1.6229 H       1  UNL1        0.0427
     55 H           1.5237   -2.8107    0.4999 H       1  UNL1        0.0476
     56 H           2.0077   -1.8286   -0.8992 H       1  UNL1        0.0476
     57 H          -0.5588   -2.4698    1.6780 H       1  UNL1        0.0621
     58 H          -2.9105   -1.7442    1.5176 H       1  UNL1        0.0624
     59 H          -4.9728    3.7890    0.0445 H       1  UNL1        0.0646
     60 H          -5.4822    5.9105    0.2737 H       1  UNL1        0.1923
     61 H          -9.0505    2.9807   -0.7148 H       1  UNL1        0.0625
     62 H          -8.4928    0.5605   -0.9843 H       1  UNL1        0.0640
     63 H          -3.2361   -1.9680   -2.4557 H       1  UNL1        0.0624
     64 H          -2.5701   -4.3533   -2.6932 H       1  UNL1        0.0618
     65 H          -3.4702   -6.0706   -1.1035 H       1  UNL1        0.0618
     66 H          -4.9785   -5.3891    0.6469 H       1  UNL1        0.0618
     67 H          -5.6366   -3.0249    0.8803 H       1  UNL1        0.0624
     68 H          -1.8313    0.6659   -1.8597 H       1  UNL1        0.0624
     69 H           0.4563   -0.0385   -1.7146 H       1  UNL1        0.0621
     70 H           3.3594   -2.1676    2.3701 H       1  UNL1        0.0427
     71 H           3.7338   -2.4455    0.6668 H       1  UNL1        0.0427
     72 H           5.7024   -1.3793    1.3061 H       1  UNL1        0.0298
     73 H           4.8395   -0.4039    2.5214 H       1  UNL1        0.0298
@<TRIPOS>BOND
     1     1     2    2
     2     2     3   ar
     3     3     4   ar
     4     4     5   ar
     5     5     6   ar
     6     6     7   ar
     7     7     8   ar
     8     8     9   ar
     9     9    10   ar
    10    10    11    1
    11    11    12    1
    12    12    13    1
    13    13    14    1
    14    14    15    1
    15    15    16    1
    16    16    17   ar
    17    17    18   ar
    18    18    19   ar
    19    19    20    1
    20    20    21   ar
    21    21    22   ar
    22    22    23   ar
    23    23    24   ar
    24    24    25    1
    25    25    26   ar
    26    26    27   ar
    27    27    28   ar
    28    28    29   ar
    29    24    30   ar
    30    30    31   ar
    31    31    32   ar
    32    32    33   ar
    33    33    34   ar
    34    34    35    1
    35    35    36   ar
    36    36    37   ar
    37    37    38   ar
    38    38    39   ar
    39    39    40   ar
    40    19    41   ar
    41    41    42   ar
    42    14    43    1
    43    43    44    1
    44    10     2   ar
    45    44    11    1
    46     9     4   ar
    47    42    16   ar
    48    34    20   ar
    49    40    35   ar
    50    32    22   ar
    51    29    25   ar
    52     3    45    1
    53     5    46    1
    54     6    47    1
    55     7    48    1
    56     8    49    1
    57    11    50    1
    58    12    51    1
    59    12    52    1
    60    13    53    1
    61    13    54    1
    62    15    55    1
    63    15    56    1
    64    17    57    1
    65    18    58    1
    66    23    59    1
    67    29    60    1
    68    30    61    1
    69    31    62    1
    70    36    63    1
    71    37    64    1
    72    38    65    1
    73    39    66    1
    74    40    67    1
    75    41    68    1
    76    42    69    1
    77    43    70    1
    78    43    71    1
    79    44    72    1
    80    44    73    1
