@<TRIPOS>MOLECULE
*****
 66 71 0 0 0
SMALL
GASTEIGER

@<TRIPOS>ATOM
      1 O          -4.8283   -0.6197    0.1056 O.2     1  UNL1       -0.2444
      2 C          -3.5943   -0.8764    0.2992 C.ar    1  UNL1        0.3518
      3 N          -3.0085   -2.0549    0.4407 N.ar    1  UNL1       -0.2091
      4 C          -3.6524   -3.3530    0.4069 C.3     1  UNL1        0.0621
      5 C          -3.1901   -4.2611    1.5023 C.3     1  UNL1       -0.0067
      6 C          -2.9580   -5.6390    0.9700 C.3     1  UNL1        0.0496
      7 O          -3.9738   -6.0812    0.1579 O.3     1  UNL1       -0.3796
      8 C          -4.2028   -5.3015   -0.9506 C.3     1  UNL1        0.0496
      9 C          -3.3611   -4.0415   -0.9297 C.3     1  UNL1       -0.0067
     10 N          -1.7382   -1.8241    0.6167 N.ar    1  UNL1       -0.1479
     11 C          -1.4842   -0.5029    0.5919 C.ar    1  UNL1        0.1696
     12 C          -0.1692    0.0869    0.7572 C.ar    1  UNL1        0.0243
     13 C           0.0342    1.2765    1.4229 C.ar    1  UNL1       -0.0327
     14 C           1.3272    1.7368    1.5153 C.ar    1  UNL1        0.0304
     15 N           2.3827    1.0636    0.9794 N.ar    1  UNL1       -0.2405
     16 C           2.2102   -0.0979    0.3259 C.ar    1  UNL1        0.1195
     17 N           3.3083   -0.8124   -0.2401 N.pl3   1  UNL1       -0.3262
     18 C           4.6677   -0.3118   -0.1340 C.3     1  UNL1        0.0220
     19 C           4.8320    1.0335   -0.7714 C.3     1  UNL1       -0.0345
     20 C           6.2587    1.1357   -1.2991 C.3     1  UNL1       -0.0514
     21 C           7.2539    0.6205   -0.2976 C.3     1  UNL1       -0.0529
     22 C           7.0408   -0.8557   -0.1211 C.3     1  UNL1       -0.0514
     23 C           5.6764   -1.2938   -0.6370 C.3     1  UNL1       -0.0345
     24 C           0.9236   -0.5806    0.2195 C.ar    1  UNL1       -0.0112
     25 N          -2.6562    0.0951    0.3914 N.ar    1  UNL1       -0.2435
     26 C          -2.8377    1.4996    0.2987 C.ar    1  UNL1        0.0535
     27 C          -3.6605    2.0967    1.2278 C.ar    1  UNL1       -0.0370
     28 C          -3.9009    3.4645    1.2204 C.ar    1  UNL1       -0.0521
     29 C          -3.2841    4.2342    0.2393 C.ar    1  UNL1       -0.0178
     30 C          -3.4788    5.6031    0.1723 C.ar    1  UNL1       -0.0540
     31 C          -2.8731    6.3771   -0.7952 C.ar    1  UNL1       -0.0612
     32 C          -2.0429    5.8061   -1.7401 C.ar    1  UNL1       -0.0612
     33 C          -1.8335    4.4439   -1.6938 C.ar    1  UNL1       -0.0540
     34 C          -2.4547    3.6697   -0.7060 C.ar    1  UNL1       -0.0159
     35 C          -2.2514    2.3041   -0.6508 C.ar    1  UNL1       -0.0299
     36 H          -4.7376   -3.2256    0.4561 H       1  UNL1        0.0548
     37 H          -2.2037   -3.8654    1.8832 H       1  UNL1        0.0308
     38 H          -3.9353   -4.2249    2.3175 H       1  UNL1        0.0308
     39 H          -2.8130   -6.3939    1.7727 H       1  UNL1        0.0560
     40 H          -2.0063   -5.6226    0.3934 H       1  UNL1        0.0560
     41 H          -5.2739   -4.9499   -0.8787 H       1  UNL1        0.0560
     42 H          -4.0922   -5.8321   -1.9098 H       1  UNL1        0.0560
     43 H          -2.2901   -4.2333   -1.0734 H       1  UNL1        0.0308
     44 H          -3.6836   -3.3852   -1.7637 H       1  UNL1        0.0308
     45 H          -0.8210    1.7885    1.8377 H       1  UNL1        0.0640
     46 H           1.4832    2.6729    2.0396 H       1  UNL1        0.0830
     47 H           3.1793   -1.7137   -0.7477 H       1  UNL1        0.1477
     48 H           4.8562   -0.1870    0.9653 H       1  UNL1        0.0498
     49 H           4.6933    1.8257   -0.0329 H       1  UNL1        0.0283
     50 H           4.1251    1.1537   -1.6409 H       1  UNL1        0.0283
     51 H           6.3586    0.4957   -2.2104 H       1  UNL1        0.0266
     52 H           6.5013    2.1622   -1.6238 H       1  UNL1        0.0266
     53 H           8.2655    0.8156   -0.7192 H       1  UNL1        0.0265
     54 H           7.2187    1.1774    0.6631 H       1  UNL1        0.0265
     55 H           7.1417   -1.0749    0.9635 H       1  UNL1        0.0266
     56 H           7.8343   -1.3969   -0.6733 H       1  UNL1        0.0266
     57 H           5.4492   -2.2848   -0.1452 H       1  UNL1        0.0283
     58 H           5.6974   -1.3950   -1.7270 H       1  UNL1        0.0283
     59 H           0.8043   -1.5257   -0.3151 H       1  UNL1        0.0659
     60 H          -4.1557    1.5148    2.0072 H       1  UNL1        0.0638
     61 H          -4.5290    3.9566    1.9212 H       1  UNL1        0.0624
     62 H          -4.1378    6.0328    0.9281 H       1  UNL1        0.0624
     63 H          -3.0412    7.4557   -0.8290 H       1  UNL1        0.0618
     64 H          -1.5681    6.4122   -2.4985 H       1  UNL1        0.0618
     65 H          -1.1990    3.9661   -2.4063 H       1  UNL1        0.0624
     66 H          -1.6014    1.8408   -1.3867 H       1  UNL1        0.0644
@<TRIPOS>BOND
     1     1     2    2
     2     2     3   ar
     3     3     4    1
     4     4     5    1
     5     5     6    1
     6     6     7    1
     7     7     8    1
     8     8     9    1
     9     3    10   ar
    10    10    11   ar
    11    11    12    1
    12    12    13   ar
    13    13    14   ar
    14    14    15   ar
    15    15    16   ar
    16    16    17    1
    17    17    18    1
    18    18    19    1
    19    19    20    1
    20    20    21    1
    21    21    22    1
    22    22    23    1
    23    16    24   ar
    24    11    25   ar
    25    25    26    1
    26    26    27   ar
    27    27    28   ar
    28    28    29   ar
    29    29    30   ar
    30    30    31   ar
    31    31    32   ar
    32    32    33   ar
    33    33    34   ar
    34    34    35   ar
    35    25     2   ar
    36    35    26   ar
    37     9     4    1
    38    24    12   ar
    39    34    29   ar
    40    23    18    1
    41     4    36    1
    42     5    37    1
    43     5    38    1
    44     6    39    1
    45     6    40    1
    46     8    41    1
    47     8    42    1
    48     9    43    1
    49     9    44    1
    50    13    45    1
    51    14    46    1
    52    17    47    1
    53    18    48    1
    54    19    49    1
    55    19    50    1
    56    20    51    1
    57    20    52    1
    58    21    53    1
    59    21    54    1
    60    22    55    1
    61    22    56    1
    62    23    57    1
    63    23    58    1
    64    24    59    1
    65    27    60    1
    66    28    61    1
    67    30    62    1
    68    31    63    1
    69    32    64    1
    70    33    65    1
    71    35    66    1
