@<TRIPOS>MOLECULE
*****
 39 41 0 0 0
SMALL
GASTEIGER

@<TRIPOS>ATOM
      1 C          -5.7936    1.5253    3.0673 C.1     1  UNL1       -0.1139
      2 C          -5.0893    0.8379    2.3280 C.1     1  UNL1       -0.0697
      3 C          -4.2325    0.0336    1.4556 C.ar    1  UNL1        0.0250
      4 C          -4.5908   -1.2886    1.2741 C.ar    1  UNL1       -0.0461
      5 C          -3.8431   -2.1451    0.5373 C.ar    1  UNL1       -0.0571
      6 C          -2.6763   -1.6321   -0.0423 C.ar    1  UNL1       -0.0416
      7 C          -2.3303   -0.3276    0.1414 C.ar    1  UNL1       -0.0273
      8 C          -3.1030    0.5616    0.9019 C.ar    1  UNL1       -0.0416
      9 C          -1.0596    0.2058   -0.4776 C.3     1  UNL1        0.0458
     10 N          -0.3665   -0.7026   -1.2751 N.3     1  UNL1       -0.1720
     11 S           1.0391   -0.2197   -2.0302 S.O2    1  UNL1        0.0612
     12 O           0.7982    0.8872   -3.0270 O.2     1  UNL1       -0.1528
     13 O           1.6295   -1.3789   -2.8690 O.2     1  UNL1       -0.1528
     14 C           2.3297    0.2949   -0.9665 C.ar    1  UNL1        0.1063
     15 C           2.5892   -0.5206    0.1690 C.ar    1  UNL1       -0.0353
     16 C           3.6281   -0.1247    0.9620 C.ar    1  UNL1       -0.0591
     17 C           4.4030    0.9724    0.7282 C.ar    1  UNL1       -0.0477
     18 C           4.1641    1.8016   -0.4034 C.ar    1  UNL1        0.0607
     19 C           5.0525    2.9229   -0.6288 C.2     1  UNL1        0.3369
     20 O           5.9407    3.1394    0.2074 O.2     1  UNL1       -0.2451
     21 O           4.9664    3.7829   -1.7434 O.3     1  UNL1       -0.4771
     22 C           3.1164    1.3784   -1.1732 C.ar    1  UNL1       -0.0214
     23 C          -0.3713   -2.0501   -0.7158 C.3     1  UNL1        0.0248
     24 C          -1.8067   -2.5716   -0.8102 C.3     1  UNL1       -0.0129
     25 H          -6.3649    2.0982    3.6690 H       1  UNL1        0.1232
     26 H          -5.5228   -1.6879    1.7343 H       1  UNL1        0.0630
     27 H          -4.0627   -3.1943    0.3531 H       1  UNL1        0.0621
     28 H          -2.7791    1.6098    1.0157 H       1  UNL1        0.0633
     29 H          -0.3934    0.4588    0.4018 H       1  UNL1        0.0493
     30 H          -1.3385    1.1382   -1.0006 H       1  UNL1        0.0493
     31 H           2.0311   -1.3898    0.4015 H       1  UNL1        0.0637
     32 H           3.9028   -0.7096    1.8546 H       1  UNL1        0.0618
     33 H           5.2178    1.2689    1.3686 H       1  UNL1        0.0626
     34 H           5.8532    4.0424   -2.2399 H       1  UNL1        0.2954
     35 H           2.8809    1.9770   -2.0734 H       1  UNL1        0.0645
     36 H          -0.1509   -2.0014    0.3691 H       1  UNL1        0.0447
     37 H           0.2836   -2.6933   -1.2618 H       1  UNL1        0.0447
     38 H          -1.8342   -3.5224   -0.2348 H       1  UNL1        0.0326
     39 H          -2.1167   -2.7772   -1.8316 H       1  UNL1        0.0326
@<TRIPOS>BOND
     1     1     2    3
     2     2     3    1
     3     3     4   ar
     4     4     5   ar
     5     5     6   ar
     6     6     7   ar
     7     7     8   ar
     8     7     9    1
     9     9    10    1
    10    10    11    1
    11    11    12    2
    12    11    13    2
    13    11    14    1
    14    14    15   ar
    15    15    16   ar
    16    16    17   ar
    17    17    18   ar
    18    18    19    1
    19    19    20    2
    20    19    21    1
    21    18    22   ar
    22    10    23    1
    23    23    24    1
    24     8     3   ar
    25    22    14   ar
    26    24     6    1
    27     1    25    1
    28     4    26    1
    29     5    27    1
    30     8    28    1
    31     9    29    1
    32     9    30    1
    33    15    31    1
    34    16    32    1
    35    17    33    1
    36    21    34    1
    37    22    35    1
    38    23    36    1
    39    23    37    1
    40    24    38    1
    41    24    39    1
