@<TRIPOS>MOLECULE
*****
 32 31 0 0 0
SMALL
GASTEIGER

@<TRIPOS>ATOM
      1 N           4.2617   -0.9438   -0.4370 N.3     1  UNL1       -0.3184
      2 CA          3.3206    0.0539   -0.9122 C.3     1  UNL1        0.1033
      3 C           1.9344   -0.5288   -1.0567 C.3     1  UNL1       -0.0244
      4 C           1.3783   -1.0644    0.2348 C.3     1  UNL1       -0.0167
      5 C          -0.0192   -1.6256   -0.0289 C.3     1  UNL1        0.1048
      6 N          -0.9056   -0.6185   -0.5310 N.pl3   1  UNL1       -0.1135
      7 C          -2.0012   -0.2915    0.1087 C.cat   1  UNL1        0.3806
      8 N          -2.2749   -0.9789    1.3243 N.pl3   1  UNL1       -0.2890
      9 N          -2.9573    0.6860   -0.2836 N.pl3   1  UNL1       -0.2679
     10 C          -4.1002    0.1815   -1.0437 C.3     1  UNL1        0.0558
     11 C          -2.9536    2.1281   -0.0305 C.3     1  UNL1        0.0558
     12 C           3.3861    1.2577   -0.0766 C.2     1  UNL1        0.3217
     13 O           2.5523    2.3258   -0.3818 O.3     1  UNL1       -0.4795
     14 OXT         4.1872    1.3070    0.8944 O.2     1  UNL1       -0.2493
     15 H1          4.4168   -0.8798    0.5900 H       1  UNL1        0.1190
     16 H2          3.9617   -1.8829   -0.7501 H       1  UNL1        0.1190
     17 HA          3.6547    0.2968   -1.9540 H       1  UNL1        0.0574
     18 H           1.2546    0.2335   -1.4351 H       1  UNL1        0.0287
     19 H           2.0007   -1.3363   -1.8079 H       1  UNL1        0.0287
     20 H           2.0084   -1.8496    0.6672 H       1  UNL1        0.0297
     21 H           1.2468   -0.2383    0.9647 H       1  UNL1        0.0297
     22 H          -0.4073   -2.1197    0.8905 H       1  UNL1        0.0693
     23 H           0.0515   -2.4300   -0.8142 H       1  UNL1        0.0693
     24 H          -1.8065   -1.0601    2.2445 H       1  UNL1        0.2547
     25 H          -2.7989   -1.5872    1.9631 H       1  UNL1        0.2547
     26 H          -4.8977   -0.0282   -0.2901 H       1  UNL1        0.0619
     27 H          -4.4162    0.9547   -1.7648 H       1  UNL1        0.0619
     28 H          -3.8324   -0.7261   -1.6079 H       1  UNL1        0.0619
     29 H          -1.9475    2.5006    0.2297 H       1  UNL1        0.0619
     30 H          -3.6659    2.3505    0.8113 H       1  UNL1        0.0619
     31 H          -3.2988    2.6747   -0.9239 H       1  UNL1        0.0619
     32 H           2.6676    3.2388    0.0717 H       1  UNL1        0.2951
@<TRIPOS>BOND
     1     1     2    1
     2     2     3    1
     3     3     4    1
     4     4     5    1
     5     5     6    1
     6     6     7    2
     7     7     8    1
     8     7     9    1
     9     9    10    1
    10     9    11    1
    11     2    12    1
    12    12    13    1
    13    12    14    2
    14     1    15    1
    15     1    16    1
    16     2    17    1
    17     3    18    1
    18     3    19    1
    19     4    20    1
    20     4    21    1
    21     5    22    1
    22     5    23    1
    23     8    24    1
    24     8    25    1
    25    10    26    1
    26    10    27    1
    27    10    28    1
    28    11    29    1
    29    11    30    1
    30    11    31    1
    31    13    32    1
