@<TRIPOS>MOLECULE
*****
 160 163 0 0 0
SMALL
GASTEIGER

@<TRIPOS>ATOM
      1 O          11.2401    0.4330   -2.2547 O.3     1  UNL1       -0.3938
      2 C          11.2109    1.2762   -1.1531 C.3     1  UNL1        0.0618
      3 C          11.3123    0.4737    0.1316 C.3     1  UNL1        0.1107
      4 C          12.6032   -0.2937    0.1316 C.3     1  UNL1       -0.0451
      5 C          11.2779    1.4231    1.3166 C.3     1  UNL1        0.0618
      6 O          12.3223    2.3232    1.2762 O.3     1  UNL1       -0.3938
      7 C          10.1126   -0.4112    0.1656 C.2     1  UNL1        0.3178
      8 O          10.2595   -1.6711    0.2132 O.2     1  UNL1       -0.2501
      9 O           8.9590    0.3449    0.1376 O.3     1  UNL1       -0.4582
     10 C           7.6616   -0.2605    0.1617 C.3     1  UNL1        0.1290
     11 C           6.9556    0.0923   -1.1030 C.3     1  UNL1       -0.0129
     12 C           5.4739   -0.3108   -1.0584 C.3     1  UNL1       -0.0467
     13 C           4.7738    0.2622    0.1049 C.3     1  UNL1       -0.0381
     14 C           3.3830   -0.2358    0.2694 C.3     1  UNL1       -0.0442
     15 C           2.3582   -0.0388   -0.7395 C.3     1  UNL1       -0.0060
     16 C           2.6338   -0.6898   -2.0708 C.3     1  UNL1       -0.0590
     17 C           0.9570   -0.4419   -0.2943 C.3     1  UNL1        0.1123
     18 C           0.4586    0.2943    0.8967 C.3     1  UNL1        0.0438
     19 C           0.3243    1.7588    0.7773 C.2     1  UNL1        0.1433
     20 O          -0.2933    2.1017    1.8135 O.2     1  UNL1       -0.2967
     21 C           0.5566    2.9923    0.0468 C.3     1  UNL1        0.0332
     22 C           1.9115    3.6210    0.1536 C.3     1  UNL1       -0.0522
     23 C          -0.5318    3.9673    0.2419 C.2     1  UNL1       -0.0726
     24 C          -0.7791    5.2766    0.4742 C.2     1  UNL1       -0.0449
     25 C           0.3019    6.3100    0.6253 C.3     1  UNL1       -0.0413
     26 C          -2.2267    5.7471    0.5583 C.3     1  UNL1        0.1090
     27 O          -2.3310    6.4493    1.7633 O.3     1  UNL1       -0.3845
     28 C          -2.5635    6.5865   -0.6379 C.3     1  UNL1        0.1457
     29 O          -2.4797    5.8320   -1.8164 O.3     1  UNL1       -0.3694
     30 C          -1.4999    6.3574   -2.6340 C.3     1  UNL1        0.0375
     31 C          -3.8589    7.2999   -0.4835 C.2     1  UNL1        0.1674
     32 O          -3.7924    7.9992    0.5060 O.2     1  UNL1       -0.2943
     33 C          -4.7886    6.9212   -1.5898 C.3     1  UNL1        0.0179
     34 C          -5.9124    7.9450   -1.5425 C.3     1  UNL1       -0.0556
     35 C          -5.3351    5.5358   -1.3646 C.3     1  UNL1       -0.0376
     36 C          -6.3558    5.3871   -0.3136 C.3     1  UNL1       -0.0248
     37 C          -5.9958    5.9102    1.0370 C.3     1  UNL1       -0.0589
     38 C          -6.6891    3.9181   -0.1275 C.2     1  UNL1       -0.0812
     39 C          -7.6219    3.0023   -0.2851 C.2     1  UNL1       -0.0654
     40 C          -7.5182    1.5916    0.0593 C.2     1  UNL1       -0.0620
     41 C          -6.5217    0.9523    0.5896 C.2     1  UNL1       -0.0617
     42 C          -6.2995   -0.4290    0.9728 C.2     1  UNL1       -0.0604
     43 C          -7.0148   -1.5386    0.9186 C.2     1  UNL1       -0.0442
     44 C          -8.3901   -1.5395    0.3611 C.3     1  UNL1       -0.0411
     45 C          -6.4409   -2.8930    1.4221 C.3     1  UNL1        0.0817
     46 O          -7.3085   -3.2451    2.4229 O.3     1  UNL1       -0.3754
     47 C          -6.7442   -3.0349    3.6662 C.3     1  UNL1        0.0372
     48 C          -6.3864   -3.7600    0.2270 C.3     1  UNL1        0.0037
     49 C          -5.7704   -5.1016    0.3223 C.3     1  UNL1        0.0651
     50 C          -5.4723   -5.5749    1.7210 C.3     1  UNL1       -0.0260
     51 C          -4.7695   -6.9026    1.7316 C.3     1  UNL1       -0.0428
     52 C          -4.0075   -7.2460    0.5083 C.3     1  UNL1        0.0183
     53 C          -4.2495   -8.7178    0.1199 C.3     1  UNL1       -0.0571
     54 C          -4.2002   -6.3813   -0.6913 C.3     1  UNL1        0.2399
     55 O          -5.2091   -6.9606   -1.4682 O.3     1  UNL1       -0.3583
     56 O          -4.5749   -5.0953   -0.4369 O.3     1  UNL1       -0.3387
     57 C          -2.9804   -6.4334   -1.5630 C.2     1  UNL1        0.2760
     58 O          -2.8233   -7.1246   -2.6012 O.2     1  UNL1       -0.2814
     59 C          -2.0368   -5.5145   -0.9433 C.2     1  UNL1        0.2883
     60 O          -2.0448   -4.8096    0.0792 O.2     1  UNL1       -0.2666
     61 N          -0.7265   -4.9827   -1.1644 N.am    1  UNL1       -0.2815
     62 C          -0.4409   -5.6225   -2.4190 C.3     1  UNL1        0.0159
     63 C           0.9638   -5.3261   -2.9266 C.3     1  UNL1       -0.0370
     64 C           1.8693   -5.6063   -1.7415 C.3     1  UNL1       -0.0494
     65 C           1.6492   -4.5121   -0.7279 C.3     1  UNL1       -0.0238
     66 C           0.2539   -4.0695   -0.5415 C.3     1  UNL1        0.1233
     67 C           0.0744   -2.6677   -1.0116 C.2     1  UNL1        0.3281
     68 O          -0.6910   -2.5035   -1.9966 O.2     1  UNL1       -0.2487
     69 O           0.8078   -1.8303   -0.2423 O.3     1  UNL1       -0.4594
     70 C           5.5005   -0.0434    1.4177 C.3     1  UNL1       -0.0203
     71 C           6.9586    0.2205    1.3921 C.3     1  UNL1        0.0954
     72 O           7.5234   -0.5122    2.4620 O.3     1  UNL1       -0.3761
     73 C           8.1545    0.2787    3.3901 C.3     1  UNL1        0.0370
     74 H          11.0116   -0.4803   -1.9439 H       1  UNL1        0.2094
     75 H          10.2102    1.7957   -1.1592 H       1  UNL1        0.0569
     76 H          11.9559    2.0878   -1.2096 H       1  UNL1        0.0569
     77 H          13.3977    0.3199   -0.3769 H       1  UNL1        0.0242
     78 H          12.5506   -1.2429   -0.4374 H       1  UNL1        0.0242
     79 H          12.9008   -0.5495    1.1646 H       1  UNL1        0.0242
     80 H          11.3321    0.8451    2.2634 H       1  UNL1        0.0569
     81 H          10.3203    1.9863    1.2403 H       1  UNL1        0.0569
     82 H          12.4925    2.6970    2.1863 H       1  UNL1        0.2094
     83 H           7.8668   -1.3559    0.2107 H       1  UNL1        0.0760
     84 H           6.9338    1.1905   -1.2464 H       1  UNL1        0.0302
     85 H           7.4683   -0.3551   -1.9525 H       1  UNL1        0.0302
     86 H           5.0881    0.0516   -2.0263 H       1  UNL1        0.0269
     87 H           5.4939   -1.4087   -1.0394 H       1  UNL1        0.0269
     88 H           4.8003    1.3883   -0.0046 H       1  UNL1        0.0302
     89 H           3.0730    0.0783    1.3099 H       1  UNL1        0.0272
     90 H           3.5177   -1.3683    0.4470 H       1  UNL1        0.0272
     91 H           2.3056    1.0569   -0.9803 H       1  UNL1        0.0334
     92 H           3.3540   -1.5090   -1.9397 H       1  UNL1        0.0234
     93 H           2.9740   -0.0104   -2.8592 H       1  UNL1        0.0234
     94 H           1.6976   -1.2274   -2.4363 H       1  UNL1        0.0234
     95 H           0.3127   -0.1169   -1.1458 H       1  UNL1        0.0741
     96 H          -0.5734   -0.0846    1.1947 H       1  UNL1        0.0378
     97 H           1.0893   -0.0091    1.7614 H       1  UNL1        0.0378
     98 H           0.4257    2.6809   -1.0676 H       1  UNL1        0.0417
     99 H           2.7523    2.9406    0.3143 H       1  UNL1        0.0239
    100 H           2.0990    4.2052   -0.7678 H       1  UNL1        0.0239
    101 H           1.8730    4.3827    0.9905 H       1  UNL1        0.0239
    102 H          -1.4665    3.3709    0.1574 H       1  UNL1        0.0579
    103 H           1.0541    6.2733   -0.1729 H       1  UNL1        0.0275
    104 H          -0.1928    7.3130    0.4979 H       1  UNL1        0.0275
    105 H           0.7187    6.3390    1.6553 H       1  UNL1        0.0275
    106 H          -2.8905    4.8697    0.6299 H       1  UNL1        0.0671
    107 H          -1.8744    7.3155    1.6365 H       1  UNL1        0.2103
    108 H          -1.7847    7.3913   -0.7226 H       1  UNL1        0.0705
    109 H          -0.5365    6.3345   -2.1305 H       1  UNL1        0.0524
    110 H          -1.4703    5.8378   -3.6147 H       1  UNL1        0.0524
    111 H          -1.7415    7.4249   -2.8740 H       1  UNL1        0.0524
    112 H          -4.3014    6.9779   -2.5609 H       1  UNL1        0.0376
    113 H          -6.9147    7.4949   -1.6581 H       1  UNL1        0.0236
    114 H          -5.7862    8.6075   -2.4226 H       1  UNL1        0.0236
    115 H          -5.8332    8.6007   -0.6629 H       1  UNL1        0.0236
    116 H          -4.4959    4.8263   -1.1355 H       1  UNL1        0.0277
    117 H          -5.7584    5.1272   -2.3285 H       1  UNL1        0.0277
    118 H          -7.3500    5.8288   -0.5890 H       1  UNL1        0.0341
    119 H          -6.2288    7.0108    1.1314 H       1  UNL1        0.0235
    120 H          -6.6537    5.4370    1.8392 H       1  UNL1        0.0235
    121 H          -4.9792    5.7155    1.3808 H       1  UNL1        0.0235
    122 H          -5.7417    3.5398    0.2925 H       1  UNL1        0.0575
    123 H          -8.5136    3.4195   -0.7150 H       1  UNL1        0.0615
    124 H          -8.4301    1.0754   -0.1909 H       1  UNL1        0.0617
    125 H          -5.6831    1.6235    0.7774 H       1  UNL1        0.0618
    126 H          -5.3095   -0.6219    1.4157 H       1  UNL1        0.0618
    127 H          -8.4317   -1.2644   -0.6917 H       1  UNL1        0.0275
    128 H          -8.8646   -2.5456    0.4395 H       1  UNL1        0.0275
    129 H          -9.0110   -0.8929    1.0227 H       1  UNL1        0.0275
    130 H          -5.4412   -2.6014    1.7667 H       1  UNL1        0.0644
    131 H          -7.4275   -3.3127    4.4989 H       1  UNL1        0.0524
    132 H          -5.8571   -3.6670    3.7859 H       1  UNL1        0.0524
    133 H          -6.3720   -1.9846    3.7853 H       1  UNL1        0.0524
    134 H          -5.9320   -3.2225   -0.6532 H       1  UNL1        0.0318
    135 H          -7.4627   -3.9063   -0.1111 H       1  UNL1        0.0318
    136 H          -6.4425   -5.8476   -0.1520 H       1  UNL1        0.0598
    137 H          -4.7048   -4.8430    2.1126 H       1  UNL1        0.0290
    138 H          -6.3770   -5.6135    2.3407 H       1  UNL1        0.0290
    139 H          -4.1387   -6.9773    2.6686 H       1  UNL1        0.0270
    140 H          -5.5467   -7.7048    1.8975 H       1  UNL1        0.0270
    141 H          -2.9173   -7.2398    0.8012 H       1  UNL1        0.0355
    142 H          -3.5757   -9.4042    0.6663 H       1  UNL1        0.0234
    143 H          -5.2897   -9.0280    0.4159 H       1  UNL1        0.0234
    144 H          -4.0579   -8.8915   -0.9594 H       1  UNL1        0.0234
    145 H          -5.7709   -7.6046   -0.9777 H       1  UNL1        0.2132
    146 H          -0.4319   -6.7391   -2.2535 H       1  UNL1        0.0465
    147 H          -1.1852   -5.4384   -3.2212 H       1  UNL1        0.0465
    148 H           1.0856   -4.3363   -3.3564 H       1  UNL1        0.0280
    149 H           1.1664   -6.0877   -3.6815 H       1  UNL1        0.0280
    150 H           1.6323   -6.5809   -1.3208 H       1  UNL1        0.0266
    151 H           2.9129   -5.4994   -2.1123 H       1  UNL1        0.0266
    152 H           2.0579   -4.8915    0.2286 H       1  UNL1        0.0288
    153 H           2.3069   -3.6407   -0.9873 H       1  UNL1        0.0288
    154 H          -0.0058   -4.1141    0.5412 H       1  UNL1        0.0616
    155 H           5.2937   -1.0780    1.7682 H       1  UNL1        0.0294
    156 H           5.0563    0.6390    2.1874 H       1  UNL1        0.0294
    157 H           7.2145    1.2831    1.6300 H       1  UNL1        0.0633
    158 H           7.3852    0.9905    3.8073 H       1  UNL1        0.0524
    159 H           9.0750    0.7672    3.0760 H       1  UNL1        0.0524
    160 H           8.3715   -0.3964    4.2688 H       1  UNL1        0.0524
@<TRIPOS>BOND
     1     1     2    1
     2     2     3    1
     3     3     4    1
     4     3     5    1
     5     5     6    1
     6     3     7    1
     7     7     8    2
     8     7     9    1
     9     9    10    1
    10    10    11    1
    11    11    12    1
    12    12    13    1
    13    13    14    1
    14    14    15    1
    15    15    16    1
    16    15    17    1
    17    17    18    1
    18    18    19    1
    19    19    20    2
    20    19    21    1
    21    21    22    1
    22    21    23    1
    23    23    24    2
    24    24    25    1
    25    24    26    1
    26    26    27    1
    27    26    28    1
    28    28    29    1
    29    29    30    1
    30    28    31    1
    31    31    32    2
    32    31    33    1
    33    33    34    1
    34    33    35    1
    35    35    36    1
    36    36    37    1
    37    36    38    1
    38    38    39    2
    39    39    40    1
    40    40    41    2
    41    41    42    1
    42    42    43    2
    43    43    44    1
    44    43    45    1
    45    45    46    1
    46    46    47    1
    47    45    48    1
    48    48    49    1
    49    49    50    1
    50    50    51    1
    51    51    52    1
    52    52    53    1
    53    52    54    1
    54    54    55    1
    55    54    56    1
    56    54    57    1
    57    57    58    2
    58    57    59    1
    59    59    60    2
    60    59    61   am
    61    61    62    1
    62    62    63    1
    63    63    64    1
    64    64    65    1
    65    65    66    1
    66    66    67    1
    67    67    68    2
    68    67    69    1
    69    13    70    1
    70    70    71    1
    71    71    72    1
    72    72    73    1
    73    71    10    1
    74    69    17    1
    75    56    49    1
    76    66    61    1
    77     1    74    1
    78     2    75    1
    79     2    76    1
    80     4    77    1
    81     4    78    1
    82     4    79    1
    83     5    80    1
    84     5    81    1
    85     6    82    1
    86    10    83    1
    87    11    84    1
    88    11    85    1
    89    12    86    1
    90    12    87    1
    91    13    88    1
    92    14    89    1
    93    14    90    1
    94    15    91    1
    95    16    92    1
    96    16    93    1
    97    16    94    1
    98    17    95    1
    99    18    96    1
   100    18    97    1
   101    21    98    1
   102    22    99    1
   103    22   100    1
   104    22   101    1
   105    23   102    1
   106    25   103    1
   107    25   104    1
   108    25   105    1
   109    26   106    1
   110    27   107    1
   111    28   108    1
   112    30   109    1
   113    30   110    1
   114    30   111    1
   115    33   112    1
   116    34   113    1
   117    34   114    1
   118    34   115    1
   119    35   116    1
   120    35   117    1
   121    36   118    1
   122    37   119    1
   123    37   120    1
   124    37   121    1
   125    38   122    1
   126    39   123    1
   127    40   124    1
   128    41   125    1
   129    42   126    1
   130    44   127    1
   131    44   128    1
   132    44   129    1
   133    45   130    1
   134    47   131    1
   135    47   132    1
   136    47   133    1
   137    48   134    1
   138    48   135    1
   139    49   136    1
   140    50   137    1
   141    50   138    1
   142    51   139    1
   143    51   140    1
   144    52   141    1
   145    53   142    1
   146    53   143    1
   147    53   144    1
   148    55   145    1
   149    62   146    1
   150    62   147    1
   151    63   148    1
   152    63   149    1
   153    64   150    1
   154    64   151    1
   155    65   152    1
   156    65   153    1
   157    66   154    1
   158    70   155    1
   159    70   156    1
   160    71   157    1
   161    73   158    1
   162    73   159    1
   163    73   160    1
