@<TRIPOS>MOLECULE
*****
 58 62 0 0 0
SMALL
GASTEIGER

@<TRIPOS>ATOM
      1 C           8.5666    0.8020    0.8001 C.3     1  UNL1        0.0128
      2 N           7.1430    0.6479    0.4732 N.ar    1  UNL1       -0.3379
      3 C           6.5982    0.4289   -0.7539 C.ar    1  UNL1        0.0980
      4 N           5.2563    0.3383   -0.6423 N.ar    1  UNL1       -0.2163
      5 C           4.9415    0.5042    0.6829 C.ar    1  UNL1        0.2114
      6 S           3.3831    0.4681    1.4364 S.O2    1  UNL1        0.0795
      7 O           3.5701    0.7817    2.9189 O.2     1  UNL1       -0.1513
      8 O           2.9104   -0.9519    1.3989 O.2     1  UNL1       -0.1513
      9 N           2.2929    1.6162    0.8307 N.3     1  UNL1       -0.1745
     10 C           1.9830    1.4569   -0.5878 C.3     1  UNL1        0.0243
     11 C           1.2088    0.1715   -0.6740 C.3     1  UNL1       -0.0146
     12 C           0.5536    0.1237    0.6861 C.3     1  UNL1       -0.0146
     13 C           0.9845    1.3474    1.3984 C.3     1  UNL1        0.0243
     14 C          -0.2293    0.0637   -0.5604 C.3     1  UNL1       -0.0048
     15 C          -1.2214    1.1273   -0.9716 C.3     1  UNL1        0.0182
     16 N          -2.5738    0.5838   -0.6772 N.am    1  UNL1       -0.3108
     17 C          -2.9699    0.3104    0.6357 C.2     1  UNL1        0.2446
     18 O          -2.1863    0.5397    1.6213 O.2     1  UNL1       -0.2702
     19 C          -4.2565   -0.2457    0.9713 C.ar    1  UNL1        0.0483
     20 C          -4.2071   -1.5852    1.4415 C.ar    1  UNL1       -0.0491
     21 C          -5.3643   -2.2197    1.8148 C.ar    1  UNL1       -0.0610
     22 C          -6.5615   -1.5400    1.7259 C.ar    1  UNL1       -0.0612
     23 C          -6.5856   -0.2466    1.2675 C.ar    1  UNL1       -0.0494
     24 C          -5.4188    0.4386    0.8749 C.ar    1  UNL1        0.0669
     25 C          -5.4942    1.8108    0.3952 C.3     1  UNL1        0.4181
     26 F          -5.0674    2.0611   -0.8639 F       1  UNL1       -0.1659
     27 F          -6.8622    2.1811    0.3920 F       1  UNL1       -0.1659
     28 F          -4.9185    2.7327    1.2610 F       1  UNL1       -0.1659
     29 C          -0.7698   -1.3528   -0.8691 C.3     1  UNL1       -0.0425
     30 C          -0.4660   -1.8236   -2.2418 C.3     1  UNL1       -0.0405
     31 C          -0.9142   -1.1794   -3.4725 C.3     1  UNL1       -0.0499
     32 C          -1.4894   -2.5043   -3.1177 C.3     1  UNL1       -0.0499
     33 C           6.1294    0.6887    1.3166 C.ar    1  UNL1        0.0507
     34 H           8.9210   -0.1806    1.2342 H       1  UNL1        0.0456
     35 H           9.1532    1.1127   -0.0787 H       1  UNL1        0.0456
     36 H           8.6808    1.5449    1.6044 H       1  UNL1        0.0456
     37 H           7.2280    0.3489   -1.6350 H       1  UNL1        0.1029
     38 H           1.3884    2.3431   -0.8797 H       1  UNL1        0.0447
     39 H           2.9018    1.4767   -1.1866 H       1  UNL1        0.0447
     40 H           1.8031   -0.6719   -1.0374 H       1  UNL1        0.0323
     41 H           0.6598   -0.8061    1.3113 H       1  UNL1        0.0323
     42 H           0.2868    2.1993    1.3323 H       1  UNL1        0.0447
     43 H           1.1209    1.1579    2.5031 H       1  UNL1        0.0447
     44 H          -1.1032    2.0582   -0.3705 H       1  UNL1        0.0468
     45 H          -1.2123    1.4292   -2.0082 H       1  UNL1        0.0468
     46 H          -3.2282    0.3782   -1.4564 H       1  UNL1        0.1490
     47 H          -3.2790   -2.1252    1.5160 H       1  UNL1        0.0625
     48 H          -5.3705   -3.2506    2.1830 H       1  UNL1        0.0618
     49 H          -7.4921   -2.0516    2.0292 H       1  UNL1        0.0618
     50 H          -7.5183    0.2877    1.1916 H       1  UNL1        0.0623
     51 H          -1.8647   -1.4116   -0.7069 H       1  UNL1        0.0274
     52 H          -0.3341   -2.1039   -0.1499 H       1  UNL1        0.0274
     53 H           0.5533   -2.3322   -2.3442 H       1  UNL1        0.0301
     54 H          -0.2513   -1.1956   -4.3887 H       1  UNL1        0.0268
     55 H          -1.5744   -0.2850   -3.5263 H       1  UNL1        0.0268
     56 H          -2.5146   -2.5985   -2.7130 H       1  UNL1        0.0268
     57 H          -1.2210   -3.3830   -3.7370 H       1  UNL1        0.0268
     58 H           6.3010    0.8599    2.4022 H       1  UNL1        0.0845
@<TRIPOS>BOND
     1     1     2    1
     2     2     3   ar
     3     3     4   ar
     4     4     5   ar
     5     5     6    1
     6     6     7    2
     7     6     8    2
     8     6     9    1
     9     9    10    1
    10    10    11    1
    11    11    12    1
    12    12    13    1
    13    12    14    1
    14    14    15    1
    15    15    16    1
    16    16    17   am
    17    17    18    2
    18    17    19    1
    19    19    20   ar
    20    20    21   ar
    21    21    22   ar
    22    22    23   ar
    23    23    24   ar
    24    24    25    1
    25    25    26    1
    26    25    27    1
    27    25    28    1
    28    14    29    1
    29    29    30    1
    30    30    31    1
    31    31    32    1
    32     5    33   ar
    33    33     2   ar
    34    13     9    1
    35    24    19   ar
    36    32    30    1
    37    14    11    1
    38     1    34    1
    39     1    35    1
    40     1    36    1
    41     3    37    1
    42    10    38    1
    43    10    39    1
    44    11    40    1
    45    12    41    1
    46    13    42    1
    47    13    43    1
    48    15    44    1
    49    15    45    1
    50    16    46    1
    51    20    47    1
    52    21    48    1
    53    22    49    1
    54    23    50    1
    55    29    51    1
    56    29    52    1
    57    30    53    1
    58    31    54    1
    59    31    55    1
    60    32    56    1
    61    32    57    1
    62    33    58    1
