
     RDKit          3D

 58 62  0  0  0  0  0  0  0  0999 V2000
    8.5666    0.8020    0.8001 C   0  0  0  0  0  0  0  0  0  0  0  0
    7.1430    0.6479    0.4732 N   0  0  0  0  0  0  0  0  0  0  0  0
    6.5982    0.4289   -0.7539 C   0  0  0  0  0  0  0  0  0  0  0  0
    5.2563    0.3383   -0.6423 N   0  0  0  0  0  0  0  0  0  0  0  0
    4.9415    0.5042    0.6829 C   0  0  0  0  0  0  0  0  0  0  0  0
    3.3831    0.4681    1.4364 S   0  0  0  0  0  6  0  0  0  0  0  0
    3.5701    0.7817    2.9189 O   0  0  0  0  0  0  0  0  0  0  0  0
    2.9104   -0.9519    1.3989 O   0  0  0  0  0  0  0  0  0  0  0  0
    2.2929    1.6162    0.8307 N   0  0  0  0  0  0  0  0  0  0  0  0
    1.9830    1.4569   -0.5878 C   0  0  0  0  0  0  0  0  0  0  0  0
    1.2088    0.1715   -0.6740 C   0  0  1  0  0  0  0  0  0  0  0  0
    0.5536    0.1237    0.6861 C   0  0  1  0  0  0  0  0  0  0  0  0
    0.9845    1.3474    1.3984 C   0  0  0  0  0  0  0  0  0  0  0  0
   -0.2293    0.0637   -0.5604 C   0  0  1  0  0  0  0  0  0  0  0  0
   -1.2214    1.1273   -0.9716 C   0  0  0  0  0  0  0  0  0  0  0  0
   -2.5738    0.5838   -0.6772 N   0  0  0  0  0  0  0  0  0  0  0  0
   -2.9699    0.3104    0.6357 C   0  0  0  0  0  0  0  0  0  0  0  0
   -2.1863    0.5397    1.6213 O   0  0  0  0  0  0  0  0  0  0  0  0
   -4.2565   -0.2457    0.9713 C   0  0  0  0  0  0  0  0  0  0  0  0
   -4.2071   -1.5852    1.4415 C   0  0  0  0  0  0  0  0  0  0  0  0
   -5.3643   -2.2197    1.8148 C   0  0  0  0  0  0  0  0  0  0  0  0
   -6.5615   -1.5400    1.7259 C   0  0  0  0  0  0  0  0  0  0  0  0
   -6.5856   -0.2466    1.2675 C   0  0  0  0  0  0  0  0  0  0  0  0
   -5.4188    0.4386    0.8749 C   0  0  0  0  0  0  0  0  0  0  0  0
   -5.4942    1.8108    0.3952 C   0  0  0  0  0  0  0  0  0  0  0  0
   -5.0674    2.0611   -0.8639 F   0  0  0  0  0  0  0  0  0  0  0  0
   -6.8622    2.1811    0.3920 F   0  0  0  0  0  0  0  0  0  0  0  0
   -4.9185    2.7327    1.2610 F   0  0  0  0  0  0  0  0  0  0  0  0
   -0.7698   -1.3528   -0.8691 C   0  0  0  0  0  0  0  0  0  0  0  0
   -0.4660   -1.8236   -2.2418 C   0  0  0  0  0  0  0  0  0  0  0  0
   -0.9142   -1.1794   -3.4725 C   0  0  0  0  0  0  0  0  0  0  0  0
   -1.4894   -2.5043   -3.1177 C   0  0  0  0  0  0  0  0  0  0  0  0
    6.1294    0.6887    1.3166 C   0  0  0  0  0  0  0  0  0  0  0  0
    8.9210   -0.1806    1.2342 H   0  0  0  0  0  0  0  0  0  0  0  0
    9.1532    1.1127   -0.0787 H   0  0  0  0  0  0  0  0  0  0  0  0
    8.6808    1.5449    1.6044 H   0  0  0  0  0  0  0  0  0  0  0  0
    7.2280    0.3489   -1.6350 H   0  0  0  0  0  0  0  0  0  0  0  0
    1.3884    2.3431   -0.8797 H   0  0  0  0  0  0  0  0  0  0  0  0
    2.9018    1.4767   -1.1866 H   0  0  0  0  0  0  0  0  0  0  0  0
    1.8031   -0.6719   -1.0374 H   0  0  0  0  0  0  0  0  0  0  0  0
    0.6598   -0.8061    1.3113 H   0  0  0  0  0  0  0  0  0  0  0  0
    0.2868    2.1993    1.3323 H   0  0  0  0  0  0  0  0  0  0  0  0
    1.1209    1.1579    2.5031 H   0  0  0  0  0  0  0  0  0  0  0  0
   -1.1032    2.0582   -0.3705 H   0  0  0  0  0  0  0  0  0  0  0  0
   -1.2123    1.4292   -2.0082 H   0  0  0  0  0  0  0  0  0  0  0  0
   -3.2282    0.3782   -1.4564 H   0  0  0  0  0  0  0  0  0  0  0  0
   -3.2790   -2.1252    1.5160 H   0  0  0  0  0  0  0  0  0  0  0  0
   -5.3705   -3.2506    2.1830 H   0  0  0  0  0  0  0  0  0  0  0  0
   -7.4921   -2.0516    2.0292 H   0  0  0  0  0  0  0  0  0  0  0  0
   -7.5183    0.2877    1.1916 H   0  0  0  0  0  0  0  0  0  0  0  0
   -1.8647   -1.4116   -0.7069 H   0  0  0  0  0  0  0  0  0  0  0  0
   -0.3341   -2.1039   -0.1499 H   0  0  0  0  0  0  0  0  0  0  0  0
    0.5533   -2.3322   -2.3442 H   0  0  0  0  0  0  0  0  0  0  0  0
   -0.2513   -1.1956   -4.3887 H   0  0  0  0  0  0  0  0  0  0  0  0
   -1.5744   -0.2850   -3.5263 H   0  0  0  0  0  0  0  0  0  0  0  0
   -2.5146   -2.5985   -2.7130 H   0  0  0  0  0  0  0  0  0  0  0  0
   -1.2210   -3.3830   -3.7370 H   0  0  0  0  0  0  0  0  0  0  0  0
    6.3010    0.8599    2.4022 H   0  0  0  0  0  0  0  0  0  0  0  0
  1  2  1  0
  2  3  1  0
  3  4  2  0
  4  5  1  0
  5  6  1  0
  6  7  2  0
  6  8  2  0
  6  9  1  0
  9 10  1  0
 10 11  1  0
 11 12  1  0
 12 13  1  0
 12 14  1  0
 14 15  1  6
 15 16  1  0
 16 17  1  0
 17 18  2  0
 17 19  1  0
 19 20  2  0
 20 21  1  0
 21 22  2  0
 22 23  1  0
 23 24  2  0
 24 25  1  0
 25 26  1  0
 25 27  1  0
 25 28  1  0
 14 29  1  0
 29 30  1  0
 30 31  1  0
 31 32  1  0
  5 33  2  0
 33  2  1  0
 13  9  1  0
 24 19  1  0
 32 30  1  0
 14 11  1  0
  1 34  1  0
  1 35  1  0
  1 36  1  0
  3 37  1  0
 10 38  1  0
 10 39  1  0
 11 40  1  1
 12 41  1  1
 13 42  1  0
 13 43  1  0
 15 44  1  0
 15 45  1  0
 16 46  1  0
 20 47  1  0
 21 48  1  0
 22 49  1  0
 23 50  1  0
 29 51  1  0
 29 52  1  0
 30 53  1  0
 31 54  1  0
 31 55  1  0
 32 56  1  0
 32 57  1  0
 33 58  1  0
M  END
$$$$
