@<TRIPOS>MOLECULE
*****
 45 49 0 0 0
SMALL
GASTEIGER

@<TRIPOS>ATOM
      1 C          -8.5970   -0.4098   -1.3505 C.3     1  UNL1       -0.0159
      2 C          -7.2785    0.2367   -1.0104 C.ar    1  UNL1        0.0760
      3 N          -6.1265    0.1952   -1.2410 N.ar    1  UNL1       -0.2412
      4 C          -5.1287    0.9018   -0.7914 C.ar    1  UNL1        0.1154
      5 C          -3.6893    0.7285   -1.1737 C.ar    1  UNL1        0.1832
      6 N          -3.0986    0.9848   -2.3471 N.ar    1  UNL1       -0.1275
      7 N          -1.8086    0.6803   -2.2586 N.ar    1  UNL1       -0.1323
      8 C          -1.5409    0.2148   -1.0049 C.ar    1  UNL1        0.1513
      9 N          -2.7238    0.2609   -0.3692 N.ar    1  UNL1       -0.3069
     10 C          -2.7804   -0.1620    1.0283 C.3     1  UNL1        0.0423
     11 C          -1.5664    0.3686    1.7670 C.3     1  UNL1        0.0335
     12 N          -0.3299    0.1465    1.0444 N.am    1  UNL1       -0.2885
     13 C           0.8816    0.3615    1.7443 C.2     1  UNL1        0.2470
     14 O           0.8000    0.7358    2.9631 O.2     1  UNL1       -0.2700
     15 C           2.1948    0.1743    1.1319 C.ar    1  UNL1        0.0369
     16 C           2.6983    0.9382    0.1107 C.ar    1  UNL1       -0.0490
     17 C           3.9594    0.7044   -0.3596 C.ar    1  UNL1       -0.0528
     18 C           4.7860   -0.3028    0.1632 C.ar    1  UNL1       -0.0113
     19 C           6.1090   -0.5099   -0.3156 C.ar    1  UNL1        0.0193
     20 C           7.1247   -1.3967    0.0297 C.ar    1  UNL1       -0.0469
     21 C           8.2914   -1.3238   -0.6150 C.ar    1  UNL1       -0.0541
     22 C           8.4989   -0.4051   -1.5938 C.ar    1  UNL1       -0.0237
     23 S           6.8582    0.4403   -1.5921 S.2     1  UNL1       -0.0967
     24 C           4.2754   -1.0574    1.1773 C.ar    1  UNL1       -0.0528
     25 C           2.9990   -0.8393    1.6702 C.ar    1  UNL1       -0.0490
     26 C          -0.3166   -0.2871   -0.3225 C.3     1  UNL1        0.0749
     27 C          -5.4593    1.8735    0.1125 C.ar    1  UNL1        0.0064
     28 S          -7.2921    1.6518    0.2286 S.2     1  UNL1       -0.0801
     29 H          -9.0295   -0.9173   -0.4678 H       1  UNL1        0.0298
     30 H          -9.2993    0.3284   -1.8040 H       1  UNL1        0.0298
     31 H          -8.3397   -1.1518   -2.1296 H       1  UNL1        0.0298
     32 H          -2.8279   -1.2653    1.0761 H       1  UNL1        0.0508
     33 H          -3.6735    0.2370    1.5431 H       1  UNL1        0.0508
     34 H          -1.5110   -0.1593    2.7376 H       1  UNL1        0.0482
     35 H          -1.6936    1.4606    1.9914 H       1  UNL1        0.0482
     36 H           2.0972    1.7236   -0.3098 H       1  UNL1        0.0625
     37 H           4.4013    1.2847   -1.1698 H       1  UNL1        0.0624
     38 H           6.9487   -2.1721    0.8508 H       1  UNL1        0.0629
     39 H           9.1555   -2.0276   -0.3679 H       1  UNL1        0.0623
     40 H           9.3147   -0.1333   -2.2501 H       1  UNL1        0.0693
     41 H           4.9014   -1.8535    1.6024 H       1  UNL1        0.0624
     42 H           2.5986   -1.4412    2.4714 H       1  UNL1        0.0625
     43 H           0.5862    0.0101   -0.8864 H       1  UNL1        0.0545
     44 H          -0.4263   -1.4210   -0.3420 H       1  UNL1        0.0545
     45 H          -4.9430    2.5941    0.6528 H       1  UNL1        0.0716
@<TRIPOS>BOND
     1     1     2    1
     2     2     3   ar
     3     3     4   ar
     4     4     5    1
     5     5     6   ar
     6     6     7   ar
     7     7     8   ar
     8     8     9   ar
     9     9    10    1
    10    10    11    1
    11    11    12    1
    12    12    13   am
    13    13    14    2
    14    13    15    1
    15    15    16   ar
    16    16    17   ar
    17    17    18   ar
    18    18    19    1
    19    19    20   ar
    20    20    21   ar
    21    21    22   ar
    22    22    23   ar
    23    18    24   ar
    24    24    25   ar
    25    12    26    1
    26     4    27   ar
    27    27    28   ar
    28    28     2   ar
    29     9     5   ar
    30    25    15   ar
    31    26     8    1
    32    23    19   ar
    33     1    29    1
    34     1    30    1
    35     1    31    1
    36    10    32    1
    37    10    33    1
    38    11    34    1
    39    11    35    1
    40    16    36    1
    41    17    37    1
    42    20    38    1
    43    21    39    1
    44    22    40    1
    45    24    41    1
    46    25    42    1
    47    26    43    1
    48    26    44    1
    49    27    45    1
