@<TRIPOS>MOLECULE
*****
 69 71 0 0 0
SMALL
GASTEIGER

@<TRIPOS>ATOM
      1 C          -5.8006   -4.3958   -1.1875 C.3     1  UNL1       -0.0306
      2 C          -5.4109   -4.4578    0.2867 C.3     1  UNL1        0.0897
      3 O          -4.9557   -3.2257    0.7590 O.3     1  UNL1       -0.4640
      4 C          -3.8771   -2.5118    0.3043 C.2     1  UNL1        0.3211
      5 O          -3.3436   -3.1620   -0.6350 O.2     1  UNL1       -0.2494
      6 C          -3.7240   -1.2298    1.0806 C.3     1  UNL1        0.0950
      7 N          -2.6101   -0.4739    0.6370 N.3     1  UNL1       -0.2959
      8 C          -2.3633    0.7362    1.3439 C.3     1  UNL1        0.0882
      9 C          -1.1417    1.4043    0.8581 C.2     1  UNL1        0.2335
     10 O          -0.6466    2.4891    1.2583 O.2     1  UNL1       -0.2739
     11 N          -0.1223    1.1929   -0.1107 N.am    1  UNL1       -0.2885
     12 C           0.9812    2.0989   -0.3327 C.3     1  UNL1        0.0176
     13 C           1.0820    1.5539   -1.7416 C.3     1  UNL1       -0.0099
     14 C           0.4028    0.3441   -1.1413 C.3     1  UNL1        0.1036
     15 C           1.4340   -0.6271   -0.6665 C.2     1  UNL1        0.2339
     16 O           1.6423   -0.5219    0.5726 O.2     1  UNL1       -0.2738
     17 N           2.1008   -1.5507   -1.4807 N.am    1  UNL1       -0.3097
     18 C           3.0956   -2.4914   -1.0390 C.3     1  UNL1        0.0369
     19 C           4.4248   -1.9025   -0.7831 C.ar    1  UNL1       -0.0303
     20 C           5.3688   -1.8210   -1.7910 C.ar    1  UNL1       -0.0563
     21 C           6.6318   -1.2668   -1.5638 C.ar    1  UNL1       -0.0464
     22 C           6.9732   -0.7766   -0.2971 C.ar    1  UNL1        0.0693
     23 C           6.0382   -0.8563    0.7048 C.ar    1  UNL1       -0.0464
     24 C           4.8006   -1.4087    0.4491 C.ar    1  UNL1       -0.0563
     25 C           8.2858   -0.1948   -0.0395 C.2     1  UNL1        0.3624
     26 N           8.7908   -0.3450    1.2794 N.pl3   1  UNL1       -0.2430
     27 N           9.0398    0.4400   -0.8744 N.2     1  UNL1        0.1514
     28 O          10.2782    0.9411   -0.4751 O.2     1  UNL1       -0.3111
     29 C          -3.5706    1.6283    1.3376 C.3     1  UNL1       -0.0171
     30 C          -4.0079    2.0078   -0.0494 C.3     1  UNL1       -0.0483
     31 C          -5.1675    2.9783    0.0246 C.3     1  UNL1       -0.0527
     32 C          -4.8171    4.2657    0.7344 C.3     1  UNL1       -0.0530
     33 C          -3.3954    4.0894    1.2766 C.3     1  UNL1       -0.0527
     34 C          -3.3847    2.8738    2.1501 C.3     1  UNL1       -0.0483
     35 H          -6.1254   -3.3302   -1.3458 H       1  UNL1        0.0262
     36 H          -4.9406   -4.6514   -1.8167 H       1  UNL1        0.0262
     37 H          -6.6633   -5.0526   -1.4031 H       1  UNL1        0.0262
     38 H          -4.6727   -5.2861    0.4568 H       1  UNL1        0.0694
     39 H          -6.3375   -4.7273    0.8380 H       1  UNL1        0.0694
     40 H          -3.5791   -1.5296    2.1375 H       1  UNL1        0.0540
     41 H          -4.7166   -0.7001    1.0249 H       1  UNL1        0.0540
     42 H          -2.4690   -0.4292   -0.3849 H       1  UNL1        0.1232
     43 H          -2.1810    0.4608    2.4231 H       1  UNL1        0.0559
     44 H           1.8676    1.7773    0.2600 H       1  UNL1        0.0465
     45 H           0.7617    3.1839   -0.2769 H       1  UNL1        0.0465
     46 H           0.4722    2.1560   -2.4453 H       1  UNL1        0.0303
     47 H           2.1130    1.3385   -2.0960 H       1  UNL1        0.0303
     48 H          -0.3534   -0.1077   -1.8158 H       1  UNL1        0.0597
     49 H           1.7994   -1.4979   -2.4925 H       1  UNL1        0.1491
     50 H           2.7091   -2.9863   -0.1070 H       1  UNL1        0.0512
     51 H           3.1207   -3.3207   -1.7878 H       1  UNL1        0.0512
     52 H           5.1758   -2.1779   -2.7890 H       1  UNL1        0.0621
     53 H           7.4203   -1.1683   -2.2966 H       1  UNL1        0.0626
     54 H           6.2951   -0.4780    1.6909 H       1  UNL1        0.0626
     55 H           4.1323   -1.4344    1.2784 H       1  UNL1        0.0621
     56 H           9.5354   -0.9653    1.7127 H       1  UNL1        0.2886
     57 H           9.1592   -0.4524    2.2493 H       1  UNL1        0.2886
     58 H          11.1040    0.7598   -1.0623 H       1  UNL1        0.3605
     59 H          -4.4062    1.0670    1.8030 H       1  UNL1        0.0321
     60 H          -3.2192    2.4318   -0.6887 H       1  UNL1        0.0269
     61 H          -4.4578    1.0850   -0.5379 H       1  UNL1        0.0269
     62 H          -6.0618    2.5068    0.4930 H       1  UNL1        0.0265
     63 H          -5.5119    3.2468   -1.0070 H       1  UNL1        0.0265
     64 H          -4.8262    5.1162    0.0318 H       1  UNL1        0.0265
     65 H          -5.5023    4.4758    1.5956 H       1  UNL1        0.0265
     66 H          -2.7315    4.0412    0.3925 H       1  UNL1        0.0265
     67 H          -3.2030    5.0186    1.8708 H       1  UNL1        0.0265
     68 H          -2.4946    2.8271    2.8148 H       1  UNL1        0.0269
     69 H          -4.2441    2.9783    2.8444 H       1  UNL1        0.0269
@<TRIPOS>BOND
     1     1     2    1
     2     2     3    1
     3     3     4    1
     4     4     5    2
     5     4     6    1
     6     6     7    1
     7     7     8    1
     8     8     9    1
     9     9    10    2
    10     9    11   am
    11    11    12    1
    12    12    13    1
    13    13    14    1
    14    14    15    1
    15    15    16    2
    16    15    17   am
    17    17    18    1
    18    18    19    1
    19    19    20   ar
    20    20    21   ar
    21    21    22   ar
    22    22    23   ar
    23    23    24   ar
    24    22    25    1
    25    25    26    1
    26    25    27    2
    27    27    28    1
    28     8    29    1
    29    29    30    1
    30    30    31    1
    31    31    32    1
    32    32    33    1
    33    33    34    1
    34    14    11    1
    35    24    19   ar
    36    34    29    1
    37     1    35    1
    38     1    36    1
    39     1    37    1
    40     2    38    1
    41     2    39    1
    42     6    40    1
    43     6    41    1
    44     7    42    1
    45     8    43    1
    46    12    44    1
    47    12    45    1
    48    13    46    1
    49    13    47    1
    50    14    48    1
    51    17    49    1
    52    18    50    1
    53    18    51    1
    54    20    52    1
    55    21    53    1
    56    23    54    1
    57    24    55    1
    58    26    56    1
    59    26    57    1
    60    28    58    1
    61    29    59    1
    62    30    60    1
    63    30    61    1
    64    31    62    1
    65    31    63    1
    66    32    64    1
    67    32    65    1
    68    33    66    1
    69    33    67    1
    70    34    68    1
    71    34    69    1
