
     RDKit          3D

 35 35  0  0  0  0  0  0  0  0999 V2000
   -1.5037    0.3770    0.8693 C   0  0  1  0  0  0  0  0  0  0  0  0
   -2.5213    0.2588    1.9866 C   0  0  0  0  0  0  0  0  0  0  0  0
   -3.4335    1.3048    1.9399 O   0  0  0  0  0  0  0  0  0  0  0  0
   -0.5922   -0.6644    0.9135 O   0  0  0  0  0  0  0  0  0  0  0  0
    0.5463   -0.3578    0.1257 C   0  0  2  0  0  0  0  0  0  0  0  0
    1.0938   -1.5812   -0.2839 N   0  0  0  0  0  0  0  0  0  0  0  0
    2.1954   -2.1059   -0.4250 C   0  0  0  0  0  0  0  0  0  0  0  0
    1.8183   -3.3612   -0.8814 O   0  0  0  0  0  0  0  0  0  0  0  0
    3.1195   -1.1437   -0.0504 O   0  0  0  0  0  0  0  0  0  0  0  0
    3.6556   -0.1988   -0.9160 C   0  0  0  0  0  0  0  0  0  0  0  0
    1.3959    0.4850    1.0060 C   0  0  0  0  0  0  0  0  0  0  0  0
    2.3660    1.3011    1.6260 O   0  0  0  0  0  0  0  0  0  0  0  0
    1.1181    0.7829    2.2340 N   0  0  0  0  0  0  0  0  0  0  0  0
    0.1096    0.3884   -1.1264 C   0  0  2  0  0  0  0  0  0  0  0  0
    0.2376    1.7534   -1.0219 O   0  0  0  0  0  0  0  0  0  0  0  0
   -1.3102   -0.0415   -1.5277 C   0  0  1  0  0  0  0  0  0  0  0  0
   -1.3000   -1.4097   -1.6651 O   0  0  0  0  0  0  0  0  0  0  0  0
   -2.2898    0.3078   -0.4285 C   0  0  2  0  0  0  0  0  0  0  0  0
   -2.8599    1.5485   -0.7070 O   0  0  0  0  0  0  0  0  0  0  0  0
   -1.0366    1.3727    0.9574 H   0  0  0  0  0  0  0  0  0  0  0  0
   -2.0608    0.2310    2.9890 H   0  0  0  0  0  0  0  0  0  0  0  0
   -3.0362   -0.7205    1.8551 H   0  0  0  0  0  0  0  0  0  0  0  0
   -4.3271    0.9319    1.8550 H   0  0  0  0  0  0  0  0  0  0  0  0
    1.6177   -4.1373   -0.2366 H   0  0  0  0  0  0  0  0  0  0  0  0
    4.3518    0.4269   -0.2967 H   0  0  0  0  0  0  0  0  0  0  0  0
    4.2829   -0.6491   -1.7386 H   0  0  0  0  0  0  0  0  0  0  0  0
    2.9800    0.4858   -1.4105 H   0  0  0  0  0  0  0  0  0  0  0  0
    3.0220    1.8714    1.0790 H   0  0  0  0  0  0  0  0  0  0  0  0
    0.2881    0.4792    2.7479 H   0  0  0  0  0  0  0  0  0  0  0  0
    0.7176    0.0843   -2.0301 H   0  0  0  0  0  0  0  0  0  0  0  0
    0.8835    2.1514   -1.6524 H   0  0  0  0  0  0  0  0  0  0  0  0
   -1.5340    0.4816   -2.4751 H   0  0  0  0  0  0  0  0  0  0  0  0
   -2.1079   -1.8485   -1.2760 H   0  0  0  0  0  0  0  0  0  0  0  0
   -3.0556   -0.4639   -0.3492 H   0  0  0  0  0  0  0  0  0  0  0  0
   -2.8307    1.6596   -1.6861 H   0  0  0  0  0  0  0  0  0  0  0  0
  1  2  1  0
  2  3  1  0
  1  4  1  0
  4  5  1  0
  5  6  1  6
  6  7  2  3
  7  8  1  0
  7  9  1  0
  9 10  1  0
  5 11  1  0
 11 12  1  0
 11 13  2  3
  5 14  1  0
 14 15  1  0
 14 16  1  0
 16 17  1  0
 16 18  1  0
 18 19  1  0
 18  1  1  0
  1 20  1  1
  2 21  1  0
  2 22  1  0
  3 23  1  0
  8 24  1  0
 10 25  1  0
 10 26  1  0
 10 27  1  0
 12 28  1  0
 13 29  1  0
 14 30  1  6
 15 31  1  0
 16 32  1  6
 17 33  1  0
 18 34  1  1
 19 35  1  0
M  END
$$$$
