
     RDKit          3D

 62 65  0  0  0  0  0  0  0  0999 V2000
   -6.6174   -0.7957   -0.2425 C   0  0  0  0  0  0  0  0  0  0  0  0
   -5.9887    0.2423   -1.0173 N   0  0  0  0  0  0  0  0  0  0  0  0
   -5.9285   -0.0137   -2.4199 C   0  0  0  0  0  0  0  0  0  0  0  0
   -4.7647    0.7177   -0.4271 C   0  0  0  0  0  0  0  0  0  0  0  0
   -3.6465   -0.2744   -0.4394 C   0  0  0  0  0  0  0  0  0  0  0  0
   -2.4499    0.3675    0.2214 C   0  0  2  0  0  0  0  0  0  0  0  0
   -1.2844   -0.4952    0.2625 N   0  0  0  0  0  0  0  0  0  0  0  0
   -0.0140    0.0225   -0.1113 C   0  0  0  0  0  0  0  0  0  0  0  0
    0.0158    1.2495   -0.4631 O   0  0  0  0  0  0  0  0  0  0  0  0
    1.2459   -0.7551   -0.1137 C   0  0  0  0  0  0  0  0  0  0  0  0
    0.8909   -2.1486    0.0192 N   0  0  0  0  0  0  0  0  0  0  0  0
    2.0544   -0.3387    1.0948 C   0  0  0  0  0  0  0  0  0  0  0  0
    3.3652   -1.1065    1.1595 C   0  0  0  0  0  0  0  0  0  0  0  0
    4.0415   -0.9970   -0.1515 N   0  0  0  0  0  0  0  0  0  0  0  0
    5.3471   -0.4990   -0.1184 C   0  0  0  0  0  0  0  0  0  0  0  0
    6.1473   -0.7604    0.9705 N   0  0  0  0  0  0  0  0  0  0  0  0
    7.4105   -0.3664    1.0880 C   0  0  0  0  0  0  0  0  0  0  0  0
    7.9414    0.3357    0.0748 N   0  0  0  0  0  0  0  0  0  0  0  0
    7.1968    0.6183   -1.0163 C   0  0  0  0  0  0  0  0  0  0  0  0
    7.4925    1.3146   -2.1551 N   0  0  0  0  0  0  0  0  0  0  0  0
    6.4345    1.3543   -2.9643 C   0  0  0  0  0  0  0  0  0  0  0  0
    5.3941    0.6670   -2.3603 C   0  0  0  0  0  0  0  0  0  0  0  0
    5.8795    0.2158   -1.1574 C   0  0  0  0  0  0  0  0  0  0  0  0
    3.2821   -1.4517   -1.2647 C   0  0  0  0  0  0  0  0  0  0  0  0
    2.0395   -0.5721   -1.3795 C   0  0  0  0  0  0  0  0  0  0  0  0
   -2.8358    0.7998    1.5978 C   0  0  0  0  0  0  0  0  0  0  0  0
   -2.8943   -0.0976    2.6325 C   0  0  0  0  0  0  0  0  0  0  0  0
   -3.2454    0.3496    3.8754 C   0  0  0  0  0  0  0  0  0  0  0  0
   -3.5478    1.6776    4.1419 C   0  0  0  0  0  0  0  0  0  0  0  0
   -3.9894    2.1854    5.7445 Cl  0  0  0  0  0  0  0  0  0  0  0  0
   -3.4820    2.5747    3.0750 C   0  0  0  0  0  0  0  0  0  0  0  0
   -3.1280    2.1277    1.8179 C   0  0  0  0  0  0  0  0  0  0  0  0
   -6.7768   -1.7044   -0.8200 H   0  0  0  0  0  0  0  0  0  0  0  0
   -7.6379   -0.4079    0.0512 H   0  0  0  0  0  0  0  0  0  0  0  0
   -6.1114   -0.9546    0.7393 H   0  0  0  0  0  0  0  0  0  0  0  0
   -5.7308    0.9405   -2.9432 H   0  0  0  0  0  0  0  0  0  0  0  0
   -6.9795   -0.3129   -2.7228 H   0  0  0  0  0  0  0  0  0  0  0  0
   -5.2415   -0.7952   -2.7397 H   0  0  0  0  0  0  0  0  0  0  0  0
   -4.4360    1.6083   -0.9775 H   0  0  0  0  0  0  0  0  0  0  0  0
   -4.9588    1.0174    0.6249 H   0  0  0  0  0  0  0  0  0  0  0  0
   -3.9130   -1.2343    0.0501 H   0  0  0  0  0  0  0  0  0  0  0  0
   -3.4077   -0.4849   -1.5146 H   0  0  0  0  0  0  0  0  0  0  0  0
   -2.1996    1.2917   -0.3260 H   0  0  0  0  0  0  0  0  0  0  0  0
   -1.3614   -1.4930    0.5629 H   0  0  0  0  0  0  0  0  0  0  0  0
    0.2395   -2.3414   -0.8044 H   0  0  0  0  0  0  0  0  0  0  0  0
    0.4822   -2.4186    0.9190 H   0  0  0  0  0  0  0  0  0  0  0  0
    1.4666   -0.6518    1.9986 H   0  0  0  0  0  0  0  0  0  0  0  0
    2.1884    0.7431    1.1636 H   0  0  0  0  0  0  0  0  0  0  0  0
    3.1201   -2.1754    1.2892 H   0  0  0  0  0  0  0  0  0  0  0  0
    3.9806   -0.7562    1.9841 H   0  0  0  0  0  0  0  0  0  0  0  0
    8.0155   -0.5998    1.9782 H   0  0  0  0  0  0  0  0  0  0  0  0
    8.4612    1.7390   -2.2999 H   0  0  0  0  0  0  0  0  0  0  0  0
    6.3709    1.8289   -3.9281 H   0  0  0  0  0  0  0  0  0  0  0  0
    4.3907    0.5227   -2.7521 H   0  0  0  0  0  0  0  0  0  0  0  0
    3.8132   -1.5932   -2.2085 H   0  0  0  0  0  0  0  0  0  0  0  0
    2.8384   -2.4583   -0.9314 H   0  0  0  0  0  0  0  0  0  0  0  0
    2.3348    0.4695   -1.5438 H   0  0  0  0  0  0  0  0  0  0  0  0
    1.4527   -0.8672   -2.2756 H   0  0  0  0  0  0  0  0  0  0  0  0
   -2.6745   -1.1292    2.4862 H   0  0  0  0  0  0  0  0  0  0  0  0
   -3.2902   -0.3795    4.6935 H   0  0  0  0  0  0  0  0  0  0  0  0
   -3.7171    3.6150    3.2850 H   0  0  0  0  0  0  0  0  0  0  0  0
   -3.0808    2.8338    0.9944 H   0  0  0  0  0  0  0  0  0  0  0  0
  1  2  1  0
  2  3  1  0
  2  4  1  0
  4  5  1  0
  5  6  1  0
  6  7  1  0
  7  8  1  0
  8  9  2  0
  8 10  1  0
 10 11  1  0
 10 12  1  0
 12 13  1  0
 13 14  1  0
 14 15  1  0
 15 16  2  0
 16 17  1  0
 17 18  2  0
 18 19  1  0
 19 20  1  0
 20 21  1  0
 21 22  2  0
 22 23  1  0
 14 24  1  0
 24 25  1  0
  6 26  1  0
 26 27  2  0
 27 28  1  0
 28 29  2  0
 29 30  1  0
 29 31  1  0
 31 32  2  0
 25 10  1  0
 32 26  1  0
 23 15  1  0
 23 19  2  0
  1 33  1  0
  1 34  1  0
  1 35  1  0
  3 36  1  0
  3 37  1  0
  3 38  1  0
  4 39  1  0
  4 40  1  0
  5 41  1  0
  5 42  1  0
  6 43  1  6
  7 44  1  0
 11 45  1  0
 11 46  1  0
 12 47  1  0
 12 48  1  0
 13 49  1  0
 13 50  1  0
 17 51  1  0
 20 52  1  0
 21 53  1  0
 22 54  1  0
 24 55  1  0
 24 56  1  0
 25 57  1  0
 25 58  1  0
 27 59  1  0
 28 60  1  0
 31 61  1  0
 32 62  1  0
M  END
$$$$
