@<TRIPOS>MOLECULE
*****
 62 65 0 0 0
SMALL
GASTEIGER

@<TRIPOS>ATOM
      1 C          -6.6174   -0.7957   -0.2425 C.3     1  UNL1       -0.0130
      2 N          -5.9887    0.2423   -1.0173 N.3     1  UNL1       -0.3083
      3 C          -5.9285   -0.0137   -2.4199 C.3     1  UNL1       -0.0130
      4 C          -4.7647    0.7177   -0.4271 C.3     1  UNL1        0.0003
      5 C          -3.6465   -0.2744   -0.4394 C.3     1  UNL1       -0.0175
      6 C          -2.4499    0.3675    0.2214 C.3     1  UNL1        0.0496
      7 N          -1.2844   -0.4952    0.2625 N.am    1  UNL1       -0.3069
      8 C          -0.0140    0.0225   -0.1113 C.2     1  UNL1        0.2336
      9 O           0.0158    1.2495   -0.4631 O.2     1  UNL1       -0.2738
     10 C           1.2459   -0.7551   -0.1137 C.3     1  UNL1        0.0965
     11 N           0.8909   -2.1486    0.0192 N.3     1  UNL1       -0.3173
     12 C           2.0544   -0.3387    1.0948 C.3     1  UNL1       -0.0104
     13 C           3.3652   -1.1065    1.1595 C.3     1  UNL1        0.0156
     14 N           4.0415   -0.9970   -0.1515 N.pl3   1  UNL1       -0.3144
     15 C           5.3471   -0.4990   -0.1184 C.ar    1  UNL1        0.1337
     16 N           6.1473   -0.7604    0.9705 N.ar    1  UNL1       -0.2200
     17 C           7.4105   -0.3664    1.0880 C.ar    1  UNL1        0.1204
     18 N           7.9414    0.3357    0.0748 N.ar    1  UNL1       -0.2178
     19 C           7.1968    0.6183   -1.0163 C.ar    1  UNL1        0.1432
     20 N           7.4925    1.3146   -2.1551 N.ar    1  UNL1       -0.3457
     21 C           6.4345    1.3543   -2.9643 C.ar    1  UNL1        0.0042
     22 C           5.3941    0.6670   -2.3603 C.ar    1  UNL1       -0.0318
     23 C           5.8795    0.2158   -1.1574 C.ar    1  UNL1        0.0585
     24 C           3.2821   -1.4517   -1.2647 C.3     1  UNL1        0.0156
     25 C           2.0395   -0.5721   -1.3795 C.3     1  UNL1       -0.0104
     26 C          -2.8358    0.7998    1.5978 C.ar    1  UNL1       -0.0271
     27 C          -2.8943   -0.0976    2.6325 C.ar    1  UNL1       -0.0554
     28 C          -3.2454    0.3496    3.8754 C.ar    1  UNL1       -0.0431
     29 C          -3.5478    1.6776    4.1419 C.ar    1  UNL1        0.0410
     30 CL         -3.9894    2.1854    5.7445 Cl      1  UNL1       -0.0835
     31 C          -3.4820    2.5747    3.0750 C.ar    1  UNL1       -0.0431
     32 C          -3.1280    2.1277    1.8179 C.ar    1  UNL1       -0.0554
     33 H          -6.7768   -1.7044   -0.8200 H       1  UNL1        0.0391
     34 H          -7.6379   -0.4079    0.0512 H       1  UNL1        0.0391
     35 H          -6.1114   -0.9546    0.7393 H       1  UNL1        0.0391
     36 H          -5.7308    0.9405   -2.9432 H       1  UNL1        0.0391
     37 H          -6.9795   -0.3129   -2.7228 H       1  UNL1        0.0391
     38 H          -5.2415   -0.7952   -2.7397 H       1  UNL1        0.0391
     39 H          -4.4360    1.6083   -0.9775 H       1  UNL1        0.0427
     40 H          -4.9588    1.0174    0.6249 H       1  UNL1        0.0427
     41 H          -3.9130   -1.2343    0.0501 H       1  UNL1        0.0299
     42 H          -3.4077   -0.4849   -1.5146 H       1  UNL1        0.0299
     43 H          -2.1996    1.2917   -0.3260 H       1  UNL1        0.0549
     44 H          -1.3614   -1.4930    0.5629 H       1  UNL1        0.1493
     45 H           0.2395   -2.3414   -0.8044 H       1  UNL1        0.1192
     46 H           0.4822   -2.4186    0.9190 H       1  UNL1        0.1192
     47 H           1.4666   -0.6518    1.9986 H       1  UNL1        0.0303
     48 H           2.1884    0.7431    1.1636 H       1  UNL1        0.0303
     49 H           3.1201   -2.1754    1.2892 H       1  UNL1        0.0465
     50 H           3.9806   -0.7562    1.9841 H       1  UNL1        0.0465
     51 H           8.0155   -0.5998    1.9782 H       1  UNL1        0.1048
     52 H           8.4612    1.7390   -2.2999 H       1  UNL1        0.1668
     53 H           6.3709    1.8289   -3.9281 H       1  UNL1        0.0807
     54 H           4.3907    0.5227   -2.7521 H       1  UNL1        0.0640
     55 H           3.8132   -1.5932   -2.2085 H       1  UNL1        0.0465
     56 H           2.8384   -2.4583   -0.9314 H       1  UNL1        0.0465
     57 H           2.3348    0.4695   -1.5438 H       1  UNL1        0.0303
     58 H           1.4527   -0.8672   -2.2756 H       1  UNL1        0.0303
     59 H          -2.6745   -1.1292    2.4862 H       1  UNL1        0.0621
     60 H          -3.2902   -0.3795    4.6935 H       1  UNL1        0.0632
     61 H          -3.7171    3.6150    3.2850 H       1  UNL1        0.0632
     62 H          -3.0808    2.8338    0.9944 H       1  UNL1        0.0621
@<TRIPOS>BOND
     1     1     2    1
     2     2     3    1
     3     2     4    1
     4     4     5    1
     5     5     6    1
     6     6     7    1
     7     7     8   am
     8     8     9    2
     9     8    10    1
    10    10    11    1
    11    10    12    1
    12    12    13    1
    13    13    14    1
    14    14    15    1
    15    15    16   ar
    16    16    17   ar
    17    17    18   ar
    18    18    19   ar
    19    19    20   ar
    20    20    21   ar
    21    21    22   ar
    22    22    23   ar
    23    14    24    1
    24    24    25    1
    25     6    26    1
    26    26    27   ar
    27    27    28   ar
    28    28    29   ar
    29    29    30    1
    30    29    31   ar
    31    31    32   ar
    32    25    10    1
    33    32    26   ar
    34    23    15   ar
    35    23    19   ar
    36     1    33    1
    37     1    34    1
    38     1    35    1
    39     3    36    1
    40     3    37    1
    41     3    38    1
    42     4    39    1
    43     4    40    1
    44     5    41    1
    45     5    42    1
    46     6    43    1
    47     7    44    1
    48    11    45    1
    49    11    46    1
    50    12    47    1
    51    12    48    1
    52    13    49    1
    53    13    50    1
    54    17    51    1
    55    20    52    1
    56    21    53    1
    57    22    54    1
    58    24    55    1
    59    24    56    1
    60    25    57    1
    61    25    58    1
    62    27    59    1
    63    28    60    1
    64    31    61    1
    65    32    62    1
