
     RDKit          3D

 58 63  0  0  0  0  0  0  0  0999 V2000
    0.1458    0.7316    3.2263 N   0  0  0  0  0  0  0  0  0  0  0  0
   -0.2052   -0.0381    2.0626 C   0  0  0  0  0  0  0  0  0  0  0  0
   -0.1578    0.4573    0.8831 N   0  0  0  0  0  0  0  0  0  0  0  0
   -0.4904   -0.2431   -0.3181 C   0  0  0  0  0  0  0  0  0  0  0  0
   -0.5520   -1.7403   -0.1445 C   0  0  0  0  0  0  0  0  0  0  0  0
   -0.9867   -2.2125    1.1865 C   0  0  0  0  0  0  0  0  0  0  0  0
   -0.6043   -1.3452    2.2156 O   0  0  0  0  0  0  0  0  0  0  0  0
    0.6017   -0.0314   -1.3503 C   0  0  0  0  0  0  0  0  0  0  0  0
    1.9041   -0.3492   -0.9315 C   0  0  0  0  0  0  0  0  0  0  0  0
    2.9825   -0.2387   -1.7719 C   0  0  0  0  0  0  0  0  0  0  0  0
    4.3116   -0.5574   -1.3624 N   0  0  0  0  0  0  0  0  0  0  0  0
    5.1920    0.4023   -0.7845 C   0  0  0  0  0  0  0  0  0  0  0  0
    4.7426    1.5655   -0.6465 O   0  0  0  0  0  0  0  0  0  0  0  0
    6.5476    0.0687   -0.3690 C   0  0  0  0  0  0  0  0  0  0  0  0
    7.3262    1.0626    0.1802 C   0  0  0  0  0  0  0  0  0  0  0  0
    8.6341    0.8492    0.6095 C   0  0  0  0  0  0  0  0  0  0  0  0
    9.1271   -0.4288    0.4576 C   0  0  0  0  0  0  0  0  0  0  0  0
   10.7648   -0.7783    0.9736 Cl  0  0  0  0  0  0  0  0  0  0  0  0
    8.3250   -1.4047   -0.0957 C   0  0  0  0  0  0  0  0  0  0  0  0
    7.0676   -1.1572   -0.4973 N   0  0  0  0  0  0  0  0  0  0  0  0
    2.7585    0.2008   -3.0663 C   0  0  0  0  0  0  0  0  0  0  0  0
    1.4783    0.5142   -3.4790 C   0  0  0  0  0  0  0  0  0  0  0  0
    0.3980    0.3997   -2.6232 C   0  0  0  0  0  0  0  0  0  0  0  0
   -0.8922    0.7175   -3.0270 O   0  0  0  0  0  0  0  0  0  0  0  0
   -1.9603    0.6001   -2.1444 C   0  0  0  0  0  0  0  0  0  0  0  0
   -3.2550    0.9342   -2.5648 C   0  0  0  0  0  0  0  0  0  0  0  0
   -4.3107    0.8455   -1.7496 N   0  0  0  0  0  0  0  0  0  0  0  0
   -4.1774    0.4222   -0.4580 C   0  0  0  0  0  0  0  0  0  0  0  0
   -5.3813    0.3484    0.3794 C   0  0  0  0  0  0  0  0  0  0  0  0
   -6.5740    0.6805   -0.1217 C   0  0  0  0  0  0  0  0  0  0  0  0
   -7.7327    0.5759    0.7927 C   0  0  0  0  0  0  0  0  0  0  0  0
   -7.3489    1.1502    2.1200 C   0  0  0  0  0  0  0  0  0  0  0  0
   -6.0566    0.9214    2.5113 O   0  0  0  0  0  0  0  0  0  0  0  0
   -5.3958   -0.0766    1.7914 C   0  0  0  0  0  0  0  0  0  0  0  0
   -2.9345    0.0854   -0.0055 C   0  0  0  0  0  0  0  0  0  0  0  0
   -1.8128    0.1729   -0.8566 C   0  0  0  0  0  0  0  0  0  0  0  0
   -0.5142    1.4115    3.6626 H   0  0  0  0  0  0  0  0  0  0  0  0
    1.0985    0.6048    3.6512 H   0  0  0  0  0  0  0  0  0  0  0  0
    0.4928   -2.1512   -0.3542 H   0  0  0  0  0  0  0  0  0  0  0  0
   -1.1974   -2.1611   -0.9668 H   0  0  0  0  0  0  0  0  0  0  0  0
   -2.0917   -2.4236    1.2125 H   0  0  0  0  0  0  0  0  0  0  0  0
   -0.5035   -3.2350    1.3750 H   0  0  0  0  0  0  0  0  0  0  0  0
    2.0451   -0.6938    0.0994 H   0  0  0  0  0  0  0  0  0  0  0  0
    4.6898   -1.5254   -1.4757 H   0  0  0  0  0  0  0  0  0  0  0  0
    6.8894    2.0630    0.2803 H   0  0  0  0  0  0  0  0  0  0  0  0
    9.2095    1.6612    1.0357 H   0  0  0  0  0  0  0  0  0  0  0  0
    8.7732   -2.4049   -0.1914 H   0  0  0  0  0  0  0  0  0  0  0  0
    3.6244    0.2841   -3.7256 H   0  0  0  0  0  0  0  0  0  0  0  0
    1.3140    0.8623   -4.5104 H   0  0  0  0  0  0  0  0  0  0  0  0
   -3.3297    1.2673   -3.5952 H   0  0  0  0  0  0  0  0  0  0  0  0
   -6.6707    1.0010   -1.1253 H   0  0  0  0  0  0  0  0  0  0  0  0
   -8.6249    1.1212    0.4001 H   0  0  0  0  0  0  0  0  0  0  0  0
   -8.0182   -0.4964    0.9492 H   0  0  0  0  0  0  0  0  0  0  0  0
   -8.0916    0.8406    2.8938 H   0  0  0  0  0  0  0  0  0  0  0  0
   -7.4694    2.2698    2.0332 H   0  0  0  0  0  0  0  0  0  0  0  0
   -4.3823   -0.1169    2.1730 H   0  0  0  0  0  0  0  0  0  0  0  0
   -5.9352   -1.0446    1.8705 H   0  0  0  0  0  0  0  0  0  0  0  0
   -2.7867   -0.2385    1.0136 H   0  0  0  0  0  0  0  0  0  0  0  0
  1  2  1  0
  2  3  2  0
  3  4  1  0
  4  5  1  0
  5  6  1  0
  6  7  1  0
  4  8  1  0
  8  9  2  0
  9 10  1  0
 10 11  1  0
 11 12  1  0
 12 13  2  0
 12 14  1  0
 14 15  2  0
 15 16  1  0
 16 17  2  0
 17 18  1  0
 17 19  1  0
 19 20  2  0
 10 21  2  0
 21 22  1  0
 22 23  2  0
 23 24  1  0
 24 25  1  0
 25 26  2  0
 26 27  1  0
 27 28  2  0
 28 29  1  0
 29 30  2  0
 30 31  1  0
 31 32  1  0
 32 33  1  0
 33 34  1  0
 28 35  1  0
 35 36  2  0
  7  2  1  0
 23  8  1  0
 36 25  1  0
 36  4  1  0
 20 14  1  0
 34 29  1  0
  1 37  1  0
  1 38  1  0
  5 39  1  0
  5 40  1  0
  6 41  1  0
  6 42  1  0
  9 43  1  0
 11 44  1  0
 15 45  1  0
 16 46  1  0
 19 47  1  0
 21 48  1  0
 22 49  1  0
 26 50  1  0
 30 51  1  0
 31 52  1  0
 31 53  1  0
 32 54  1  0
 32 55  1  0
 34 56  1  0
 34 57  1  0
 35 58  1  0
M  END
$$$$
