@<TRIPOS>MOLECULE
*****
 58 63 0 0 0
SMALL
GASTEIGER

@<TRIPOS>ATOM
      1 N           0.1458    0.7316    3.2263 N.pl3   1  UNL1       -0.3134
      2 C          -0.2052   -0.0381    2.0626 C.2     1  UNL1        0.2763
      3 N          -0.1578    0.4573    0.8831 N.2     1  UNL1       -0.2205
      4 C          -0.4904   -0.2431   -0.3181 C.3     1  UNL1        0.1264
      5 C          -0.5520   -1.7403   -0.1445 C.3     1  UNL1        0.0155
      6 C          -0.9867   -2.2125    1.1865 C.3     1  UNL1        0.0953
      7 O          -0.6043   -1.3452    2.2156 O.2     1  UNL1       -0.4658
      8 C           0.6017   -0.0314   -1.3503 C.ar    1  UNL1        0.0287
      9 C           1.9041   -0.3492   -0.9315 C.ar    1  UNL1       -0.0312
     10 C           2.9825   -0.2387   -1.7719 C.ar    1  UNL1        0.0343
     11 N           4.3116   -0.5574   -1.3624 N.am    1  UNL1       -0.2802
     12 C           5.1920    0.4023   -0.7845 C.2     1  UNL1        0.2666
     13 O           4.7426    1.5655   -0.6465 O.2     1  UNL1       -0.2682
     14 C           6.5476    0.0687   -0.3690 C.ar    1  UNL1        0.1257
     15 C           7.3262    1.0626    0.1802 C.ar    1  UNL1       -0.0298
     16 C           8.6341    0.8492    0.6095 C.ar    1  UNL1       -0.0397
     17 C           9.1271   -0.4288    0.4576 C.ar    1  UNL1        0.0591
     18 CL         10.7648   -0.7783    0.9736 Cl      1  UNL1       -0.0820
     19 C           8.3250   -1.4047   -0.0957 C.ar    1  UNL1        0.0467
     20 N           7.0676   -1.1572   -0.4973 N.ar    1  UNL1       -0.2489
     21 C           2.7585    0.2008   -3.0663 C.ar    1  UNL1       -0.0370
     22 C           1.4783    0.5142   -3.4790 C.ar    1  UNL1       -0.0172
     23 C           0.3980    0.3997   -2.6232 C.ar    1  UNL1        0.1344
     24 O          -0.8922    0.7175   -3.0270 O.3     1  UNL1       -0.4538
     25 C          -1.9603    0.6001   -2.1444 C.ar    1  UNL1        0.1523
     26 C          -3.2550    0.9342   -2.5648 C.ar    1  UNL1        0.0708
     27 N          -4.3107    0.8455   -1.7496 N.ar    1  UNL1       -0.2516
     28 C          -4.1774    0.4222   -0.4580 C.ar    1  UNL1        0.0695
     29 C          -5.3813    0.3484    0.3794 C.2     1  UNL1       -0.0004
     30 C          -6.5740    0.6805   -0.1217 C.2     1  UNL1       -0.0745
     31 C          -7.7327    0.5759    0.7927 C.3     1  UNL1       -0.0105
     32 C          -7.3489    1.1502    2.1200 C.3     1  UNL1        0.0515
     33 O          -6.0566    0.9214    2.5113 O.3     1  UNL1       -0.3748
     34 C          -5.3958   -0.0766    1.7914 C.3     1  UNL1        0.0744
     35 C          -2.9345    0.0854   -0.0055 C.ar    1  UNL1       -0.0266
     36 C          -1.8128    0.1729   -0.8566 C.ar    1  UNL1        0.0304
     37 H          -0.5142    1.4115    3.6626 H       1  UNL1        0.1466
     38 H           1.0985    0.6048    3.6512 H       1  UNL1        0.1466
     39 H           0.4928   -2.1512   -0.3542 H       1  UNL1        0.0328
     40 H          -1.1974   -2.1611   -0.9668 H       1  UNL1        0.0328
     41 H          -2.0917   -2.4236    1.2125 H       1  UNL1        0.0698
     42 H          -0.5035   -3.2350    1.3750 H       1  UNL1        0.0698
     43 H           2.0451   -0.6938    0.0994 H       1  UNL1        0.0641
     44 H           4.6898   -1.5254   -1.4757 H       1  UNL1        0.1552
     45 H           6.8894    2.0630    0.2803 H       1  UNL1        0.0641
     46 H           9.2095    1.6612    1.0357 H       1  UNL1        0.0633
     47 H           8.7732   -2.4049   -0.1914 H       1  UNL1        0.0844
     48 H           3.6244    0.2841   -3.7256 H       1  UNL1        0.0637
     49 H           1.3140    0.8623   -4.5104 H       1  UNL1        0.0655
     50 H          -3.3297    1.2673   -3.5952 H       1  UNL1        0.0867
     51 H          -6.6707    1.0010   -1.1253 H       1  UNL1        0.0577
     52 H          -8.6249    1.1212    0.4001 H       1  UNL1        0.0330
     53 H          -8.0182   -0.4964    0.9492 H       1  UNL1        0.0330
     54 H          -8.0916    0.8406    2.8938 H       1  UNL1        0.0563
     55 H          -7.4694    2.2698    2.0332 H       1  UNL1        0.0563
     56 H          -4.3823   -0.1169    2.1730 H       1  UNL1        0.0610
     57 H          -5.9352   -1.0446    1.8705 H       1  UNL1        0.0610
     58 H          -2.7867   -0.2385    1.0136 H       1  UNL1        0.0644
@<TRIPOS>BOND
     1     1     2    1
     2     2     3    2
     3     3     4    1
     4     4     5    1
     5     5     6    1
     6     6     7    1
     7     4     8    1
     8     8     9   ar
     9     9    10   ar
    10    10    11    1
    11    11    12   am
    12    12    13    2
    13    12    14    1
    14    14    15   ar
    15    15    16   ar
    16    16    17   ar
    17    17    18    1
    18    17    19   ar
    19    19    20   ar
    20    10    21   ar
    21    21    22   ar
    22    22    23   ar
    23    23    24    1
    24    24    25    1
    25    25    26   ar
    26    26    27   ar
    27    27    28   ar
    28    28    29    1
    29    29    30    2
    30    30    31    1
    31    31    32    1
    32    32    33    1
    33    33    34    1
    34    28    35   ar
    35    35    36   ar
    36     7     2    1
    37    23     8   ar
    38    36    25   ar
    39    36     4    1
    40    20    14   ar
    41    34    29    1
    42     1    37    1
    43     1    38    1
    44     5    39    1
    45     5    40    1
    46     6    41    1
    47     6    42    1
    48     9    43    1
    49    11    44    1
    50    15    45    1
    51    16    46    1
    52    19    47    1
    53    21    48    1
    54    22    49    1
    55    26    50    1
    56    30    51    1
    57    31    52    1
    58    31    53    1
    59    32    54    1
    60    32    55    1
    61    34    56    1
    62    34    57    1
    63    35    58    1
