@<TRIPOS>MOLECULE
*****
 169 174 0 0 0
SMALL
GASTEIGER

@<TRIPOS>ATOM
      1 O           2.9173    0.2208    1.5643 O.co2   1  UNL1       -0.7202
      2 S           2.3313   -0.0913    0.0042 S.3     1  UNL1       -0.0512
      3 O           2.7633   -1.4681   -0.3929 O.2     1  UNL1       -0.1803
      4 O           2.8579    0.9670   -0.8859 O.2     1  UNL1       -0.1803
      5 C           0.5802   -0.0397   -0.0089 C.ar    1  UNL1        0.0766
      6 C          -0.0215    1.1798   -0.2678 C.ar    1  UNL1       -0.0378
      7 C          -1.3991    1.2581   -0.2861 C.ar    1  UNL1       -0.0600
      8 C          -2.1199    0.0869   -0.0390 C.ar    1  UNL1       -0.0616
      9 C          -1.4987   -1.1325    0.2200 C.ar    1  UNL1       -0.0600
     10 C          -0.1170   -1.2056    0.2372 C.ar    1  UNL1       -0.0378
     11 O           2.9173    0.2208    1.5643 O.co2   2  UNL2       -0.7202
     12 S           2.3313   -0.0913    0.0042 S.3     2  UNL2       -0.0512
     13 O           2.7633   -1.4681   -0.3929 O.2     2  UNL2       -0.1803
     14 O           2.8579    0.9670   -0.8859 O.2     2  UNL2       -0.1803
     15 C           0.5802   -0.0397   -0.0089 C.ar    2  UNL2        0.0766
     16 C          -0.0215    1.1798   -0.2678 C.ar    2  UNL2       -0.0378
     17 C          -1.3991    1.2581   -0.2861 C.ar    2  UNL2       -0.0600
     18 C          -2.1199    0.0869   -0.0390 C.ar    2  UNL2       -0.0616
     19 C          -1.4987   -1.1325    0.2200 C.ar    2  UNL2       -0.0600
     20 C          -0.1170   -1.2056    0.2372 C.ar    2  UNL2       -0.0378
     21 C          10.9660    2.9430   -4.6983 C.3     3  UNL3        0.0790
     22 O          11.0107    2.3327   -3.4460 O.3     3  UNL3       -0.4914
     23 C           9.9357    1.8095   -2.7530 C.ar    3  UNL3        0.1618
     24 C           8.6531    1.8352   -3.2400 C.ar    3  UNL3       -0.0125
     25 C           7.6864    1.2851   -2.4407 C.ar    3  UNL3       -0.0302
     26 C           7.7590    0.6834   -1.1788 C.ar    3  UNL3        0.0076
     27 C           9.0863    0.7340   -0.8464 C.ar    3  UNL3       -0.0075
     28 C          10.1669    1.2431   -1.5209 C.ar    3  UNL3        0.1620
     29 O          11.4862    1.2237   -1.0353 O.3     3  UNL3       -0.4914
     30 C          11.7661    0.6012    0.2125 C.3     3  UNL3        0.0790
     31 C           6.6463    0.1735   -0.4121 C.3     3  UNL3        0.0110
     32 C           6.7045    0.4266    1.0594 C.3     3  UNL3        0.0201
     33 C           7.8366   -0.0505    1.8369 C.ar    3  UNL3       -0.0380
     34 C           8.7806    0.8278    2.4183 C.ar    3  UNL3       -0.0129
     35 C           9.8862    0.3700    3.1531 C.ar    3  UNL3        0.1617
     36 O          10.7123    1.3778    3.6537 O.3     3  UNL3       -0.4914
     37 C          10.4030    2.7259    3.4066 C.3     3  UNL3        0.0790
     38 C          10.0872   -0.9902    3.3354 C.ar    3  UNL3        0.1615
     39 O          11.2177   -1.2332    4.0745 O.3     3  UNL3       -0.4915
     40 C          11.6435   -2.5187    4.3917 C.3     3  UNL3        0.0790
     41 C           9.1715   -1.8478    2.7733 C.ar    3  UNL3       -0.0160
     42 C           8.0956   -1.3844    2.0571 C.ar    3  UNL3       -0.0547
     43 N           5.3551    0.6604   -0.8872 N.4     3  UNL3        0.2474
     44 C           4.7480    1.5508    0.1521 C.3     3  UNL3       -0.0407
     45 C           4.3442   -0.3367   -1.0894 C.3     3  UNL3       -0.0195
     46 C           4.0389   -1.2619    0.0274 C.3     3  UNL3        0.0850
     47 C           2.8667   -2.1891   -0.2710 C.2     3  UNL3        0.3122
     48 O           2.7678   -3.2705    0.3465 O.2     3  UNL3       -0.2506
     49 O           2.0627   -1.6625   -1.2076 O.3     3  UNL3       -0.4645
     50 C           0.8793   -2.2019   -1.6781 C.3     3  UNL3        0.0925
     51 C          -0.3195   -2.1244   -0.7757 C.3     3  UNL3       -0.0184
     52 C          -0.2392   -2.7687    0.5530 C.3     3  UNL3       -0.0469
     53 C          -1.4946   -2.6784    1.3424 C.3     3  UNL3       -0.0184
     54 C          -2.0027   -1.4012    1.8671 C.3     3  UNL3        0.0925
     55 O          -2.3175   -0.3726    1.1581 O.3     3  UNL3       -0.4645
     56 C          -2.6253    0.6597    0.4451 C.2     3  UNL3        0.3122
     57 O          -1.5311    1.0775    0.0014 O.2     3  UNL3       -0.2506
     58 C          -3.6341    1.5735   -0.0876 C.3     3  UNL3        0.0850
     59 C          -5.0239    1.0768    0.0644 C.3     3  UNL3       -0.0195
     60 N          -5.4285   -0.0608   -0.6609 N.4     3  UNL3        0.2474
     61 C          -4.6663   -1.2273   -0.4066 C.3     3  UNL3       -0.0407
     62 C          -5.4258    0.1522   -2.1093 C.3     3  UNL3       -0.0256
     63 C          -6.6816    0.7688   -2.6439 C.3     3  UNL3        0.0133
     64 C          -7.4282    1.5434   -1.5975 C.ar    3  UNL3       -0.0302
     65 C          -7.4983    0.9306   -0.3260 C.ar    3  UNL3        0.0076
     66 C          -8.1509    1.7183    0.5800 C.ar    3  UNL3       -0.0075
     67 C          -8.6939    2.9528    0.3490 C.ar    3  UNL3        0.1620
     68 O          -9.3110    3.5839    1.3970 O.3     3  UNL3       -0.4914
     69 C          -9.4129    3.0327    2.6721 C.3     3  UNL3        0.0790
     70 C          -8.5974    3.5014   -0.9114 C.ar    3  UNL3        0.1618
     71 O          -9.1777    4.7459   -1.0304 O.3     3  UNL3       -0.4914
     72 C          -9.2096    5.5303   -2.1965 C.3     3  UNL3        0.0790
     73 C          -7.9516    2.7675   -1.8803 C.ar    3  UNL3       -0.0125
     74 C          -6.8400   -0.3655   -0.3522 C.3     3  UNL3        0.0110
     75 C          -7.0142   -1.2874    0.7882 C.3     3  UNL3        0.0201
     76 C          -8.4138   -1.6250    1.0569 C.ar    3  UNL3       -0.0380
     77 C          -8.9150   -2.6230    0.1992 C.ar    3  UNL3       -0.0129
     78 C         -10.1962   -3.1720    0.2361 C.ar    3  UNL3        0.1617
     79 O         -10.6465   -4.1527   -0.6251 O.3     3  UNL3       -0.4914
     80 C          -9.7543   -4.6468   -1.6063 C.3     3  UNL3        0.0790
     81 C         -11.0586   -2.7008    1.1959 C.ar    3  UNL3        0.1615
     82 O         -12.3333   -3.2280    1.2547 O.3     3  UNL3       -0.4915
     83 C         -13.3158   -2.8412    2.1855 C.3     3  UNL3        0.0790
     84 C         -10.6600   -1.7354    2.0693 C.ar    3  UNL3       -0.0160
     85 C          -9.3834   -1.2572    1.9574 C.ar    3  UNL3       -0.0547
     86 C           5.3637    1.5344   -2.0149 C.3     3  UNL3       -0.0256
     87 C           6.3235    1.2737   -3.0990 C.3     3  UNL3        0.0133
     88 H           0.5910    2.0649   -0.4545 H       1  UNL1        0.0636
     89 H          -1.9146    2.1901   -0.4841 H       1  UNL1        0.0618
     90 H          -3.2193    0.1120   -0.0456 H       1  UNL1        0.0618
     91 H          -2.1334   -1.9984    0.4026 H       1  UNL1        0.0618
     92 H           0.3826   -2.1439    0.4365 H       1  UNL1        0.0636
     93 H           0.5910    2.0649   -0.4545 H       2  UNL2        0.0636
     94 H          -1.9146    2.1901   -0.4841 H       2  UNL2        0.0618
     95 H          -3.2193    0.1120   -0.0456 H       2  UNL2        0.0618
     96 H          -2.1334   -1.9984    0.4026 H       2  UNL2        0.0618
     97 H           0.3826   -2.1439    0.4365 H       2  UNL2        0.0636
     98 H           9.9617    3.2510   -5.0439 H       3  UNL3        0.0660
     99 H          11.5289    3.9123   -4.5996 H       3  UNL3        0.0660
    100 H          11.5213    2.3708   -5.4795 H       3  UNL3        0.0660
    101 H           8.4285    2.2681   -4.2006 H       3  UNL3        0.0658
    102 H           9.3844    0.2585    0.0571 H       3  UNL3        0.0660
    103 H          11.5920    1.3177    1.0290 H       3  UNL3        0.0660
    104 H          12.8784    0.4198    0.2097 H       3  UNL3        0.0660
    105 H          11.2717   -0.3544    0.3638 H       3  UNL3        0.0660
    106 H           6.6613   -0.9530   -0.5240 H       3  UNL3        0.0908
    107 H           5.8237   -0.1765    1.4824 H       3  UNL3        0.0372
    108 H           6.4816    1.5067    1.2968 H       3  UNL3        0.0372
    109 H           8.5657    1.8718    2.2389 H       3  UNL3        0.0658
    110 H           9.4839    3.0635    3.9598 H       3  UNL3        0.0660
    111 H          10.2895    2.9513    2.3277 H       3  UNL3        0.0660
    112 H          11.2812    3.3386    3.7438 H       3  UNL3        0.0660
    113 H          11.6503   -2.6724    5.5013 H       3  UNL3        0.0660
    114 H          12.7142   -2.6436    4.0876 H       3  UNL3        0.0660
    115 H          11.0521   -3.2881    3.8918 H       3  UNL3        0.0660
    116 H           9.3523   -2.8804    2.9315 H       3  UNL3        0.0655
    117 H           7.4319   -2.1203    1.6531 H       3  UNL3        0.0621
    118 H           4.4976    1.0795    1.0719 H       3  UNL3        0.0778
    119 H           3.7364    1.7786   -0.3421 H       3  UNL3        0.0778
    120 H           5.2302    2.5363    0.1651 H       3  UNL3        0.0778
    121 H           4.5244   -0.9485   -2.0074 H       3  UNL3        0.0820
    122 H           3.3776    0.2236   -1.3096 H       3  UNL3        0.0820
    123 H           3.6555   -0.7298    0.9598 H       3  UNL3        0.0431
    124 H           4.8653   -1.9572    0.2481 H       3  UNL3        0.0431
    125 H           0.9917   -3.3152   -1.9137 H       3  UNL3        0.0697
    126 H           0.6022   -1.7806   -2.6787 H       3  UNL3        0.0697
    127 H          -0.6053   -1.0733   -0.7065 H       3  UNL3        0.0298
    128 H          -1.1398   -2.6973   -1.3354 H       3  UNL3        0.0298
    129 H           0.5866   -2.2564    1.1828 H       3  UNL3        0.0267
    130 H           0.0057   -3.8255    0.4198 H       3  UNL3        0.0267
    131 H          -1.4626   -3.3860    2.2334 H       3  UNL3        0.0298
    132 H          -2.2927   -3.2117    0.7030 H       3  UNL3        0.0298
    133 H          -1.2528   -1.1068    2.7358 H       3  UNL3        0.0697
    134 H          -2.9365   -1.6430    2.5469 H       3  UNL3        0.0697
    135 H          -3.3957    1.7709   -1.1775 H       3  UNL3        0.0431
    136 H          -3.4844    2.5763    0.3998 H       3  UNL3        0.0431
    137 H          -5.6902    1.9813   -0.0772 H       3  UNL3        0.0820
    138 H          -5.2458    0.8272    1.1627 H       3  UNL3        0.0820
    139 H          -4.6049   -1.5894    0.6153 H       3  UNL3        0.0778
    140 H          -5.1600   -2.0968   -0.9720 H       3  UNL3        0.0778
    141 H          -3.6757   -1.1574   -0.9466 H       3  UNL3        0.0778
    142 H          -5.3639   -0.8728   -2.5621 H       3  UNL3        0.0818
    143 H          -4.5449    0.6930   -2.4527 H       3  UNL3        0.0818
    144 H          -7.3627    0.0059   -3.0335 H       3  UNL3        0.0365
    145 H          -6.4053    1.4389   -3.4940 H       3  UNL3        0.0365
    146 H          -8.1907    1.2797    1.5571 H       3  UNL3        0.0660
    147 H         -10.0877    2.1684    2.6725 H       3  UNL3        0.0660
    148 H          -9.7858    3.8313    3.3431 H       3  UNL3        0.0660
    149 H          -8.3966    2.7521    3.0412 H       3  UNL3        0.0660
    150 H         -10.2007    5.4469   -2.7077 H       3  UNL3        0.0660
    151 H          -8.4125    5.1829   -2.8839 H       3  UNL3        0.0660
    152 H          -8.9663    6.5982   -1.9732 H       3  UNL3        0.0660
    153 H          -7.8936    3.2283   -2.8639 H       3  UNL3        0.0658
    154 H          -7.2149   -0.9318   -1.2558 H       3  UNL3        0.0908
    155 H          -6.5560   -0.8902    1.7388 H       3  UNL3        0.0372
    156 H          -6.4866   -2.2445    0.5120 H       3  UNL3        0.0372
    157 H          -8.3094   -3.0705   -0.6064 H       3  UNL3        0.0658
    158 H          -9.3363   -3.8864   -2.2684 H       3  UNL3        0.0660
    159 H         -10.3299   -5.4379   -2.1693 H       3  UNL3        0.0660
    160 H          -8.9434   -5.1760   -1.0243 H       3  UNL3        0.0660
    161 H         -13.4277   -1.7406    2.1379 H       3  UNL3        0.0660
    162 H         -13.0361   -3.1079    3.2277 H       3  UNL3        0.0660
    163 H         -14.2775   -3.3340    1.9442 H       3  UNL3        0.0660
    164 H         -11.2704   -1.3166    2.8428 H       3  UNL3        0.0655
    165 H          -9.0211   -0.5100    2.6490 H       3  UNL3        0.0621
    166 H           5.4547    2.6183   -1.7375 H       3  UNL3        0.0818
    167 H           4.3304    1.4852   -2.4775 H       3  UNL3        0.0818
    168 H           6.2196    0.2940   -3.5992 H       3  UNL3        0.0365
    169 H           6.2353    2.0448   -3.8641 H       3  UNL3        0.0365
@<TRIPOS>UNITY_ATOM_ATTR
1 1
charge -1
11 1
charge -1
43 1
charge 1
60 1
charge 1
@<TRIPOS>BOND
     1     1     2    1
     2     2     3    2
     3     2     4    2
     4     2     5    1
     5     5     6   ar
     6     6     7   ar
     7     7     8   ar
     8     8     9   ar
     9     9    10   ar
    10    11    12    1
    11    12    13    2
    12    12    14    2
    13    12    15    1
    14    15    16   ar
    15    16    17   ar
    16    17    18   ar
    17    18    19   ar
    18    19    20   ar
    19    21    22    1
    20    22    23    1
    21    23    24   ar
    22    24    25   ar
    23    25    26   ar
    24    26    27   ar
    25    27    28   ar
    26    28    29    1
    27    29    30    1
    28    26    31    1
    29    31    32    1
    30    32    33    1
    31    33    34   ar
    32    34    35   ar
    33    35    36    1
    34    36    37    1
    35    35    38   ar
    36    38    39    1
    37    39    40    1
    38    38    41   ar
    39    41    42   ar
    40    31    43    1
    41    43    44    1
    42    43    45    1
    43    45    46    1
    44    46    47    1
    45    47    48    2
    46    47    49    1
    47    49    50    1
    48    50    51    1
    49    51    52    1
    50    52    53    1
    51    53    54    1
    52    54    55    1
    53    55    56    1
    54    56    57    2
    55    56    58    1
    56    58    59    1
    57    59    60    1
    58    60    61    1
    59    60    62    1
    60    62    63    1
    61    63    64    1
    62    64    65   ar
    63    65    66   ar
    64    66    67   ar
    65    67    68    1
    66    68    69    1
    67    67    70   ar
    68    70    71    1
    69    71    72    1
    70    70    73   ar
    71    65    74    1
    72    74    75    1
    73    75    76    1
    74    76    77   ar
    75    77    78   ar
    76    78    79    1
    77    79    80    1
    78    78    81   ar
    79    81    82    1
    80    82    83    1
    81    81    84   ar
    82    84    85   ar
    83    43    86    1
    84    86    87    1
    85    10     5   ar
    86    20    15   ar
    87    28    23   ar
    88    42    33   ar
    89    74    60    1
    90    85    76   ar
    91    87    25    1
    92    73    64   ar
    93     6    88    1
    94     7    89    1
    95     8    90    1
    96     9    91    1
    97    10    92    1
    98    16    93    1
    99    17    94    1
   100    18    95    1
   101    19    96    1
   102    20    97    1
   103    21    98    1
   104    21    99    1
   105    21   100    1
   106    24   101    1
   107    27   102    1
   108    30   103    1
   109    30   104    1
   110    30   105    1
   111    31   106    1
   112    32   107    1
   113    32   108    1
   114    34   109    1
   115    37   110    1
   116    37   111    1
   117    37   112    1
   118    40   113    1
   119    40   114    1
   120    40   115    1
   121    41   116    1
   122    42   117    1
   123    44   118    1
   124    44   119    1
   125    44   120    1
   126    45   121    1
   127    45   122    1
   128    46   123    1
   129    46   124    1
   130    50   125    1
   131    50   126    1
   132    51   127    1
   133    51   128    1
   134    52   129    1
   135    52   130    1
   136    53   131    1
   137    53   132    1
   138    54   133    1
   139    54   134    1
   140    58   135    1
   141    58   136    1
   142    59   137    1
   143    59   138    1
   144    61   139    1
   145    61   140    1
   146    61   141    1
   147    62   142    1
   148    62   143    1
   149    63   144    1
   150    63   145    1
   151    66   146    1
   152    69   147    1
   153    69   148    1
   154    69   149    1
   155    72   150    1
   156    72   151    1
   157    72   152    1
   158    73   153    1
   159    74   154    1
   160    75   155    1
   161    75   156    1
   162    77   157    1
   163    80   158    1
   164    80   159    1
   165    80   160    1
   166    83   161    1
   167    83   162    1
   168    83   163    1
   169    84   164    1
   170    85   165    1
   171    86   166    1
   172    86   167    1
   173    87   168    1
   174    87   169    1
