
     RDKit          3D

169174  0  0  0  0  0  0  0  0999 V2000
    2.9173    0.2208    1.5643 O   0  0  0  0  0  1  0  0  0  0  0  0
    2.3313   -0.0913    0.0042 S   0  0  0  0  0  0  0  0  0  0  0  0
    2.7633   -1.4681   -0.3929 O   0  0  0  0  0  0  0  0  0  0  0  0
    2.8579    0.9670   -0.8859 O   0  0  0  0  0  0  0  0  0  0  0  0
    0.5802   -0.0397   -0.0089 C   0  0  0  0  0  0  0  0  0  0  0  0
   -0.0215    1.1798   -0.2678 C   0  0  0  0  0  0  0  0  0  0  0  0
   -1.3991    1.2581   -0.2861 C   0  0  0  0  0  0  0  0  0  0  0  0
   -2.1199    0.0869   -0.0390 C   0  0  0  0  0  0  0  0  0  0  0  0
   -1.4987   -1.1325    0.2200 C   0  0  0  0  0  0  0  0  0  0  0  0
   -0.1170   -1.2056    0.2372 C   0  0  0  0  0  0  0  0  0  0  0  0
    2.9173    0.2208    1.5643 O   0  0  0  0  0  1  0  0  0  0  0  0
    2.3313   -0.0913    0.0042 S   0  0  0  0  0  0  0  0  0  0  0  0
    2.7633   -1.4681   -0.3929 O   0  0  0  0  0  0  0  0  0  0  0  0
    2.8579    0.9670   -0.8859 O   0  0  0  0  0  0  0  0  0  0  0  0
    0.5802   -0.0397   -0.0089 C   0  0  0  0  0  0  0  0  0  0  0  0
   -0.0215    1.1798   -0.2678 C   0  0  0  0  0  0  0  0  0  0  0  0
   -1.3991    1.2581   -0.2861 C   0  0  0  0  0  0  0  0  0  0  0  0
   -2.1199    0.0869   -0.0390 C   0  0  0  0  0  0  0  0  0  0  0  0
   -1.4987   -1.1325    0.2200 C   0  0  0  0  0  0  0  0  0  0  0  0
   -0.1170   -1.2056    0.2372 C   0  0  0  0  0  0  0  0  0  0  0  0
   10.9660    2.9430   -4.6983 C   0  0  0  0  0  0  0  0  0  0  0  0
   11.0107    2.3327   -3.4460 O   0  0  0  0  0  0  0  0  0  0  0  0
    9.9357    1.8095   -2.7530 C   0  0  0  0  0  0  0  0  0  0  0  0
    8.6531    1.8352   -3.2400 C   0  0  0  0  0  0  0  0  0  0  0  0
    7.6864    1.2851   -2.4407 C   0  0  0  0  0  0  0  0  0  0  0  0
    7.7590    0.6834   -1.1788 C   0  0  0  0  0  0  0  0  0  0  0  0
    9.0863    0.7340   -0.8464 C   0  0  0  0  0  0  0  0  0  0  0  0
   10.1669    1.2431   -1.5209 C   0  0  0  0  0  0  0  0  0  0  0  0
   11.4862    1.2237   -1.0353 O   0  0  0  0  0  0  0  0  0  0  0  0
   11.7661    0.6012    0.2125 C   0  0  0  0  0  0  0  0  0  0  0  0
    6.6463    0.1735   -0.4121 C   0  0  0  0  0  0  0  0  0  0  0  0
    6.7045    0.4266    1.0594 C   0  0  0  0  0  0  0  0  0  0  0  0
    7.8366   -0.0505    1.8369 C   0  0  0  0  0  0  0  0  0  0  0  0
    8.7806    0.8278    2.4183 C   0  0  0  0  0  0  0  0  0  0  0  0
    9.8862    0.3700    3.1531 C   0  0  0  0  0  0  0  0  0  0  0  0
   10.7123    1.3778    3.6537 O   0  0  0  0  0  0  0  0  0  0  0  0
   10.4030    2.7259    3.4066 C   0  0  0  0  0  0  0  0  0  0  0  0
   10.0872   -0.9902    3.3354 C   0  0  0  0  0  0  0  0  0  0  0  0
   11.2177   -1.2332    4.0745 O   0  0  0  0  0  0  0  0  0  0  0  0
   11.6435   -2.5187    4.3917 C   0  0  0  0  0  0  0  0  0  0  0  0
    9.1715   -1.8478    2.7733 C   0  0  0  0  0  0  0  0  0  0  0  0
    8.0956   -1.3844    2.0571 C   0  0  0  0  0  0  0  0  0  0  0  0
    5.3551    0.6604   -0.8872 N   0  0  0  0  0  4  0  0  0  0  0  0
    4.7480    1.5508    0.1521 C   0  0  0  0  0  0  0  0  0  0  0  0
    4.3442   -0.3367   -1.0894 C   0  0  0  0  0  0  0  0  0  0  0  0
    4.0389   -1.2619    0.0274 C   0  0  0  0  0  0  0  0  0  0  0  0
    2.8667   -2.1891   -0.2710 C   0  0  0  0  0  0  0  0  0  0  0  0
    2.7678   -3.2705    0.3465 O   0  0  0  0  0  0  0  0  0  0  0  0
    2.0627   -1.6625   -1.2076 O   0  0  0  0  0  0  0  0  0  0  0  0
    0.8793   -2.2019   -1.6781 C   0  0  0  0  0  0  0  0  0  0  0  0
   -0.3195   -2.1244   -0.7757 C   0  0  0  0  0  0  0  0  0  0  0  0
   -0.2392   -2.7687    0.5530 C   0  0  0  0  0  0  0  0  0  0  0  0
   -1.4946   -2.6784    1.3424 C   0  0  0  0  0  0  0  0  0  0  0  0
   -2.0027   -1.4012    1.8671 C   0  0  0  0  0  0  0  0  0  0  0  0
   -2.3175   -0.3726    1.1581 O   0  0  0  0  0  0  0  0  0  0  0  0
   -2.6253    0.6597    0.4451 C   0  0  0  0  0  0  0  0  0  0  0  0
   -1.5311    1.0775    0.0014 O   0  0  0  0  0  0  0  0  0  0  0  0
   -3.6341    1.5735   -0.0876 C   0  0  0  0  0  0  0  0  0  0  0  0
   -5.0239    1.0768    0.0644 C   0  0  0  0  0  0  0  0  0  0  0  0
   -5.4285   -0.0608   -0.6609 N   0  0  0  0  0  4  0  0  0  0  0  0
   -4.6663   -1.2273   -0.4066 C   0  0  0  0  0  0  0  0  0  0  0  0
   -5.4258    0.1522   -2.1093 C   0  0  0  0  0  0  0  0  0  0  0  0
   -6.6816    0.7688   -2.6439 C   0  0  0  0  0  0  0  0  0  0  0  0
   -7.4282    1.5434   -1.5975 C   0  0  0  0  0  0  0  0  0  0  0  0
   -7.4983    0.9306   -0.3260 C   0  0  0  0  0  0  0  0  0  0  0  0
   -8.1509    1.7183    0.5800 C   0  0  0  0  0  0  0  0  0  0  0  0
   -8.6939    2.9528    0.3490 C   0  0  0  0  0  0  0  0  0  0  0  0
   -9.3110    3.5839    1.3970 O   0  0  0  0  0  0  0  0  0  0  0  0
   -9.4129    3.0327    2.6721 C   0  0  0  0  0  0  0  0  0  0  0  0
   -8.5974    3.5014   -0.9114 C   0  0  0  0  0  0  0  0  0  0  0  0
   -9.1777    4.7459   -1.0304 O   0  0  0  0  0  0  0  0  0  0  0  0
   -9.2096    5.5303   -2.1965 C   0  0  0  0  0  0  0  0  0  0  0  0
   -7.9516    2.7675   -1.8803 C   0  0  0  0  0  0  0  0  0  0  0  0
   -6.8400   -0.3655   -0.3522 C   0  0  0  0  0  0  0  0  0  0  0  0
   -7.0142   -1.2874    0.7882 C   0  0  0  0  0  0  0  0  0  0  0  0
   -8.4138   -1.6250    1.0569 C   0  0  0  0  0  0  0  0  0  0  0  0
   -8.9150   -2.6230    0.1992 C   0  0  0  0  0  0  0  0  0  0  0  0
  -10.1962   -3.1720    0.2361 C   0  0  0  0  0  0  0  0  0  0  0  0
  -10.6465   -4.1527   -0.6251 O   0  0  0  0  0  0  0  0  0  0  0  0
   -9.7543   -4.6468   -1.6063 C   0  0  0  0  0  0  0  0  0  0  0  0
  -11.0586   -2.7008    1.1959 C   0  0  0  0  0  0  0  0  0  0  0  0
  -12.3333   -3.2280    1.2547 O   0  0  0  0  0  0  0  0  0  0  0  0
  -13.3158   -2.8412    2.1855 C   0  0  0  0  0  0  0  0  0  0  0  0
  -10.6600   -1.7354    2.0693 C   0  0  0  0  0  0  0  0  0  0  0  0
   -9.3834   -1.2572    1.9574 C   0  0  0  0  0  0  0  0  0  0  0  0
    5.3637    1.5344   -2.0149 C   0  0  0  0  0  0  0  0  0  0  0  0
    6.3235    1.2737   -3.0990 C   0  0  0  0  0  0  0  0  0  0  0  0
    0.5910    2.0649   -0.4545 H   0  0  0  0  0  0  0  0  0  0  0  0
   -1.9146    2.1901   -0.4841 H   0  0  0  0  0  0  0  0  0  0  0  0
   -3.2193    0.1120   -0.0456 H   0  0  0  0  0  0  0  0  0  0  0  0
   -2.1334   -1.9984    0.4026 H   0  0  0  0  0  0  0  0  0  0  0  0
    0.3826   -2.1439    0.4365 H   0  0  0  0  0  0  0  0  0  0  0  0
    0.5910    2.0649   -0.4545 H   0  0  0  0  0  0  0  0  0  0  0  0
   -1.9146    2.1901   -0.4841 H   0  0  0  0  0  0  0  0  0  0  0  0
   -3.2193    0.1120   -0.0456 H   0  0  0  0  0  0  0  0  0  0  0  0
   -2.1334   -1.9984    0.4026 H   0  0  0  0  0  0  0  0  0  0  0  0
    0.3826   -2.1439    0.4365 H   0  0  0  0  0  0  0  0  0  0  0  0
    9.9617    3.2510   -5.0439 H   0  0  0  0  0  0  0  0  0  0  0  0
   11.5289    3.9123   -4.5996 H   0  0  0  0  0  0  0  0  0  0  0  0
   11.5213    2.3708   -5.4795 H   0  0  0  0  0  0  0  0  0  0  0  0
    8.4285    2.2681   -4.2006 H   0  0  0  0  0  0  0  0  0  0  0  0
    9.3844    0.2585    0.0571 H   0  0  0  0  0  0  0  0  0  0  0  0
   11.5920    1.3177    1.0290 H   0  0  0  0  0  0  0  0  0  0  0  0
   12.8784    0.4198    0.2097 H   0  0  0  0  0  0  0  0  0  0  0  0
   11.2717   -0.3544    0.3638 H   0  0  0  0  0  0  0  0  0  0  0  0
    6.6613   -0.9530   -0.5240 H   0  0  0  0  0  0  0  0  0  0  0  0
    5.8237   -0.1765    1.4824 H   0  0  0  0  0  0  0  0  0  0  0  0
    6.4816    1.5067    1.2968 H   0  0  0  0  0  0  0  0  0  0  0  0
    8.5657    1.8718    2.2389 H   0  0  0  0  0  0  0  0  0  0  0  0
    9.4839    3.0635    3.9598 H   0  0  0  0  0  0  0  0  0  0  0  0
   10.2895    2.9513    2.3277 H   0  0  0  0  0  0  0  0  0  0  0  0
   11.2812    3.3386    3.7438 H   0  0  0  0  0  0  0  0  0  0  0  0
   11.6503   -2.6724    5.5013 H   0  0  0  0  0  0  0  0  0  0  0  0
   12.7142   -2.6436    4.0876 H   0  0  0  0  0  0  0  0  0  0  0  0
   11.0521   -3.2881    3.8918 H   0  0  0  0  0  0  0  0  0  0  0  0
    9.3523   -2.8804    2.9315 H   0  0  0  0  0  0  0  0  0  0  0  0
    7.4319   -2.1203    1.6531 H   0  0  0  0  0  0  0  0  0  0  0  0
    4.4976    1.0795    1.0719 H   0  0  0  0  0  0  0  0  0  0  0  0
    3.7364    1.7786   -0.3421 H   0  0  0  0  0  0  0  0  0  0  0  0
    5.2302    2.5363    0.1651 H   0  0  0  0  0  0  0  0  0  0  0  0
    4.5244   -0.9485   -2.0074 H   0  0  0  0  0  0  0  0  0  0  0  0
    3.3776    0.2236   -1.3096 H   0  0  0  0  0  0  0  0  0  0  0  0
    3.6555   -0.7298    0.9598 H   0  0  0  0  0  0  0  0  0  0  0  0
    4.8653   -1.9572    0.2481 H   0  0  0  0  0  0  0  0  0  0  0  0
    0.9917   -3.3152   -1.9137 H   0  0  0  0  0  0  0  0  0  0  0  0
    0.6022   -1.7806   -2.6787 H   0  0  0  0  0  0  0  0  0  0  0  0
   -0.6053   -1.0733   -0.7065 H   0  0  0  0  0  0  0  0  0  0  0  0
   -1.1398   -2.6973   -1.3354 H   0  0  0  0  0  0  0  0  0  0  0  0
    0.5866   -2.2564    1.1828 H   0  0  0  0  0  0  0  0  0  0  0  0
    0.0057   -3.8255    0.4198 H   0  0  0  0  0  0  0  0  0  0  0  0
   -1.4626   -3.3860    2.2334 H   0  0  0  0  0  0  0  0  0  0  0  0
   -2.2927   -3.2117    0.7030 H   0  0  0  0  0  0  0  0  0  0  0  0
   -1.2528   -1.1068    2.7358 H   0  0  0  0  0  0  0  0  0  0  0  0
   -2.9365   -1.6430    2.5469 H   0  0  0  0  0  0  0  0  0  0  0  0
   -3.3957    1.7709   -1.1775 H   0  0  0  0  0  0  0  0  0  0  0  0
   -3.4844    2.5763    0.3998 H   0  0  0  0  0  0  0  0  0  0  0  0
   -5.6902    1.9813   -0.0772 H   0  0  0  0  0  0  0  0  0  0  0  0
   -5.2458    0.8272    1.1627 H   0  0  0  0  0  0  0  0  0  0  0  0
   -4.6049   -1.5894    0.6153 H   0  0  0  0  0  0  0  0  0  0  0  0
   -5.1600   -2.0968   -0.9720 H   0  0  0  0  0  0  0  0  0  0  0  0
   -3.6757   -1.1574   -0.9466 H   0  0  0  0  0  0  0  0  0  0  0  0
   -5.3639   -0.8728   -2.5621 H   0  0  0  0  0  0  0  0  0  0  0  0
   -4.5449    0.6930   -2.4527 H   0  0  0  0  0  0  0  0  0  0  0  0
   -7.3627    0.0059   -3.0335 H   0  0  0  0  0  0  0  0  0  0  0  0
   -6.4053    1.4389   -3.4940 H   0  0  0  0  0  0  0  0  0  0  0  0
   -8.1907    1.2797    1.5571 H   0  0  0  0  0  0  0  0  0  0  0  0
  -10.0877    2.1684    2.6725 H   0  0  0  0  0  0  0  0  0  0  0  0
   -9.7858    3.8313    3.3431 H   0  0  0  0  0  0  0  0  0  0  0  0
   -8.3966    2.7521    3.0412 H   0  0  0  0  0  0  0  0  0  0  0  0
  -10.2007    5.4469   -2.7077 H   0  0  0  0  0  0  0  0  0  0  0  0
   -8.4125    5.1829   -2.8839 H   0  0  0  0  0  0  0  0  0  0  0  0
   -8.9663    6.5982   -1.9732 H   0  0  0  0  0  0  0  0  0  0  0  0
   -7.8936    3.2283   -2.8639 H   0  0  0  0  0  0  0  0  0  0  0  0
   -7.2149   -0.9318   -1.2558 H   0  0  0  0  0  0  0  0  0  0  0  0
   -6.5560   -0.8902    1.7388 H   0  0  0  0  0  0  0  0  0  0  0  0
   -6.4866   -2.2445    0.5120 H   0  0  0  0  0  0  0  0  0  0  0  0
   -8.3094   -3.0705   -0.6064 H   0  0  0  0  0  0  0  0  0  0  0  0
   -9.3363   -3.8864   -2.2684 H   0  0  0  0  0  0  0  0  0  0  0  0
  -10.3299   -5.4379   -2.1693 H   0  0  0  0  0  0  0  0  0  0  0  0
   -8.9434   -5.1760   -1.0243 H   0  0  0  0  0  0  0  0  0  0  0  0
  -13.4277   -1.7406    2.1379 H   0  0  0  0  0  0  0  0  0  0  0  0
  -13.0361   -3.1079    3.2277 H   0  0  0  0  0  0  0  0  0  0  0  0
  -14.2775   -3.3340    1.9442 H   0  0  0  0  0  0  0  0  0  0  0  0
  -11.2704   -1.3166    2.8428 H   0  0  0  0  0  0  0  0  0  0  0  0
   -9.0211   -0.5100    2.6490 H   0  0  0  0  0  0  0  0  0  0  0  0
    5.4547    2.6183   -1.7375 H   0  0  0  0  0  0  0  0  0  0  0  0
    4.3304    1.4852   -2.4775 H   0  0  0  0  0  0  0  0  0  0  0  0
    6.2196    0.2940   -3.5992 H   0  0  0  0  0  0  0  0  0  0  0  0
    6.2353    2.0448   -3.8641 H   0  0  0  0  0  0  0  0  0  0  0  0
  1  2  1  0
  2  3  2  0
  2  4  2  0
  2  5  1  0
  5  6  2  0
  6  7  1  0
  7  8  2  0
  8  9  1  0
  9 10  2  0
 11 12  1  0
 12 13  2  0
 12 14  2  0
 12 15  1  0
 15 16  2  0
 16 17  1  0
 17 18  2  0
 18 19  1  0
 19 20  2  0
 21 22  1  0
 22 23  1  0
 23 24  2  0
 24 25  1  0
 25 26  2  0
 26 27  1  0
 27 28  2  0
 28 29  1  0
 29 30  1  0
 26 31  1  0
 31 32  1  0
 32 33  1  0
 33 34  2  0
 34 35  1  0
 35 36  1  0
 36 37  1  0
 35 38  2  0
 38 39  1  0
 39 40  1  0
 38 41  1  0
 41 42  2  0
 31 43  1  0
 43 44  1  0
 43 45  1  0
 45 46  1  0
 46 47  1  0
 47 48  2  0
 47 49  1  0
 49 50  1  0
 50 51  1  0
 51 52  1  0
 52 53  1  0
 53 54  1  0
 54 55  1  0
 55 56  1  0
 56 57  2  0
 56 58  1  0
 58 59  1  0
 59 60  1  0
 60 61  1  0
 60 62  1  0
 62 63  1  0
 63 64  1  0
 64 65  2  0
 65 66  1  0
 66 67  2  0
 67 68  1  0
 68 69  1  0
 67 70  1  0
 70 71  1  0
 71 72  1  0
 70 73  2  0
 65 74  1  0
 74 75  1  0
 75 76  1  0
 76 77  2  0
 77 78  1  0
 78 79  1  0
 79 80  1  0
 78 81  2  0
 81 82  1  0
 82 83  1  0
 81 84  1  0
 84 85  2  0
 43 86  1  0
 86 87  1  0
 10  5  1  0
 20 15  1  0
 28 23  1  0
 42 33  1  0
 74 60  1  0
 85 76  1  0
 87 25  1  0
 73 64  1  0
  6 88  1  0
  7 89  1  0
  8 90  1  0
  9 91  1  0
 10 92  1  0
 16 93  1  0
 17 94  1  0
 18 95  1  0
 19 96  1  0
 20 97  1  0
 21 98  1  0
 21 99  1  0
 21100  1  0
 24101  1  0
 27102  1  0
 30103  1  0
 30104  1  0
 30105  1  0
 31106  1  0
 32107  1  0
 32108  1  0
 34109  1  0
 37110  1  0
 37111  1  0
 37112  1  0
 40113  1  0
 40114  1  0
 40115  1  0
 41116  1  0
 42117  1  0
 44118  1  0
 44119  1  0
 44120  1  0
 45121  1  0
 45122  1  0
 46123  1  0
 46124  1  0
 50125  1  0
 50126  1  0
 51127  1  0
 51128  1  0
 52129  1  0
 52130  1  0
 53131  1  0
 53132  1  0
 54133  1  0
 54134  1  0
 58135  1  0
 58136  1  0
 59137  1  0
 59138  1  0
 61139  1  0
 61140  1  0
 61141  1  0
 62142  1  0
 62143  1  0
 63144  1  0
 63145  1  0
 66146  1  0
 69147  1  0
 69148  1  0
 69149  1  0
 72150  1  0
 72151  1  0
 72152  1  0
 73153  1  0
 74154  1  0
 75155  1  0
 75156  1  0
 77157  1  0
 80158  1  0
 80159  1  0
 80160  1  0
 83161  1  0
 83162  1  0
 83163  1  0
 84164  1  0
 85165  1  0
 86166  1  0
 86167  1  0
 87168  1  0
 87169  1  0
M  CHG  4   1  -1  11  -1  43   1  60   1
M  END
$$$$
