@<TRIPOS>MOLECULE
*****
 41 44 0 0 0
SMALL
GASTEIGER

@<TRIPOS>ATOM
      1 C          -2.8201   -2.5291    1.7547 C.3     1  UNL1        0.0573
      2 N          -2.4606   -1.4089    0.8922 N.am    1  UNL1       -0.1614
      3 C          -1.4698   -0.4228    1.1314 C.2     1  UNL1        0.3303
      4 O          -0.7299   -0.3824    2.1729 O.2     1  UNL1       -0.2520
      5 C          -1.4902    0.4802   -0.0188 C.3     1  UNL1        0.2651
      6 C          -1.8856    1.8972    0.4097 C.ar    1  UNL1        0.0176
      7 C          -2.8977    2.6137   -0.0999 C.ar    1  UNL1       -0.0470
      8 C          -3.1480    3.8466    0.3540 C.ar    1  UNL1       -0.0239
      9 S          -1.8986    4.1195    1.6186 S.2     1  UNL1       -0.1046
     10 C          -1.1303    2.4777    1.4025 C.ar    1  UNL1       -0.0166
     11 C          -0.2269    0.5484   -0.7591 C.ar    1  UNL1        0.0112
     12 C          -0.2233    1.2336   -1.9686 C.ar    1  UNL1       -0.0540
     13 C           0.9177    1.3424   -2.7166 C.ar    1  UNL1       -0.0608
     14 C           2.0969    0.7689   -2.2810 C.ar    1  UNL1       -0.0540
     15 C           2.1334    0.0786   -1.0822 C.ar    1  UNL1       -0.0160
     16 C           3.3505   -0.5395   -0.5850 C.ar    1  UNL1        0.0002
     17 C           3.5715   -0.6435    0.7729 C.ar    1  UNL1       -0.0512
     18 C           4.7344   -1.2335    1.2486 C.ar    1  UNL1       -0.0430
     19 C           5.6887   -1.7256    0.3758 C.ar    1  UNL1        0.0276
     20 N           5.4467   -1.6105   -0.9398 N.ar    1  UNL1       -0.2627
     21 C           4.3127   -1.0356   -1.4325 C.ar    1  UNL1        0.0352
     22 C           0.9499   -0.0089   -0.3504 C.ar    1  UNL1       -0.0463
     23 N          -2.5196   -0.0671   -0.8624 N.2     1  UNL1       -0.0891
     24 C          -3.0646   -1.1187   -0.3617 C.2     1  UNL1        0.3731
     25 N          -4.1229   -1.8958   -0.9616 N.pl3   1  UNL1       -0.2512
     26 H          -3.3267   -3.3282    1.2154 H       1  UNL1        0.0602
     27 H          -3.4110   -2.1772    2.6118 H       1  UNL1        0.0602
     28 H          -1.8545   -2.9568    2.1391 H       1  UNL1        0.0602
     29 H          -3.5424    2.1831   -0.9116 H       1  UNL1        0.0627
     30 H          -3.9002    4.5847    0.0886 H       1  UNL1        0.0693
     31 H          -0.2872    2.1248    1.9610 H       1  UNL1        0.0697
     32 H          -1.1274    1.6950   -2.3415 H       1  UNL1        0.0622
     33 H           0.8820    1.8851   -3.6559 H       1  UNL1        0.0618
     34 H           2.9711    0.8725   -2.8909 H       1  UNL1        0.0624
     35 H           2.8192   -0.2555    1.4502 H       1  UNL1        0.0625
     36 H           4.9046   -1.3143    2.3177 H       1  UNL1        0.0633
     37 H           6.6035   -2.1895    0.7322 H       1  UNL1        0.0829
     38 H           4.1903   -0.9801   -2.4990 H       1  UNL1        0.0836
     39 H           0.9813   -0.5443    0.5774 H       1  UNL1        0.0628
     40 H          -4.1163   -2.9284   -0.8719 H       1  UNL1        0.2412
     41 H          -4.9007   -1.4557   -1.4863 H       1  UNL1        0.2412
@<TRIPOS>BOND
     1     1     2    1
     2     2     3   am
     3     3     4    2
     4     3     5    1
     5     5     6    1
     6     6     7   ar
     7     7     8   ar
     8     8     9   ar
     9     9    10   ar
    10     5    11    1
    11    11    12   ar
    12    12    13   ar
    13    13    14   ar
    14    14    15   ar
    15    15    16    1
    16    16    17   ar
    17    17    18   ar
    18    18    19   ar
    19    19    20   ar
    20    20    21   ar
    21    15    22   ar
    22     5    23    1
    23    23    24    2
    24    24    25    1
    25    24     2    1
    26    10     6   ar
    27    22    11   ar
    28    21    16   ar
    29     1    26    1
    30     1    27    1
    31     1    28    1
    32     7    29    1
    33     8    30    1
    34    10    31    1
    35    12    32    1
    36    13    33    1
    37    14    34    1
    38    17    35    1
    39    18    36    1
    40    19    37    1
    41    21    38    1
    42    22    39    1
    43    25    40    1
    44    25    41    1
