@<TRIPOS>MOLECULE
*****
 37 40 0 0 0
SMALL
GASTEIGER

@<TRIPOS>ATOM
      1 O          -5.6168    2.4507   -1.0648 O.3     1  UNL1       -0.4794
      2 C          -4.7121    1.3728   -1.0280 C.2     1  UNL1        0.3247
      3 O          -5.1420    0.3036   -1.4858 O.2     1  UNL1       -0.2490
      4 C          -3.4166    1.7239   -0.4476 C.3     1  UNL1        0.1202
      5 N          -2.4569    0.6616   -0.3852 N.ar    1  UNL1       -0.3356
      6 C          -1.5415    0.3148   -1.3089 C.ar    1  UNL1        0.0099
      7 C          -0.7693   -0.7750   -0.9081 C.ar    1  UNL1       -0.0158
      8 C           0.3186   -1.3600   -1.7312 C.3     1  UNL1        0.0233
      9 C           1.5998   -0.8810   -1.1674 C.ar    1  UNL1        0.0841
     10 N           2.2847    0.0927   -1.3444 N.ar    1  UNL1       -0.2406
     11 C           3.4252    0.3435   -0.7315 C.ar    1  UNL1        0.1192
     12 C           3.8962   -0.5695    0.1951 C.ar    1  UNL1        0.0773
     13 S           2.6101   -1.7976    0.1294 S.2     1  UNL1       -0.0688
     14 C           5.0559   -0.4262    0.8928 C.ar    1  UNL1        0.1420
     15 F           5.3527   -1.4093    1.7464 F       1  UNL1       -0.2042
     16 C           5.8710    0.6764    0.7199 C.ar    1  UNL1        0.0129
     17 C           5.3847    1.5904   -0.2179 C.ar    1  UNL1        0.1633
     18 F           6.2037    2.6837   -0.3816 F       1  UNL1       -0.2023
     19 C           4.2236    1.4720   -0.9331 C.ar    1  UNL1        0.1849
     20 F           3.9507    2.4944   -1.7965 F       1  UNL1       -0.2002
     21 C          -1.2613   -1.0821    0.3185 C.ar    1  UNL1        0.0034
     22 C          -2.2796   -0.2021    0.6147 C.ar    1  UNL1        0.0498
     23 C          -2.9058   -0.3680    1.8390 C.ar    1  UNL1       -0.0376
     24 C          -2.5276   -1.3624    2.7119 C.ar    1  UNL1       -0.0598
     25 C          -1.5107   -2.2433    2.4181 C.ar    1  UNL1       -0.0611
     26 C          -0.8885   -2.0757    1.1978 C.ar    1  UNL1       -0.0523
     27 H          -6.5004    2.3678   -1.5857 H       1  UNL1        0.2951
     28 H          -2.9727    2.5060   -1.1326 H       1  UNL1        0.0607
     29 H          -3.4986    2.2674    0.5375 H       1  UNL1        0.0607
     30 H          -1.4230    0.8345   -2.2640 H       1  UNL1        0.0812
     31 H           0.2757   -0.9808   -2.7647 H       1  UNL1        0.0383
     32 H           0.2261   -2.4659   -1.6908 H       1  UNL1        0.0383
     33 H           6.7746    0.7836    1.2662 H       1  UNL1        0.0676
     34 H          -3.7047    0.3300    2.0607 H       1  UNL1        0.0638
     35 H          -3.0193   -1.4876    3.6647 H       1  UNL1        0.0618
     36 H          -1.2119   -3.0258    3.1035 H       1  UNL1        0.0618
     37 H          -0.0940   -2.7573    0.9536 H       1  UNL1        0.0624
@<TRIPOS>BOND
     1     1     2    1
     2     2     3    2
     3     2     4    1
     4     4     5    1
     5     5     6   ar
     6     6     7   ar
     7     7     8    1
     8     8     9    1
     9     9    10   ar
    10    10    11   ar
    11    11    12   ar
    12    12    13   ar
    13    12    14   ar
    14    14    15    1
    15    14    16   ar
    16    16    17   ar
    17    17    18    1
    18    17    19   ar
    19    19    20    1
    20     7    21   ar
    21    21    22   ar
    22    22    23   ar
    23    23    24   ar
    24    24    25   ar
    25    25    26   ar
    26    22     5   ar
    27    13     9   ar
    28    26    21   ar
    29    19    11   ar
    30     1    27    1
    31     4    28    1
    32     4    29    1
    33     6    30    1
    34     8    31    1
    35     8    32    1
    36    16    33    1
    37    23    34    1
    38    24    35    1
    39    25    36    1
    40    26    37    1
