
     RDKit          3D

 40 42  0  0  0  0  0  0  0  0999 V2000
   -1.3795    4.9028   -0.3610 C   0  0  0  0  0  0  0  0  0  0  0  0
   -1.1727    3.7101   -1.7226 S   0  0  0  0  0  0  0  0  0  0  0  0
   -0.3792    2.2335   -1.1088 C   0  0  0  0  0  0  0  0  0  0  0  0
    0.9416    1.9895   -1.0487 N   0  0  0  0  0  0  0  0  0  0  0  0
    1.1204    0.7648   -0.5229 C   0  0  0  0  0  0  0  0  0  0  0  0
    2.3860    0.0852   -0.2716 C   0  0  0  0  0  0  0  0  0  0  0  0
    2.4722   -1.1487    0.3258 C   0  0  0  0  0  0  0  0  0  0  0  0
    3.6891   -1.7538    0.5439 C   0  0  0  0  0  0  0  0  0  0  0  0
    4.8685   -1.1265    0.1622 C   0  0  0  0  0  0  0  0  0  0  0  0
    6.1736   -1.7897    0.4032 C   0  0  0  0  0  0  0  0  0  0  0  0
    4.7984    0.1108   -0.4380 C   0  0  0  0  0  0  0  0  0  0  0  0
    3.5757    0.6784   -0.6374 C   0  0  0  0  0  0  0  0  0  0  0  0
   -0.1045    0.2995   -0.2781 N   0  0  0  0  0  0  0  0  0  0  0  0
   -1.0541    1.1525   -0.6157 N   0  0  0  0  0  0  0  0  0  0  0  0
   -2.4568    1.0072   -0.5036 C   0  0  0  0  0  0  0  0  0  0  0  0
   -3.1895    1.9417   -0.8840 O   0  0  0  0  0  0  0  0  0  0  0  0
   -3.0277   -0.1640    0.0252 N   0  0  0  0  0  0  0  0  0  0  0  0
   -4.4804   -0.2535    0.1152 C   0  0  0  0  0  0  0  0  0  0  0  0
   -4.8582   -1.7179    0.1124 C   0  0  0  0  0  0  0  0  0  0  0  0
   -4.2206   -2.2664    1.2484 O   0  0  0  0  0  0  0  0  0  0  0  0
   -2.8799   -2.4364    0.9915 C   0  0  0  0  0  0  0  0  0  0  0  0
   -2.1661   -1.2396    0.4621 C   0  0  0  0  0  0  0  0  0  0  0  0
   -0.3878    5.0710    0.1037 H   0  0  0  0  0  0  0  0  0  0  0  0
   -2.0940    4.4317    0.3589 H   0  0  0  0  0  0  0  0  0  0  0  0
   -1.8577    5.8107   -0.7387 H   0  0  0  0  0  0  0  0  0  0  0  0
    1.5790   -1.6612    0.6332 H   0  0  0  0  0  0  0  0  0  0  0  0
    3.7901   -2.7349    1.0169 H   0  0  0  0  0  0  0  0  0  0  0  0
    6.4288   -2.4706   -0.4399 H   0  0  0  0  0  0  0  0  0  0  0  0
    6.9995   -1.0893    0.5707 H   0  0  0  0  0  0  0  0  0  0  0  0
    6.0592   -2.4011    1.3202 H   0  0  0  0  0  0  0  0  0  0  0  0
    5.7058    0.6165   -0.7429 H   0  0  0  0  0  0  0  0  0  0  0  0
    3.5288    1.6456   -1.1070 H   0  0  0  0  0  0  0  0  0  0  0  0
   -4.7588    0.1438    1.1222 H   0  0  0  0  0  0  0  0  0  0  0  0
   -4.9769    0.3070   -0.6970 H   0  0  0  0  0  0  0  0  0  0  0  0
   -5.9460   -1.7945    0.2766 H   0  0  0  0  0  0  0  0  0  0  0  0
   -4.5361   -2.2102   -0.8101 H   0  0  0  0  0  0  0  0  0  0  0  0
   -2.8007   -3.3267    0.3006 H   0  0  0  0  0  0  0  0  0  0  0  0
   -2.4195   -2.8139    1.9522 H   0  0  0  0  0  0  0  0  0  0  0  0
   -1.5099   -1.6079   -0.3768 H   0  0  0  0  0  0  0  0  0  0  0  0
   -1.4605   -0.8953    1.2595 H   0  0  0  0  0  0  0  0  0  0  0  0
  1  2  1  0
  2  3  1  0
  3  4  2  0
  4  5  1  0
  5  6  1  0
  6  7  2  0
  7  8  1  0
  8  9  2  0
  9 10  1  0
  9 11  1  0
 11 12  2  0
  5 13  2  0
 13 14  1  0
 14 15  1  0
 15 16  2  0
 15 17  1  0
 17 18  1  0
 18 19  1  0
 19 20  1  0
 20 21  1  0
 21 22  1  0
 14  3  1  0
 22 17  1  0
 12  6  1  0
  1 23  1  0
  1 24  1  0
  1 25  1  0
  7 26  1  0
  8 27  1  0
 10 28  1  0
 10 29  1  0
 10 30  1  0
 11 31  1  0
 12 32  1  0
 18 33  1  0
 18 34  1  0
 19 35  1  0
 19 36  1  0
 21 37  1  0
 21 38  1  0
 22 39  1  0
 22 40  1  0
M  END
$$$$
