@<TRIPOS>MOLECULE
*****
 40 42 0 0 0
SMALL
GASTEIGER

@<TRIPOS>ATOM
      1 C          -1.3795    4.9028   -0.3610 C.3     1  UNL1       -0.0106
      2 S          -1.1727    3.7101   -1.7226 S.3     1  UNL1       -0.0892
      3 C          -0.3792    2.2335   -1.1088 C.ar    1  UNL1        0.1960
      4 N           0.9416    1.9895   -1.0487 N.ar    1  UNL1       -0.2003
      5 C           1.1204    0.7648   -0.5229 C.ar    1  UNL1        0.1829
      6 C           2.3860    0.0852   -0.2716 C.ar    1  UNL1        0.0209
      7 C           2.4722   -1.1487    0.3258 C.ar    1  UNL1       -0.0507
      8 C           3.6891   -1.7538    0.5439 C.ar    1  UNL1       -0.0582
      9 C           4.8685   -1.1265    0.1622 C.ar    1  UNL1       -0.0504
     10 C           6.1736   -1.7897    0.4032 C.3     1  UNL1       -0.0397
     11 C           4.7984    0.1108   -0.4380 C.ar    1  UNL1       -0.0582
     12 C           3.5757    0.6784   -0.6374 C.ar    1  UNL1       -0.0507
     13 N          -0.1045    0.2995   -0.2781 N.ar    1  UNL1       -0.1403
     14 N          -1.0541    1.1525   -0.6157 N.ar    1  UNL1       -0.1573
     15 C          -2.4568    1.0072   -0.5036 C.2     1  UNL1        0.3398
     16 O          -3.1895    1.9417   -0.8840 O.2     1  UNL1       -0.2474
     17 N          -3.0277   -0.1640    0.0252 N.am    1  UNL1       -0.2775
     18 C          -4.4804   -0.2535    0.1152 C.3     1  UNL1        0.0399
     19 C          -4.8582   -1.7179    0.1124 C.3     1  UNL1        0.0635
     20 O          -4.2206   -2.2664    1.2484 O.3     1  UNL1       -0.3767
     21 C          -2.8799   -2.4364    0.9915 C.3     1  UNL1        0.0635
     22 C          -2.1661   -1.2396    0.4621 C.3     1  UNL1        0.0399
     23 H          -0.3878    5.0710    0.1037 H       1  UNL1        0.0345
     24 H          -2.0940    4.4317    0.3589 H       1  UNL1        0.0345
     25 H          -1.8577    5.8107   -0.7387 H       1  UNL1        0.0345
     26 H           1.5790   -1.6612    0.6332 H       1  UNL1        0.0625
     27 H           3.7901   -2.7349    1.0169 H       1  UNL1        0.0620
     28 H           6.4288   -2.4706   -0.4399 H       1  UNL1        0.0278
     29 H           6.9995   -1.0893    0.5707 H       1  UNL1        0.0278
     30 H           6.0592   -2.4011    1.3202 H       1  UNL1        0.0278
     31 H           5.7058    0.6165   -0.7429 H       1  UNL1        0.0620
     32 H           3.5288    1.6456   -1.1070 H       1  UNL1        0.0625
     33 H          -4.7588    0.1438    1.1222 H       1  UNL1        0.0488
     34 H          -4.9769    0.3070   -0.6970 H       1  UNL1        0.0488
     35 H          -5.9460   -1.7945    0.2766 H       1  UNL1        0.0575
     36 H          -4.5361   -2.2102   -0.8101 H       1  UNL1        0.0575
     37 H          -2.8007   -3.3267    0.3006 H       1  UNL1        0.0575
     38 H          -2.4195   -2.8139    1.9522 H       1  UNL1        0.0575
     39 H          -1.5099   -1.6079   -0.3768 H       1  UNL1        0.0488
     40 H          -1.4605   -0.8953    1.2595 H       1  UNL1        0.0488
@<TRIPOS>BOND
     1     1     2    1
     2     2     3    1
     3     3     4   ar
     4     4     5   ar
     5     5     6    1
     6     6     7   ar
     7     7     8   ar
     8     8     9   ar
     9     9    10    1
    10     9    11   ar
    11    11    12   ar
    12     5    13   ar
    13    13    14   ar
    14    14    15   am
    15    15    16    2
    16    15    17   am
    17    17    18    1
    18    18    19    1
    19    19    20    1
    20    20    21    1
    21    21    22    1
    22    14     3   ar
    23    22    17    1
    24    12     6   ar
    25     1    23    1
    26     1    24    1
    27     1    25    1
    28     7    26    1
    29     8    27    1
    30    10    28    1
    31    10    29    1
    32    10    30    1
    33    11    31    1
    34    12    32    1
    35    18    33    1
    36    18    34    1
    37    19    35    1
    38    19    36    1
    39    21    37    1
    40    21    38    1
    41    22    39    1
    42    22    40    1
