
     RDKit          3D

 55 59  0  0  0  0  0  0  0  0999 V2000
    7.2754   -0.6288   -2.5829 C   0  0  0  0  0  0  0  0  0  0  0  0
    7.0656   -0.2657   -1.1420 C   0  0  0  0  0  0  0  0  0  0  0  0
    8.1073   -0.1395   -0.4541 O   0  0  0  0  0  0  0  0  0  0  0  0
    5.7629   -0.0891   -0.6424 N   0  0  0  0  0  0  0  0  0  0  0  0
    4.6084   -0.2491   -1.4870 C   0  0  0  0  0  0  0  0  0  0  0  0
    3.3476    0.2632   -0.8219 C   0  0  0  0  0  0  0  0  0  0  0  0
    3.1563   -0.2065    0.5800 C   0  0  0  0  0  0  0  0  0  0  0  0
    2.5590    0.8646    1.4511 C   0  0  0  0  0  0  0  0  0  0  0  0
    3.3045    1.7460    2.1385 N   0  0  0  0  0  0  0  0  0  0  0  0
    2.7763    2.7017    2.9158 C   0  0  0  0  0  0  0  0  0  0  0  0
    1.4144    2.7898    3.0189 C   0  0  0  0  0  0  0  0  0  0  0  0
    0.6379    1.9426    2.3596 N   0  0  0  0  0  0  0  0  0  0  0  0
    1.1696    0.9849    1.5806 C   0  0  0  0  0  0  0  0  0  0  0  0
    0.3563    0.0840    0.8793 O   0  0  0  0  0  0  0  0  0  0  0  0
   -1.0342    0.2202    1.0218 C   0  0  0  0  0  0  0  0  0  0  0  0
   -1.7997   -1.0746    1.1823 C   0  0  0  0  0  0  0  0  0  0  0  0
   -2.8061   -0.5330    0.3017 N   0  0  0  0  0  0  0  0  0  0  0  0
   -4.2065   -0.6740    0.0623 C   0  0  0  0  0  0  0  0  0  0  0  0
   -4.9557   -1.5557    0.8217 C   0  0  0  0  0  0  0  0  0  0  0  0
   -6.3102   -1.6975    0.5958 C   0  0  0  0  0  0  0  0  0  0  0  0
   -6.9385   -0.9656   -0.3868 C   0  0  0  0  0  0  0  0  0  0  0  0
   -8.3087   -1.0969   -0.6286 C   0  0  0  0  0  0  0  0  0  0  0  0
   -8.8902   -0.3338   -1.6324 C   0  0  0  0  0  0  0  0  0  0  0  0
   -8.1375    0.5436   -2.3860 C   0  0  0  0  0  0  0  0  0  0  0  0
   -6.7856    0.6371   -2.1078 C   0  0  0  0  0  0  0  0  0  0  0  0
   -6.1646   -0.0978   -1.1238 C   0  0  0  0  0  0  0  0  0  0  0  0
   -4.8514    0.0163   -0.8793 N   0  0  0  0  0  0  0  0  0  0  0  0
   -1.7752    0.2843   -0.3084 C   0  0  0  0  0  0  0  0  0  0  0  0
    4.4421   -0.6458    1.2415 C   0  0  0  0  0  0  0  0  0  0  0  0
    5.5461    0.2592    0.7378 C   0  0  0  0  0  0  0  0  0  0  0  0
    8.2636   -0.2998   -2.9281 H   0  0  0  0  0  0  0  0  0  0  0  0
    7.2427   -1.7423   -2.6347 H   0  0  0  0  0  0  0  0  0  0  0  0
    6.5269   -0.1482   -3.2415 H   0  0  0  0  0  0  0  0  0  0  0  0
    4.7661    0.4169   -2.3822 H   0  0  0  0  0  0  0  0  0  0  0  0
    4.4834   -1.2697   -1.8759 H   0  0  0  0  0  0  0  0  0  0  0  0
    2.4982   -0.1079   -1.4362 H   0  0  0  0  0  0  0  0  0  0  0  0
    3.3097    1.3711   -0.8567 H   0  0  0  0  0  0  0  0  0  0  0  0
    2.4885   -1.1208    0.6164 H   0  0  0  0  0  0  0  0  0  0  0  0
    3.4377    3.3882    3.4492 H   0  0  0  0  0  0  0  0  0  0  0  0
    1.0036    3.5708    3.6536 H   0  0  0  0  0  0  0  0  0  0  0  0
   -1.3818    1.0298    1.6778 H   0  0  0  0  0  0  0  0  0  0  0  0
   -2.1820   -1.2489    2.2076 H   0  0  0  0  0  0  0  0  0  0  0  0
   -1.2640   -1.9224    0.7122 H   0  0  0  0  0  0  0  0  0  0  0  0
   -4.4678   -2.1470    1.6101 H   0  0  0  0  0  0  0  0  0  0  0  0
   -6.9322   -2.3808    1.1727 H   0  0  0  0  0  0  0  0  0  0  0  0
   -8.8909   -1.7899   -0.0299 H   0  0  0  0  0  0  0  0  0  0  0  0
   -9.9518   -0.4100   -1.8478 H   0  0  0  0  0  0  0  0  0  0  0  0
   -8.5919    1.1499   -3.1815 H   0  0  0  0  0  0  0  0  0  0  0  0
   -6.2025    1.3235   -2.6990 H   0  0  0  0  0  0  0  0  0  0  0  0
   -2.1788    1.2665   -0.5632 H   0  0  0  0  0  0  0  0  0  0  0  0
   -1.2962   -0.2850   -1.1226 H   0  0  0  0  0  0  0  0  0  0  0  0
    4.4010   -0.5114    2.3444 H   0  0  0  0  0  0  0  0  0  0  0  0
    4.7184   -1.6851    0.9709 H   0  0  0  0  0  0  0  0  0  0  0  0
    5.1688    1.3234    0.7282 H   0  0  0  0  0  0  0  0  0  0  0  0
    6.4655    0.1720    1.3509 H   0  0  0  0  0  0  0  0  0  0  0  0
  1  2  1  0
  2  3  2  0
  2  4  1  0
  4  5  1  0
  5  6  1  0
  6  7  1  0
  7  8  1  0
  8  9  2  0
  9 10  1  0
 10 11  2  0
 11 12  1  0
 12 13  2  0
 13 14  1  0
 14 15  1  0
 15 16  1  0
 16 17  1  0
 17 18  1  0
 18 19  2  0
 19 20  1  0
 20 21  2  0
 21 22  1  0
 22 23  2  0
 23 24  1  0
 24 25  2  0
 25 26  1  0
 26 27  2  0
 17 28  1  0
  7 29  1  0
 29 30  1  0
 30  4  1  0
 13  8  1  0
 28 15  1  0
 27 18  1  0
 26 21  1  0
  1 31  1  0
  1 32  1  0
  1 33  1  0
  5 34  1  0
  5 35  1  0
  6 36  1  0
  6 37  1  0
  7 38  1  0
 10 39  1  0
 11 40  1  0
 15 41  1  0
 16 42  1  0
 16 43  1  0
 19 44  1  0
 20 45  1  0
 22 46  1  0
 23 47  1  0
 24 48  1  0
 25 49  1  0
 28 50  1  0
 28 51  1  0
 29 52  1  0
 29 53  1  0
 30 54  1  0
 30 55  1  0
M  END
$$$$
