@<TRIPOS>MOLECULE
*****
 55 59 0 0 0
SMALL
GASTEIGER

@<TRIPOS>ATOM
      1 C           7.2754   -0.6288   -2.5829 C.3     1  UNL1        0.0124
      2 C           7.0656   -0.2657   -1.1420 C.2     1  UNL1        0.2125
      3 O           8.1073   -0.1395   -0.4541 O.2     1  UNL1       -0.2759
      4 N           5.7629   -0.0891   -0.6424 N.am    1  UNL1       -0.3017
      5 C           4.6084   -0.2491   -1.4870 C.3     1  UNL1        0.0153
      6 C           3.3476    0.2632   -0.8219 C.3     1  UNL1       -0.0287
      7 C           3.1563   -0.2065    0.5800 C.3     1  UNL1        0.0093
      8 C           2.5590    0.8646    1.4511 C.ar    1  UNL1        0.1057
      9 N           3.3045    1.7460    2.1385 N.ar    1  UNL1       -0.2528
     10 C           2.7763    2.7017    2.9158 C.ar    1  UNL1        0.0462
     11 C           1.4144    2.7898    3.0189 C.ar    1  UNL1        0.0495
     12 N           0.6379    1.9426    2.3596 N.ar    1  UNL1       -0.2183
     13 C           1.1696    0.9849    1.5806 C.ar    1  UNL1        0.2374
     14 O           0.3563    0.0840    0.8793 O.3     1  UNL1       -0.4687
     15 C          -1.0342    0.2202    1.0218 C.3     1  UNL1        0.1330
     16 C          -1.7997   -1.0746    1.1823 C.3     1  UNL1        0.0522
     17 N          -2.8061   -0.5330    0.3017 N.pl3   1  UNL1       -0.3080
     18 C          -4.2065   -0.6740    0.0623 C.ar    1  UNL1        0.1221
     19 C          -4.9557   -1.5557    0.8217 C.ar    1  UNL1       -0.0211
     20 C          -6.3102   -1.6975    0.5958 C.ar    1  UNL1       -0.0493
     21 C          -6.9385   -0.9656   -0.3868 C.ar    1  UNL1        0.0005
     22 C          -8.3087   -1.0969   -0.6286 C.ar    1  UNL1       -0.0526
     23 C          -8.8902   -0.3338   -1.6324 C.ar    1  UNL1       -0.0611
     24 C          -8.1375    0.5436   -2.3860 C.ar    1  UNL1       -0.0597
     25 C          -6.7856    0.6371   -2.1078 C.ar    1  UNL1       -0.0357
     26 C          -6.1646   -0.0978   -1.1238 C.ar    1  UNL1        0.0731
     27 N          -4.8514    0.0163   -0.8793 N.ar    1  UNL1       -0.2320
     28 C          -1.7752    0.2843   -0.3084 C.3     1  UNL1        0.0522
     29 C           4.4421   -0.6458    1.2415 C.3     1  UNL1       -0.0287
     30 C           5.5461    0.2592    0.7378 C.3     1  UNL1        0.0153
     31 H           8.2636   -0.2998   -2.9281 H       1  UNL1        0.0323
     32 H           7.2427   -1.7423   -2.6347 H       1  UNL1        0.0323
     33 H           6.5269   -0.1482   -3.2415 H       1  UNL1        0.0323
     34 H           4.7661    0.4169   -2.3822 H       1  UNL1        0.0465
     35 H           4.4834   -1.2697   -1.8759 H       1  UNL1        0.0465
     36 H           2.4982   -0.1079   -1.4362 H       1  UNL1        0.0287
     37 H           3.3097    1.3711   -0.8567 H       1  UNL1        0.0287
     38 H           2.4885   -1.1208    0.6164 H       1  UNL1        0.0367
     39 H           3.4377    3.3882    3.4492 H       1  UNL1        0.0845
     40 H           1.0036    3.5708    3.6536 H       1  UNL1        0.0846
     41 H          -1.3818    1.0298    1.6778 H       1  UNL1        0.0765
     42 H          -2.1820   -1.2489    2.2076 H       1  UNL1        0.0501
     43 H          -1.2640   -1.9224    0.7122 H       1  UNL1        0.0501
     44 H          -4.4678   -2.1470    1.6101 H       1  UNL1        0.0652
     45 H          -6.9322   -2.3808    1.1727 H       1  UNL1        0.0625
     46 H          -8.8909   -1.7899   -0.0299 H       1  UNL1        0.0624
     47 H          -9.9518   -0.4100   -1.8478 H       1  UNL1        0.0618
     48 H          -8.5919    1.1499   -3.1815 H       1  UNL1        0.0618
     49 H          -6.2025    1.3235   -2.6990 H       1  UNL1        0.0639
     50 H          -2.1788    1.2665   -0.5632 H       1  UNL1        0.0501
     51 H          -1.2962   -0.2850   -1.1226 H       1  UNL1        0.0501
     52 H           4.4010   -0.5114    2.3444 H       1  UNL1        0.0287
     53 H           4.7184   -1.6851    0.9709 H       1  UNL1        0.0287
     54 H           5.1688    1.3234    0.7282 H       1  UNL1        0.0465
     55 H           6.4655    0.1720    1.3509 H       1  UNL1        0.0465
@<TRIPOS>BOND
     1     1     2    1
     2     2     3    2
     3     2     4   am
     4     4     5    1
     5     5     6    1
     6     6     7    1
     7     7     8    1
     8     8     9   ar
     9     9    10   ar
    10    10    11   ar
    11    11    12   ar
    12    12    13   ar
    13    13    14    1
    14    14    15    1
    15    15    16    1
    16    16    17    1
    17    17    18    1
    18    18    19   ar
    19    19    20   ar
    20    20    21   ar
    21    21    22   ar
    22    22    23   ar
    23    23    24   ar
    24    24    25   ar
    25    25    26   ar
    26    26    27   ar
    27    17    28    1
    28     7    29    1
    29    29    30    1
    30    30     4    1
    31    13     8   ar
    32    28    15    1
    33    27    18   ar
    34    26    21   ar
    35     1    31    1
    36     1    32    1
    37     1    33    1
    38     5    34    1
    39     5    35    1
    40     6    36    1
    41     6    37    1
    42     7    38    1
    43    10    39    1
    44    11    40    1
    45    15    41    1
    46    16    42    1
    47    16    43    1
    48    19    44    1
    49    20    45    1
    50    22    46    1
    51    23    47    1
    52    24    48    1
    53    25    49    1
    54    28    50    1
    55    28    51    1
    56    29    52    1
    57    29    53    1
    58    30    54    1
    59    30    55    1
