@<TRIPOS>MOLECULE
*****
 57 63 0 0 0
SMALL
GASTEIGER

@<TRIPOS>ATOM
      1 C           2.3954    0.8444   -1.9600 C.3     1  UNL1       -0.0156
      2 C           2.0310    2.2716   -1.7151 C.3     1  UNL1       -0.0426
      3 C           1.0035    1.1743   -1.7003 C.3     1  UNL1       -0.0306
      4 C           0.4323    0.7362   -0.3735 C.3     1  UNL1       -0.0303
      5 C          -1.0464    0.5292   -0.5514 C.3     1  UNL1       -0.0254
      6 C          -1.8273    1.6872   -1.0060 C.3     1  UNL1       -0.0305
      7 C          -2.6180    2.5912   -0.1604 C.3     1  UNL1       -0.0428
      8 C          -3.2637    1.3299   -0.5669 C.3     1  UNL1        0.0029
      9 C          -3.1355    0.0680    0.2402 C.3     1  UNL1        0.1226
     10 C          -3.5815   -1.0580   -0.6876 C.3     1  UNL1       -0.0020
     11 C          -5.0988   -0.9443   -0.4796 C.3     1  UNL1        0.0486
     12 C          -5.1058   -0.8712    1.0249 C.2     1  UNL1        0.3078
     13 O          -5.9230   -1.5307    1.7393 O.2     1  UNL1       -0.2508
     14 O          -4.0686    0.0273    1.2892 O.3     1  UNL1       -0.4572
     15 C          -1.7111   -0.0549    0.6747 C.3     1  UNL1        0.0115
     16 C          -1.4214    0.6407    1.9525 C.3     1  UNL1       -0.0556
     17 C          -1.1948   -1.4659    0.7730 C.3     1  UNL1       -0.0434
     18 C           0.3009   -1.3840    1.0062 C.3     1  UNL1       -0.0485
     19 C           1.0099   -0.6023   -0.0574 C.3     1  UNL1       -0.0285
     20 C           2.4444   -0.4320    0.3104 C.3     1  UNL1       -0.0069
     21 C           2.5838    0.5603    1.4373 C.3     1  UNL1       -0.0555
     22 C           3.0453   -1.7404    0.7663 C.3     1  UNL1       -0.0366
     23 C           4.5240   -1.6330    0.9806 C.3     1  UNL1        0.0107
     24 C           5.1185   -0.9787   -0.2057 C.2     1  UNL1        0.1561
     25 O           6.3754   -1.1079   -0.3713 O.2     1  UNL1       -0.2927
     26 C           4.3946   -0.2015   -1.1987 C.2     1  UNL1       -0.0192
     27 C           3.1201    0.0549   -0.9452 C.2     1  UNL1       -0.0567
     28 H           2.6883    0.6328   -3.0300 H       1  UNL1        0.0349
     29 H           2.2123    2.7720   -0.7591 H       1  UNL1        0.0274
     30 H           2.0425    2.9939   -2.5781 H       1  UNL1        0.0274
     31 H           0.3100    1.2102   -2.5909 H       1  UNL1        0.0310
     32 H           0.6715    1.5409    0.3385 H       1  UNL1        0.0309
     33 H          -1.1465   -0.2588   -1.3307 H       1  UNL1        0.0313
     34 H          -1.7085    1.9207   -2.1016 H       1  UNL1        0.0308
     35 H          -2.9946    3.5028   -0.6756 H       1  UNL1        0.0272
     36 H          -2.3606    2.8181    0.8853 H       1  UNL1        0.0272
     37 H          -4.0221    1.3488   -1.3780 H       1  UNL1        0.0342
     38 H          -3.3143   -2.0541   -0.3318 H       1  UNL1        0.0309
     39 H          -3.3125   -0.8306   -1.7247 H       1  UNL1        0.0309
     40 H          -5.5030   -0.0376   -0.9300 H       1  UNL1        0.0379
     41 H          -5.5171   -1.8722   -0.8679 H       1  UNL1        0.0379
     42 H          -0.6867    1.4480    1.9253 H       1  UNL1        0.0236
     43 H          -2.4190    0.9438    2.3865 H       1  UNL1        0.0236
     44 H          -1.0365   -0.0681    2.7433 H       1  UNL1        0.0236
     45 H          -1.6481   -2.0771    1.5508 H       1  UNL1        0.0272
     46 H          -1.2787   -1.9384   -0.2494 H       1  UNL1        0.0272
     47 H           0.5800   -1.1318    2.0367 H       1  UNL1        0.0268
     48 H           0.6534   -2.4428    0.8684 H       1  UNL1        0.0268
     49 H           0.9851   -1.2100   -0.9948 H       1  UNL1        0.0312
     50 H           1.6258    0.7689    1.9678 H       1  UNL1        0.0238
     51 H           3.2518    0.1583    2.2526 H       1  UNL1        0.0238
     52 H           3.0670    1.4969    1.0857 H       1  UNL1        0.0238
     53 H           2.5707   -1.9639    1.7454 H       1  UNL1        0.0278
     54 H           2.8579   -2.5669    0.0746 H       1  UNL1        0.0278
     55 H           4.9221   -2.6729    1.1031 H       1  UNL1        0.0345
     56 H           4.8285   -1.0814    1.8802 H       1  UNL1        0.0345
     57 H           4.8982    0.1402   -2.0964 H       1  UNL1        0.0652
@<TRIPOS>BOND
     1     1     2    1
     2     2     3    1
     3     3     4    1
     4     4     5    1
     5     5     6    1
     6     6     7    1
     7     7     8    1
     8     8     9    1
     9     9    10    1
    10    10    11    1
    11    11    12    1
    12    12    13    2
    13    12    14    1
    14     9    15    1
    15    15    16    1
    16    15    17    1
    17    17    18    1
    18    18    19    1
    19    19    20    1
    20    20    21    1
    21    20    22    1
    22    22    23    1
    23    23    24    1
    24    24    25    2
    25    24    26    1
    26    26    27    2
    27     3     1    1
    28    19     4    1
    29    27    20    1
    30    27     1    1
    31    15     5    1
    32     8     6    1
    33     9    14    1
    34     1    28    1
    35     2    29    1
    36     2    30    1
    37     3    31    1
    38     4    32    1
    39     5    33    1
    40     6    34    1
    41     7    35    1
    42     7    36    1
    43     8    37    1
    44    10    38    1
    45    10    39    1
    46    11    40    1
    47    11    41    1
    48    16    42    1
    49    16    43    1
    50    16    44    1
    51    17    45    1
    52    17    46    1
    53    18    47    1
    54    18    48    1
    55    19    49    1
    56    21    50    1
    57    21    51    1
    58    21    52    1
    59    22    53    1
    60    22    54    1
    61    23    55    1
    62    23    56    1
    63    26    57    1
