@<TRIPOS>MOLECULE
*****
 41 42 0 0 0
SMALL
GASTEIGER

@<TRIPOS>ATOM
      1 N          -4.9645    1.7038    3.7963 N.1     1  UNL1       -0.1946
      2 C          -4.8565    1.4978    2.6536 C.1     1  UNL1        0.0851
      3 C          -4.7177    1.2256    1.2750 C.3     1  UNL1        0.1129
      4 C          -5.7449    0.2804    0.6826 C.3     1  UNL1       -0.0196
      5 C          -5.1817    0.0518   -0.7053 C.3     1  UNL1       -0.0345
      6 C          -3.6936    0.3980   -0.5756 C.3     1  UNL1        0.0160
      7 N          -3.5071    0.5137    0.8852 N.am    1  UNL1       -0.2846
      8 C          -2.4353    0.0397    1.6600 C.2     1  UNL1        0.2304
      9 O          -2.4187    0.1984    2.8880 O.2     1  UNL1       -0.2742
     10 C          -1.3103   -0.6617    0.9908 C.3     1  UNL1        0.0735
     11 N          -0.3457   -1.0736    1.9801 N.3     1  UNL1       -0.3067
     12 C           0.8157   -1.6995    1.3582 C.3     1  UNL1        0.0119
     13 C           1.6453   -0.6663    0.6145 C.3     1  UNL1        0.0230
     14 N           2.7648   -1.3444   -0.0064 N.pl3   1  UNL1       -0.3279
     15 C           3.6841   -0.5805   -0.7906 C.ar    1  UNL1        0.1191
     16 C           4.7505   -1.2089   -1.4493 C.ar    1  UNL1       -0.0155
     17 C           5.6378   -0.4902   -2.2014 C.ar    1  UNL1        0.0204
     18 C           5.5042    0.8684   -2.3293 C.ar    1  UNL1        0.2911
     19 N           6.3903    1.6491   -3.0869 N.pl3   1  UNL1        0.0812
     20 O           6.2739    2.8685   -3.1999 O.2     1  UNL1        0.0415
     21 O           7.4291    1.0090   -3.7262 O.co2   1  UNL1       -0.5760
     22 C           4.4284    1.4808   -1.6613 C.ar    1  UNL1        0.1066
     23 N           3.5809    0.7443   -0.9349 N.ar    1  UNL1       -0.2338
     24 H          -4.7330    2.1473    0.6248 H       1  UNL1        0.0659
     25 H          -6.7536    0.7350    0.6515 H       1  UNL1        0.0294
     26 H          -5.7079   -0.6960    1.2163 H       1  UNL1        0.0294
     27 H          -5.6794    0.8032   -1.3744 H       1  UNL1        0.0281
     28 H          -5.3344   -0.9954   -1.0407 H       1  UNL1        0.0281
     29 H          -3.5589    1.4212   -0.9770 H       1  UNL1        0.0465
     30 H          -3.0610   -0.3529   -1.0324 H       1  UNL1        0.0465
     31 H          -1.7573   -1.6276    0.5978 H       1  UNL1        0.0520
     32 H          -0.8996   -0.1540    0.1237 H       1  UNL1        0.0520
     33 H           0.0184   -0.2612    2.5353 H       1  UNL1        0.1224
     34 H           1.4475   -2.1049    2.1694 H       1  UNL1        0.0439
     35 H           0.5316   -2.4952    0.6565 H       1  UNL1        0.0439
     36 H           2.0866    0.0115    1.3945 H       1  UNL1        0.0474
     37 H           1.0880   -0.1373   -0.1683 H       1  UNL1        0.0474
     38 H           2.9135   -2.3598    0.1146 H       1  UNL1        0.1475
     39 H           4.8647   -2.2901   -1.3557 H       1  UNL1        0.0654
     40 H           6.4590   -0.9936   -2.7172 H       1  UNL1        0.0687
     41 H           4.3470    2.5460   -1.7801 H       1  UNL1        0.0900
@<TRIPOS>UNITY_ATOM_ATTR
19 1
charge 1
21 1
charge -1
@<TRIPOS>BOND
     1     1     2    3
     2     2     3    1
     3     3     4    1
     4     4     5    1
     5     5     6    1
     6     6     7    1
     7     7     8   am
     8     8     9    2
     9     8    10    1
    10    10    11    1
    11    11    12    1
    12    12    13    1
    13    13    14    1
    14    14    15    1
    15    15    16   ar
    16    16    17   ar
    17    17    18   ar
    18    18    19    1
    19    19    20    2
    20    19    21    1
    21    18    22   ar
    22    22    23   ar
    23     7     3    1
    24    23    15   ar
    25     3    24    1
    26     4    25    1
    27     4    26    1
    28     5    27    1
    29     5    28    1
    30     6    29    1
    31     6    30    1
    32    10    31    1
    33    10    32    1
    34    11    33    1
    35    12    34    1
    36    12    35    1
    37    13    36    1
    38    13    37    1
    39    14    38    1
    40    16    39    1
    41    17    40    1
    42    22    41    1
