@<TRIPOS>MOLECULE
*****
 71 78 0 0 0
SMALL
GASTEIGER

@<TRIPOS>ATOM
      1 C           7.0486    0.0049    2.5136 C.3     1  UNL1       -0.0653
      2 C           8.0947   -0.2381    1.4819 C.3     1  UNL1       -0.0559
      3 C           7.8639    0.3464    0.1339 C.3     1  UNL1       -0.0532
      4 C           6.7122   -0.1202   -0.6747 C.3     1  UNL1       -0.0500
      5 C           5.3811    0.0885   -0.0669 C.3     1  UNL1       -0.0185
      6 C           4.2549   -0.3615   -1.0096 C.3     1  UNL1        0.0926
      7 O           3.0454   -0.1134   -0.3215 O.3     1  UNL1       -0.4625
      8 C           1.8391   -0.4226   -0.9292 C.2     1  UNL1        0.3442
      9 O           1.8966   -0.9166   -2.0831 O.2     1  UNL1       -0.2474
     10 C           0.5220   -0.1954   -0.2800 C.3     1  UNL1        0.2144
     11 O           0.6619    0.3555    0.9881 O.3     1  UNL1       -0.3737
     12 C          -0.1458   -1.5377   -0.1116 C.3     1  UNL1        0.0368
     13 C          -0.9956   -1.6336   -1.3586 C.3     1  UNL1        0.1420
     14 O          -0.9164   -0.4685   -2.0256 O.3     1  UNL1       -0.3273
     15 C          -0.4017    0.5480   -1.1641 C.3     1  UNL1        0.1860
     16 C           0.2855    1.4815   -2.1433 C.3     1  UNL1       -0.0128
     17 N          -1.5075    1.1580   -0.4494 N.ar    1  UNL1       -0.3064
     18 C          -1.6086    2.4346   -0.0393 C.ar    1  UNL1        0.0527
     19 C          -0.7241    3.5001   -0.0955 C.ar    1  UNL1       -0.0375
     20 C          -1.1058    4.7216    0.4280 C.ar    1  UNL1       -0.0598
     21 C          -2.3411    4.9042    1.0036 C.ar    1  UNL1       -0.0611
     22 C          -3.2402    3.8556    1.0724 C.ar    1  UNL1       -0.0520
     23 C          -2.8550    2.6502    0.5520 C.ar    1  UNL1        0.0081
     24 C          -3.5271    1.4694    0.5033 C.ar    1  UNL1        0.0151
     25 C          -4.7671    1.0070    0.9019 C.ar    1  UNL1       -0.0078
     26 C          -5.1679   -0.3159    0.7021 C.ar    1  UNL1        0.0518
     27 C          -4.3104   -1.2038    0.0900 C.ar    1  UNL1        0.0221
     28 C          -4.3662   -2.5351   -0.2334 C.ar    1  UNL1        0.0085
     29 C          -5.2931   -3.5300   -0.1061 C.ar    1  UNL1       -0.0520
     30 C          -5.0396   -4.8145   -0.5451 C.ar    1  UNL1       -0.0611
     31 C          -3.8261   -5.1345   -1.1331 C.ar    1  UNL1       -0.0598
     32 C          -2.8939   -4.1237   -1.2585 C.ar    1  UNL1       -0.0375
     33 C          -3.1330   -2.8374   -0.8250 C.ar    1  UNL1        0.0524
     34 N          -2.3757   -1.7581   -0.8598 N.ar    1  UNL1       -0.3114
     35 C          -3.0562   -0.7321   -0.3128 C.ar    1  UNL1        0.0774
     36 C          -2.7033    0.5807   -0.0995 C.ar    1  UNL1        0.0772
     37 C          -6.4931   -0.4672    1.2208 C.2     1  UNL1        0.2453
     38 O          -7.2417   -1.4534    1.2621 O.2     1  UNL1       -0.2702
     39 N          -6.8949    0.8051    1.7463 N.am    1  UNL1       -0.3072
     40 C          -5.8445    1.7722    1.5760 C.3     1  UNL1        0.0385
     41 H           6.4528   -0.9145    2.7356 H       1  UNL1        0.0230
     42 H           6.3668    0.8261    2.3009 H       1  UNL1        0.0230
     43 H           7.6164    0.2429    3.4826 H       1  UNL1        0.0230
     44 H           8.2930   -1.3498    1.4243 H       1  UNL1        0.0263
     45 H           9.0573    0.2452    1.8531 H       1  UNL1        0.0263
     46 H           8.8408    0.2328   -0.4232 H       1  UNL1        0.0265
     47 H           7.8040    1.4690    0.2806 H       1  UNL1        0.0265
     48 H           6.8738   -1.1919   -0.9943 H       1  UNL1        0.0266
     49 H           6.7976    0.4310   -1.6711 H       1  UNL1        0.0266
     50 H           5.2154   -0.5295    0.8587 H       1  UNL1        0.0298
     51 H           5.1781    1.1307    0.1965 H       1  UNL1        0.0298
     52 H           4.3341    0.1673   -1.9618 H       1  UNL1        0.0697
     53 H           4.3175   -1.4626   -1.1623 H       1  UNL1        0.0697
     54 H           1.6097    0.3110    1.2723 H       1  UNL1        0.2111
     55 H           0.6045   -2.3614   -0.1843 H       1  UNL1        0.0344
     56 H          -0.6914   -1.6426    0.8235 H       1  UNL1        0.0344
     57 H          -0.7386   -2.5025   -1.9901 H       1  UNL1        0.0840
     58 H           0.4776    0.9561   -3.1463 H       1  UNL1        0.0277
     59 H           1.2749    1.8150   -1.8488 H       1  UNL1        0.0277
     60 H          -0.4413    2.2621   -2.4236 H       1  UNL1        0.0277
     61 H           0.2552    3.3589   -0.5290 H       1  UNL1        0.0638
     62 H          -0.3850    5.5457    0.3682 H       1  UNL1        0.0618
     63 H          -2.6245    5.8821    1.4131 H       1  UNL1        0.0618
     64 H          -4.2282    3.9659    1.5225 H       1  UNL1        0.0624
     65 H          -6.2403   -3.3620    0.3315 H       1  UNL1        0.0624
     66 H          -5.7553   -5.6190   -0.4563 H       1  UNL1        0.0618
     67 H          -3.6327   -6.1432   -1.4756 H       1  UNL1        0.0618
     68 H          -1.9250   -4.3439   -1.7188 H       1  UNL1        0.0638
     69 H          -7.8117    1.0178    2.1913 H       1  UNL1        0.1493
     70 H          -6.2294    2.5922    0.9414 H       1  UNL1        0.0512
     71 H          -5.4964    2.2010    2.5379 H       1  UNL1        0.0512
@<TRIPOS>BOND
     1     1     2    1
     2     2     3    1
     3     3     4    1
     4     4     5    1
     5     5     6    1
     6     6     7    1
     7     7     8    1
     8     8     9    2
     9     8    10    1
    10    10    11    1
    11    10    12    1
    12    12    13    1
    13    13    14    1
    14    14    15    1
    15    15    16    1
    16    15    17    1
    17    17    18   ar
    18    18    19   ar
    19    19    20   ar
    20    20    21   ar
    21    21    22   ar
    22    22    23   ar
    23    23    24   ar
    24    24    25   ar
    25    25    26   ar
    26    26    27   ar
    27    27    28   ar
    28    28    29   ar
    29    29    30   ar
    30    30    31   ar
    31    31    32   ar
    32    32    33   ar
    33    33    34   ar
    34    34    35   ar
    35    35    36   ar
    36    26    37    1
    37    37    38    2
    38    37    39   am
    39    39    40    1
    40    15    10    1
    41    36    17   ar
    42    34    13    1
    43    23    18   ar
    44    36    24   ar
    45    40    25    1
    46    35    27   ar
    47    33    28   ar
    48     1    41    1
    49     1    42    1
    50     1    43    1
    51     2    44    1
    52     2    45    1
    53     3    46    1
    54     3    47    1
    55     4    48    1
    56     4    49    1
    57     5    50    1
    58     5    51    1
    59     6    52    1
    60     6    53    1
    61    11    54    1
    62    12    55    1
    63    12    56    1
    64    13    57    1
    65    16    58    1
    66    16    59    1
    67    16    60    1
    68    19    61    1
    69    20    62    1
    70    21    63    1
    71    22    64    1
    72    29    65    1
    73    30    66    1
    74    31    67    1
    75    32    68    1
    76    39    69    1
    77    40    70    1
    78    40    71    1
