
     RDKit          3D

 71 78  0  0  0  0  0  0  0  0999 V2000
    7.0486    0.0049    2.5136 C   0  0  0  0  0  0  0  0  0  0  0  0
    8.0947   -0.2381    1.4819 C   0  0  0  0  0  0  0  0  0  0  0  0
    7.8639    0.3464    0.1339 C   0  0  0  0  0  0  0  0  0  0  0  0
    6.7122   -0.1202   -0.6747 C   0  0  0  0  0  0  0  0  0  0  0  0
    5.3811    0.0885   -0.0669 C   0  0  0  0  0  0  0  0  0  0  0  0
    4.2549   -0.3615   -1.0096 C   0  0  0  0  0  0  0  0  0  0  0  0
    3.0454   -0.1134   -0.3215 O   0  0  0  0  0  0  0  0  0  0  0  0
    1.8391   -0.4226   -0.9292 C   0  0  0  0  0  0  0  0  0  0  0  0
    1.8966   -0.9166   -2.0831 O   0  0  0  0  0  0  0  0  0  0  0  0
    0.5220   -0.1954   -0.2800 C   0  0  2  0  0  0  0  0  0  0  0  0
    0.6619    0.3555    0.9881 O   0  0  0  0  0  0  0  0  0  0  0  0
   -0.1458   -1.5377   -0.1116 C   0  0  0  0  0  0  0  0  0  0  0  0
   -0.9956   -1.6336   -1.3586 C   0  0  2  0  0  0  0  0  0  0  0  0
   -0.9164   -0.4685   -2.0256 O   0  0  0  0  0  0  0  0  0  0  0  0
   -0.4017    0.5480   -1.1641 C   0  0  2  0  0  0  0  0  0  0  0  0
    0.2855    1.4815   -2.1433 C   0  0  0  0  0  0  0  0  0  0  0  0
   -1.5075    1.1580   -0.4494 N   0  0  0  0  0  0  0  0  0  0  0  0
   -1.6086    2.4346   -0.0393 C   0  0  0  0  0  0  0  0  0  0  0  0
   -0.7241    3.5001   -0.0955 C   0  0  0  0  0  0  0  0  0  0  0  0
   -1.1058    4.7216    0.4280 C   0  0  0  0  0  0  0  0  0  0  0  0
   -2.3411    4.9042    1.0036 C   0  0  0  0  0  0  0  0  0  0  0  0
   -3.2402    3.8556    1.0724 C   0  0  0  0  0  0  0  0  0  0  0  0
   -2.8550    2.6502    0.5520 C   0  0  0  0  0  0  0  0  0  0  0  0
   -3.5271    1.4694    0.5033 C   0  0  0  0  0  0  0  0  0  0  0  0
   -4.7671    1.0070    0.9019 C   0  0  0  0  0  0  0  0  0  0  0  0
   -5.1679   -0.3159    0.7021 C   0  0  0  0  0  0  0  0  0  0  0  0
   -4.3104   -1.2038    0.0900 C   0  0  0  0  0  0  0  0  0  0  0  0
   -4.3662   -2.5351   -0.2334 C   0  0  0  0  0  0  0  0  0  0  0  0
   -5.2931   -3.5300   -0.1061 C   0  0  0  0  0  0  0  0  0  0  0  0
   -5.0396   -4.8145   -0.5451 C   0  0  0  0  0  0  0  0  0  0  0  0
   -3.8261   -5.1345   -1.1331 C   0  0  0  0  0  0  0  0  0  0  0  0
   -2.8939   -4.1237   -1.2585 C   0  0  0  0  0  0  0  0  0  0  0  0
   -3.1330   -2.8374   -0.8250 C   0  0  0  0  0  0  0  0  0  0  0  0
   -2.3757   -1.7581   -0.8598 N   0  0  0  0  0  0  0  0  0  0  0  0
   -3.0562   -0.7321   -0.3128 C   0  0  0  0  0  0  0  0  0  0  0  0
   -2.7033    0.5807   -0.0995 C   0  0  0  0  0  0  0  0  0  0  0  0
   -6.4931   -0.4672    1.2208 C   0  0  0  0  0  0  0  0  0  0  0  0
   -7.2417   -1.4534    1.2621 O   0  0  0  0  0  0  0  0  0  0  0  0
   -6.8949    0.8051    1.7463 N   0  0  0  0  0  0  0  0  0  0  0  0
   -5.8445    1.7722    1.5760 C   0  0  0  0  0  0  0  0  0  0  0  0
    6.4528   -0.9145    2.7356 H   0  0  0  0  0  0  0  0  0  0  0  0
    6.3668    0.8261    2.3009 H   0  0  0  0  0  0  0  0  0  0  0  0
    7.6164    0.2429    3.4826 H   0  0  0  0  0  0  0  0  0  0  0  0
    8.2930   -1.3498    1.4243 H   0  0  0  0  0  0  0  0  0  0  0  0
    9.0573    0.2452    1.8531 H   0  0  0  0  0  0  0  0  0  0  0  0
    8.8408    0.2328   -0.4232 H   0  0  0  0  0  0  0  0  0  0  0  0
    7.8040    1.4690    0.2806 H   0  0  0  0  0  0  0  0  0  0  0  0
    6.8738   -1.1919   -0.9943 H   0  0  0  0  0  0  0  0  0  0  0  0
    6.7976    0.4310   -1.6711 H   0  0  0  0  0  0  0  0  0  0  0  0
    5.2154   -0.5295    0.8587 H   0  0  0  0  0  0  0  0  0  0  0  0
    5.1781    1.1307    0.1965 H   0  0  0  0  0  0  0  0  0  0  0  0
    4.3341    0.1673   -1.9618 H   0  0  0  0  0  0  0  0  0  0  0  0
    4.3175   -1.4626   -1.1623 H   0  0  0  0  0  0  0  0  0  0  0  0
    1.6097    0.3110    1.2723 H   0  0  0  0  0  0  0  0  0  0  0  0
    0.6045   -2.3614   -0.1843 H   0  0  0  0  0  0  0  0  0  0  0  0
   -0.6914   -1.6426    0.8235 H   0  0  0  0  0  0  0  0  0  0  0  0
   -0.7386   -2.5025   -1.9901 H   0  0  0  0  0  0  0  0  0  0  0  0
    0.4776    0.9561   -3.1463 H   0  0  0  0  0  0  0  0  0  0  0  0
    1.2749    1.8150   -1.8488 H   0  0  0  0  0  0  0  0  0  0  0  0
   -0.4413    2.2621   -2.4236 H   0  0  0  0  0  0  0  0  0  0  0  0
    0.2552    3.3589   -0.5290 H   0  0  0  0  0  0  0  0  0  0  0  0
   -0.3850    5.5457    0.3682 H   0  0  0  0  0  0  0  0  0  0  0  0
   -2.6245    5.8821    1.4131 H   0  0  0  0  0  0  0  0  0  0  0  0
   -4.2282    3.9659    1.5225 H   0  0  0  0  0  0  0  0  0  0  0  0
   -6.2403   -3.3620    0.3315 H   0  0  0  0  0  0  0  0  0  0  0  0
   -5.7553   -5.6190   -0.4563 H   0  0  0  0  0  0  0  0  0  0  0  0
   -3.6327   -6.1432   -1.4756 H   0  0  0  0  0  0  0  0  0  0  0  0
   -1.9250   -4.3439   -1.7188 H   0  0  0  0  0  0  0  0  0  0  0  0
   -7.8117    1.0178    2.1913 H   0  0  0  0  0  0  0  0  0  0  0  0
   -6.2294    2.5922    0.9414 H   0  0  0  0  0  0  0  0  0  0  0  0
   -5.4964    2.2010    2.5379 H   0  0  0  0  0  0  0  0  0  0  0  0
  1  2  1  0
  2  3  1  0
  3  4  1  0
  4  5  1  0
  5  6  1  0
  6  7  1  0
  7  8  1  0
  8  9  2  0
  8 10  1  0
 10 11  1  1
 10 12  1  0
 12 13  1  0
 13 14  1  0
 14 15  1  0
 15 16  1  6
 15 17  1  0
 17 18  1  0
 18 19  2  0
 19 20  1  0
 20 21  2  0
 21 22  1  0
 22 23  2  0
 23 24  1  0
 24 25  2  0
 25 26  1  0
 26 27  2  0
 27 28  1  0
 28 29  2  0
 29 30  1  0
 30 31  2  0
 31 32  1  0
 32 33  2  0
 33 34  1  0
 34 35  1  0
 35 36  2  0
 26 37  1  0
 37 38  2  0
 37 39  1  0
 39 40  1  0
 15 10  1  0
 36 17  1  0
 34 13  1  0
 23 18  1  0
 36 24  1  0
 40 25  1  0
 35 27  1  0
 33 28  1  0
  1 41  1  0
  1 42  1  0
  1 43  1  0
  2 44  1  0
  2 45  1  0
  3 46  1  0
  3 47  1  0
  4 48  1  0
  4 49  1  0
  5 50  1  0
  5 51  1  0
  6 52  1  0
  6 53  1  0
 11 54  1  0
 12 55  1  0
 12 56  1  0
 13 57  1  6
 16 58  1  0
 16 59  1  0
 16 60  1  0
 19 61  1  0
 20 62  1  0
 21 63  1  0
 22 64  1  0
 29 65  1  0
 30 66  1  0
 31 67  1  0
 32 68  1  0
 39 69  1  0
 40 70  1  0
 40 71  1  0
M  END
$$$$
