@<TRIPOS>MOLECULE
*****
 79 84 0 0 0
SMALL
GASTEIGER

@<TRIPOS>ATOM
      1 C          -4.0788   -4.7085    3.6134 C.3     1  UNL1       -0.0306
      2 C          -4.6094   -3.6248    2.7061 C.3     1  UNL1        0.0899
      3 O          -3.5780   -2.7470    2.2623 O.3     1  UNL1       -0.4638
      4 C          -2.4935   -3.2295    1.5266 C.ar    1  UNL1        0.2995
      5 N          -2.3656   -4.5457    1.2017 N.ar    1  UNL1       -0.1949
      6 C          -1.2098   -4.6855    0.4841 C.ar    1  UNL1        0.0935
      7 C          -0.7126   -3.4126    0.4284 C.ar    1  UNL1        0.0860
      8 N          -1.4562   -2.4814    1.0482 N.ar    1  UNL1       -0.2888
      9 C          -1.3503   -1.0797    1.2285 C.3     1  UNL1        0.0531
     10 C          -2.0928   -0.2336    0.2696 C.ar    1  UNL1       -0.0276
     11 C          -1.7731    0.1976   -0.9899 C.ar    1  UNL1       -0.0563
     12 C          -2.5568    1.0243   -1.7653 C.ar    1  UNL1       -0.0537
     13 C          -3.7685    1.4830   -1.2855 C.ar    1  UNL1       -0.0172
     14 C          -4.1849    1.1066   -0.0293 C.ar    1  UNL1       -0.0537
     15 C          -3.3297    0.2793    0.6657 C.ar    1  UNL1       -0.0563
     16 C          -4.5818    2.3671   -2.0998 C.ar    1  UNL1       -0.0072
     17 C          -4.2564    3.6844   -2.2836 C.ar    1  UNL1       -0.0534
     18 C          -4.8905    4.6664   -3.0024 C.ar    1  UNL1       -0.0611
     19 C          -6.0485    4.1870   -3.6285 C.ar    1  UNL1       -0.0611
     20 C          -6.4959    2.8625   -3.5258 C.ar    1  UNL1       -0.0504
     21 C          -5.7381    1.9796   -2.7537 C.ar    1  UNL1        0.0282
     22 C          -6.1884    0.5979   -2.6377 C.ar    1  UNL1        0.1799
     23 N          -5.5466   -0.3893   -1.9533 N.ar    1  UNL1       -0.1084
     24 N          -6.2850   -1.4834   -2.1040 N.ar    1  UNL1       -0.0229
     25 N          -7.3321   -1.1867   -2.8456 N.ar    1  UNL1       -0.0464
     26 N          -7.3001    0.0858   -3.1887 N.ar    1  UNL1       -0.2388
     27 C           0.4815   -3.2655   -0.2457 C.ar    1  UNL1        0.0847
     28 C           1.1243   -4.3634   -0.8276 C.ar    1  UNL1       -0.0456
     29 C           0.6296   -5.6312   -0.7720 C.ar    1  UNL1       -0.0588
     30 C          -0.5597   -5.7440   -0.0950 C.ar    1  UNL1       -0.0341
     31 C           1.1439   -2.0045   -0.4302 C.2     1  UNL1        0.3441
     32 O           2.2347   -1.9240   -1.0467 O.2     1  UNL1       -0.2448
     33 O           1.5807   -0.7888   -0.4916 O.3     1  UNL1       -0.4213
     34 C           2.4806    0.1115   -0.8737 C.3     1  UNL1        0.2501
     35 C           1.8635    1.0838   -1.9261 C.3     1  UNL1        0.0102
     36 O           3.0474    0.9111    0.1653 O.3     1  UNL1       -0.3941
     37 C           4.4043    1.0344    0.2245 C.2     1  UNL1        0.5133
     38 O           5.2095    0.4806   -0.5877 O.2     1  UNL1       -0.2027
     39 O           4.9410    1.8316    1.2535 O.3     1  UNL1       -0.4304
     40 C           6.3425    2.0217    1.3764 C.3     1  UNL1        0.1065
     41 C           6.7309    3.4602    1.1511 C.3     1  UNL1       -0.0156
     42 C           8.2173    3.4588    0.8296 C.3     1  UNL1       -0.0497
     43 C           9.0022    2.7816    1.9304 C.3     1  UNL1       -0.0528
     44 C           8.1192    2.3377    3.0554 C.3     1  UNL1       -0.0497
     45 C           6.9230    1.5468    2.6579 C.3     1  UNL1       -0.0156
     46 H          -4.2441   -5.7106    3.1551 H       1  UNL1        0.0262
     47 H          -4.6277   -4.6680    4.5622 H       1  UNL1        0.0262
     48 H          -3.0073   -4.5400    3.8659 H       1  UNL1        0.0262
     49 H          -5.4174   -3.0965    3.2144 H       1  UNL1        0.0695
     50 H          -4.9800   -4.1068    1.7603 H       1  UNL1        0.0695
     51 H          -1.8088   -0.8692    2.2561 H       1  UNL1        0.0543
     52 H          -0.3089   -0.7135    1.3806 H       1  UNL1        0.0543
     53 H          -0.8429   -0.1485   -1.3904 H       1  UNL1        0.0621
     54 H          -2.1867    1.2972   -2.7472 H       1  UNL1        0.0624
     55 H          -5.1290    1.4549    0.3599 H       1  UNL1        0.0624
     56 H          -3.7234    0.0089    1.6571 H       1  UNL1        0.0621
     57 H          -3.3470    4.0020   -1.7759 H       1  UNL1        0.0624
     58 H          -4.5603    5.6824   -3.0933 H       1  UNL1        0.0618
     59 H          -6.6329    4.8874   -4.2377 H       1  UNL1        0.0618
     60 H          -7.3835    2.5499   -4.0223 H       1  UNL1        0.0625
     61 H          -7.9917    0.5905   -3.7677 H       1  UNL1        0.1923
     62 H           2.0789   -4.2808   -1.3703 H       1  UNL1        0.0626
     63 H           1.1227   -6.4747   -1.2196 H       1  UNL1        0.0618
     64 H          -1.0429   -6.6991    0.0107 H       1  UNL1        0.0639
     65 H           3.3451   -0.3040   -1.4266 H       1  UNL1        0.1205
     66 H           1.1814    0.4319   -2.5298 H       1  UNL1        0.0301
     67 H           2.6700    1.4389   -2.5981 H       1  UNL1        0.0301
     68 H           1.2978    1.8510   -1.4139 H       1  UNL1        0.0301
     69 H           6.7949    1.4396    0.5369 H       1  UNL1        0.0735
     70 H           6.2032    3.8538    0.2391 H       1  UNL1        0.0301
     71 H           6.5796    4.1001    2.0325 H       1  UNL1        0.0301
     72 H           8.5569    4.4967    0.6086 H       1  UNL1        0.0266
     73 H           8.3724    2.8713   -0.0968 H       1  UNL1        0.0266
     74 H           9.6896    2.0037    1.5585 H       1  UNL1        0.0265
     75 H           9.6661    3.5807    2.3539 H       1  UNL1        0.0265
     76 H           7.8618    3.2284    3.6782 H       1  UNL1        0.0266
     77 H           8.7712    1.7229    3.7444 H       1  UNL1        0.0266
     78 H           6.1677    1.6016    3.4890 H       1  UNL1        0.0301
     79 H           7.1822    0.4661    2.5813 H       1  UNL1        0.0301
@<TRIPOS>BOND
     1     1     2    1
     2     2     3    1
     3     3     4    1
     4     4     5   ar
     5     5     6   ar
     6     6     7   ar
     7     7     8   ar
     8     8     9    1
     9     9    10    1
    10    10    11   ar
    11    11    12   ar
    12    12    13   ar
    13    13    14   ar
    14    14    15   ar
    15    13    16    1
    16    16    17   ar
    17    17    18   ar
    18    18    19   ar
    19    19    20   ar
    20    20    21   ar
    21    21    22    1
    22    22    23   ar
    23    23    24   ar
    24    24    25   ar
    25    25    26   ar
    26     7    27   ar
    27    27    28   ar
    28    28    29   ar
    29    29    30   ar
    30    27    31    1
    31    31    32    2
    32    31    33    1
    33    33    34    1
    34    34    35    1
    35    34    36    1
    36    36    37    1
    37    37    38    2
    38    37    39    1
    39    39    40    1
    40    40    41    1
    41    41    42    1
    42    42    43    1
    43    43    44    1
    44    44    45    1
    45     8     4   ar
    46    15    10   ar
    47    21    16   ar
    48    26    22   ar
    49    45    40    1
    50    30     6   ar
    51     1    46    1
    52     1    47    1
    53     1    48    1
    54     2    49    1
    55     2    50    1
    56     9    51    1
    57     9    52    1
    58    11    53    1
    59    12    54    1
    60    14    55    1
    61    15    56    1
    62    17    57    1
    63    18    58    1
    64    19    59    1
    65    20    60    1
    66    26    61    1
    67    28    62    1
    68    29    63    1
    69    30    64    1
    70    34    65    1
    71    35    66    1
    72    35    67    1
    73    35    68    1
    74    40    69    1
    75    41    70    1
    76    41    71    1
    77    42    72    1
    78    42    73    1
    79    43    74    1
    80    43    75    1
    81    44    76    1
    82    44    77    1
    83    45    78    1
    84    45    79    1
