
     RDKit          3D

 79 84  0  0  0  0  0  0  0  0999 V2000
   -4.0788   -4.7085    3.6134 C   0  0  0  0  0  0  0  0  0  0  0  0
   -4.6094   -3.6248    2.7061 C   0  0  0  0  0  0  0  0  0  0  0  0
   -3.5780   -2.7470    2.2623 O   0  0  0  0  0  0  0  0  0  0  0  0
   -2.4935   -3.2295    1.5266 C   0  0  0  0  0  0  0  0  0  0  0  0
   -2.3656   -4.5457    1.2017 N   0  0  0  0  0  0  0  0  0  0  0  0
   -1.2098   -4.6855    0.4841 C   0  0  0  0  0  0  0  0  0  0  0  0
   -0.7126   -3.4126    0.4284 C   0  0  0  0  0  0  0  0  0  0  0  0
   -1.4562   -2.4814    1.0482 N   0  0  0  0  0  0  0  0  0  0  0  0
   -1.3503   -1.0797    1.2285 C   0  0  0  0  0  0  0  0  0  0  0  0
   -2.0928   -0.2336    0.2696 C   0  0  0  0  0  0  0  0  0  0  0  0
   -1.7731    0.1976   -0.9899 C   0  0  0  0  0  0  0  0  0  0  0  0
   -2.5568    1.0243   -1.7653 C   0  0  0  0  0  0  0  0  0  0  0  0
   -3.7685    1.4830   -1.2855 C   0  0  0  0  0  0  0  0  0  0  0  0
   -4.1849    1.1066   -0.0293 C   0  0  0  0  0  0  0  0  0  0  0  0
   -3.3297    0.2793    0.6657 C   0  0  0  0  0  0  0  0  0  0  0  0
   -4.5818    2.3671   -2.0998 C   0  0  0  0  0  0  0  0  0  0  0  0
   -4.2564    3.6844   -2.2836 C   0  0  0  0  0  0  0  0  0  0  0  0
   -4.8905    4.6664   -3.0024 C   0  0  0  0  0  0  0  0  0  0  0  0
   -6.0485    4.1870   -3.6285 C   0  0  0  0  0  0  0  0  0  0  0  0
   -6.4959    2.8625   -3.5258 C   0  0  0  0  0  0  0  0  0  0  0  0
   -5.7381    1.9796   -2.7537 C   0  0  0  0  0  0  0  0  0  0  0  0
   -6.1884    0.5979   -2.6377 C   0  0  0  0  0  0  0  0  0  0  0  0
   -5.5466   -0.3893   -1.9533 N   0  0  0  0  0  0  0  0  0  0  0  0
   -6.2850   -1.4834   -2.1040 N   0  0  0  0  0  0  0  0  0  0  0  0
   -7.3321   -1.1867   -2.8456 N   0  0  0  0  0  0  0  0  0  0  0  0
   -7.3001    0.0858   -3.1887 N   0  0  0  0  0  0  0  0  0  0  0  0
    0.4815   -3.2655   -0.2457 C   0  0  0  0  0  0  0  0  0  0  0  0
    1.1243   -4.3634   -0.8276 C   0  0  0  0  0  0  0  0  0  0  0  0
    0.6296   -5.6312   -0.7720 C   0  0  0  0  0  0  0  0  0  0  0  0
   -0.5597   -5.7440   -0.0950 C   0  0  0  0  0  0  0  0  0  0  0  0
    1.1439   -2.0045   -0.4302 C   0  0  0  0  0  0  0  0  0  0  0  0
    2.2347   -1.9240   -1.0467 O   0  0  0  0  0  0  0  0  0  0  0  0
    1.5807   -0.7888   -0.4916 O   0  0  0  0  0  0  0  0  0  0  0  0
    2.4806    0.1115   -0.8737 C   0  0  0  0  0  0  0  0  0  0  0  0
    1.8635    1.0838   -1.9261 C   0  0  0  0  0  0  0  0  0  0  0  0
    3.0474    0.9111    0.1653 O   0  0  0  0  0  0  0  0  0  0  0  0
    4.4043    1.0344    0.2245 C   0  0  0  0  0  0  0  0  0  0  0  0
    5.2095    0.4806   -0.5877 O   0  0  0  0  0  0  0  0  0  0  0  0
    4.9410    1.8316    1.2535 O   0  0  0  0  0  0  0  0  0  0  0  0
    6.3425    2.0217    1.3764 C   0  0  0  0  0  0  0  0  0  0  0  0
    6.7309    3.4602    1.1511 C   0  0  0  0  0  0  0  0  0  0  0  0
    8.2173    3.4588    0.8296 C   0  0  0  0  0  0  0  0  0  0  0  0
    9.0022    2.7816    1.9304 C   0  0  0  0  0  0  0  0  0  0  0  0
    8.1192    2.3377    3.0554 C   0  0  0  0  0  0  0  0  0  0  0  0
    6.9230    1.5468    2.6579 C   0  0  0  0  0  0  0  0  0  0  0  0
   -4.2441   -5.7106    3.1551 H   0  0  0  0  0  0  0  0  0  0  0  0
   -4.6277   -4.6680    4.5622 H   0  0  0  0  0  0  0  0  0  0  0  0
   -3.0073   -4.5400    3.8659 H   0  0  0  0  0  0  0  0  0  0  0  0
   -5.4174   -3.0965    3.2144 H   0  0  0  0  0  0  0  0  0  0  0  0
   -4.9800   -4.1068    1.7603 H   0  0  0  0  0  0  0  0  0  0  0  0
   -1.8088   -0.8692    2.2561 H   0  0  0  0  0  0  0  0  0  0  0  0
   -0.3089   -0.7135    1.3806 H   0  0  0  0  0  0  0  0  0  0  0  0
   -0.8429   -0.1485   -1.3904 H   0  0  0  0  0  0  0  0  0  0  0  0
   -2.1867    1.2972   -2.7472 H   0  0  0  0  0  0  0  0  0  0  0  0
   -5.1290    1.4549    0.3599 H   0  0  0  0  0  0  0  0  0  0  0  0
   -3.7234    0.0089    1.6571 H   0  0  0  0  0  0  0  0  0  0  0  0
   -3.3470    4.0020   -1.7759 H   0  0  0  0  0  0  0  0  0  0  0  0
   -4.5603    5.6824   -3.0933 H   0  0  0  0  0  0  0  0  0  0  0  0
   -6.6329    4.8874   -4.2377 H   0  0  0  0  0  0  0  0  0  0  0  0
   -7.3835    2.5499   -4.0223 H   0  0  0  0  0  0  0  0  0  0  0  0
   -7.9917    0.5905   -3.7677 H   0  0  0  0  0  0  0  0  0  0  0  0
    2.0789   -4.2808   -1.3703 H   0  0  0  0  0  0  0  0  0  0  0  0
    1.1227   -6.4747   -1.2196 H   0  0  0  0  0  0  0  0  0  0  0  0
   -1.0429   -6.6991    0.0107 H   0  0  0  0  0  0  0  0  0  0  0  0
    3.3451   -0.3040   -1.4266 H   0  0  0  0  0  0  0  0  0  0  0  0
    1.1814    0.4319   -2.5298 H   0  0  0  0  0  0  0  0  0  0  0  0
    2.6700    1.4389   -2.5981 H   0  0  0  0  0  0  0  0  0  0  0  0
    1.2978    1.8510   -1.4139 H   0  0  0  0  0  0  0  0  0  0  0  0
    6.7949    1.4396    0.5369 H   0  0  0  0  0  0  0  0  0  0  0  0
    6.2032    3.8538    0.2391 H   0  0  0  0  0  0  0  0  0  0  0  0
    6.5796    4.1001    2.0325 H   0  0  0  0  0  0  0  0  0  0  0  0
    8.5569    4.4967    0.6086 H   0  0  0  0  0  0  0  0  0  0  0  0
    8.3724    2.8713   -0.0968 H   0  0  0  0  0  0  0  0  0  0  0  0
    9.6896    2.0037    1.5585 H   0  0  0  0  0  0  0  0  0  0  0  0
    9.6661    3.5807    2.3539 H   0  0  0  0  0  0  0  0  0  0  0  0
    7.8618    3.2284    3.6782 H   0  0  0  0  0  0  0  0  0  0  0  0
    8.7712    1.7229    3.7444 H   0  0  0  0  0  0  0  0  0  0  0  0
    6.1677    1.6016    3.4890 H   0  0  0  0  0  0  0  0  0  0  0  0
    7.1822    0.4661    2.5813 H   0  0  0  0  0  0  0  0  0  0  0  0
  1  2  1  0
  2  3  1  0
  3  4  1  0
  4  5  2  0
  5  6  1  0
  6  7  2  0
  7  8  1  0
  8  9  1  0
  9 10  1  0
 10 11  2  0
 11 12  1  0
 12 13  2  0
 13 14  1  0
 14 15  2  0
 13 16  1  0
 16 17  2  0
 17 18  1  0
 18 19  2  0
 19 20  1  0
 20 21  2  0
 21 22  1  0
 22 23  2  0
 23 24  1  0
 24 25  2  0
 25 26  1  0
  7 27  1  0
 27 28  2  0
 28 29  1  0
 29 30  2  0
 27 31  1  0
 31 32  2  0
 31 33  1  0
 33 34  1  0
 34 35  1  0
 34 36  1  0
 36 37  1  0
 37 38  2  0
 37 39  1  0
 39 40  1  0
 40 41  1  0
 41 42  1  0
 42 43  1  0
 43 44  1  0
 44 45  1  0
  8  4  1  0
 15 10  1  0
 21 16  1  0
 26 22  1  0
 45 40  1  0
 30  6  1  0
  1 46  1  0
  1 47  1  0
  1 48  1  0
  2 49  1  0
  2 50  1  0
  9 51  1  0
  9 52  1  0
 11 53  1  0
 12 54  1  0
 14 55  1  0
 15 56  1  0
 17 57  1  0
 18 58  1  0
 19 59  1  0
 20 60  1  0
 26 61  1  0
 28 62  1  0
 29 63  1  0
 30 64  1  0
 34 65  1  0
 35 66  1  0
 35 67  1  0
 35 68  1  0
 40 69  1  0
 41 70  1  0
 41 71  1  0
 42 72  1  0
 42 73  1  0
 43 74  1  0
 43 75  1  0
 44 76  1  0
 44 77  1  0
 45 78  1  0
 45 79  1  0
M  END
$$$$
