@<TRIPOS>MOLECULE
*****
 66 68 0 0 0
SMALL
GASTEIGER

@<TRIPOS>ATOM
      1 C          -4.9249    2.2250    3.3595 C.3     1  UNL1        0.0122
      2 C          -4.3429    2.2939    1.9939 C.2     1  UNL1        0.2104
      3 O          -3.7382    3.0151    1.1381 O.2     1  UNL1       -0.2761
      4 N          -4.5361    1.0130    1.3553 N.am    1  UNL1       -0.3053
      5 C          -4.1323    0.6064    0.0100 C.3     1  UNL1        0.1028
      6 C          -5.2318    0.0207   -0.8033 C.3     1  UNL1        0.1065
      7 O          -5.1523    0.6147   -2.0840 O.3     1  UNL1       -0.3871
      8 C          -4.9686   -1.4476   -1.0185 C.3     1  UNL1        0.1112
      9 O          -6.2131   -2.0196   -1.3617 O.3     1  UNL1       -0.3865
     10 C          -4.5329   -2.1647    0.2449 C.3     1  UNL1        0.1130
     11 C          -4.1269   -3.5652   -0.1730 C.3     1  UNL1        0.0730
     12 O          -5.1553   -4.2157   -0.8660 O.3     1  UNL1       -0.3924
     13 O          -3.5586   -1.4808    0.9300 O.3     1  UNL1       -0.3407
     14 C          -3.0395   -0.4279    0.1759 C.3     1  UNL1        0.1912
     15 O          -2.0257    0.2153    0.8812 O.3     1  UNL1       -0.2544
     16 P          -0.5470    0.2251    0.1087 P.3     1  UNL1        0.4856
     17 O          -0.5124   -0.8275   -1.2187 O.3     1  UNL1       -0.3022
     18 O          -0.2827    1.6522   -0.3277 O.2     1  UNL1       -0.2268
     19 O           0.6293   -0.1890    1.2463 O.3     1  UNL1       -0.1860
     20 P           1.0659    1.0857    2.2473 P.3     1  UNL1        0.4835
     21 O          -0.1404    2.2370    2.2719 O.3     1  UNL1       -0.3022
     22 O           1.1418    0.4978    3.6601 O.2     1  UNL1       -0.2269
     23 O           2.5942    1.6803    1.9080 O.3     1  UNL1       -0.2837
     24 C           2.7803    2.0254    0.5932 C.3     1  UNL1        0.0879
     25 C           4.2239    2.4008    0.2907 C.3     1  UNL1        0.1134
     26 O           5.0173    1.3070    0.5809 O.3     1  UNL1       -0.3456
     27 C           5.3533    0.6437   -0.5666 C.3     1  UNL1        0.1679
     28 C           4.5163    1.2187   -1.6801 C.3     1  UNL1        0.1286
     29 O           5.1863    1.1967   -2.9028 O.3     1  UNL1       -0.3847
     30 C           4.3972    2.6733   -1.1880 C.3     1  UNL1        0.1135
     31 O           5.6339    3.2533   -1.4210 O.3     1  UNL1       -0.3864
     32 N           5.2219   -0.7941   -0.4492 N.ar    1  UNL1       -0.2715
     33 C           4.4585   -1.6770   -1.1048 C.ar    1  UNL1        0.0171
     34 C           4.5349   -3.0336   -0.7736 C.ar    1  UNL1        0.0192
     35 C           5.4046   -3.4635    0.2374 C.ar    1  UNL1        0.2539
     36 O           5.2330   -4.7148    0.2840 O.2     1  UNL1       -0.2677
     37 N           6.1475   -2.5418    0.8637 N.ar    1  UNL1       -0.2749
     38 C           6.0604   -1.2392    0.5312 C.ar    1  UNL1        0.3314
     39 O           6.8509   -0.5560    1.2528 O.2     1  UNL1       -0.2464
     40 H          -4.3967    1.4468    3.9430 H       1  UNL1        0.0322
     41 H          -4.8133    3.2208    3.8378 H       1  UNL1        0.0322
     42 H          -5.9896    1.9378    3.2576 H       1  UNL1        0.0322
     43 H          -4.9926    0.1400    1.7172 H       1  UNL1        0.1492
     44 H          -3.6367    1.4881   -0.4769 H       1  UNL1        0.0575
     45 H          -6.2398    0.2167   -0.3940 H       1  UNL1        0.0640
     46 H          -5.6875    1.4661   -2.0581 H       1  UNL1        0.2100
     47 H          -4.2545   -1.6420   -1.8331 H       1  UNL1        0.0646
     48 H          -6.2249   -2.1220   -2.3400 H       1  UNL1        0.2100
     49 H          -5.4700   -2.2984    0.8597 H       1  UNL1        0.0647
     50 H          -3.8040   -4.1537    0.7145 H       1  UNL1        0.0584
     51 H          -3.2553   -3.5343   -0.8819 H       1  UNL1        0.0584
     52 H          -5.5835   -4.9274   -0.3278 H       1  UNL1        0.2095
     53 H          -2.7097   -0.8292   -0.7837 H       1  UNL1        0.0935
     54 H           0.4007   -0.7890   -1.6043 H       1  UNL1        0.2220
     55 H          -0.3288    2.5843    3.1972 H       1  UNL1        0.2220
     56 H           2.4884    1.1539   -0.0264 H       1  UNL1        0.0592
     57 H           2.1103    2.8615    0.2635 H       1  UNL1        0.0592
     58 H           4.5458    3.2519    0.9130 H       1  UNL1        0.0647
     59 H           6.4198    0.8739   -0.8549 H       1  UNL1        0.0867
     60 H           3.5076    0.7663   -1.7470 H       1  UNL1        0.0665
     61 H           5.0798    2.0702   -3.3409 H       1  UNL1        0.2101
     62 H           3.5488    3.1625   -1.6631 H       1  UNL1        0.0647
     63 H           5.5930    3.7358   -2.2666 H       1  UNL1        0.2100
     64 H           3.8439   -1.2118   -1.8508 H       1  UNL1        0.0813
     65 H           3.8364   -3.5768   -1.4211 H       1  UNL1        0.0686
     66 H           6.7230   -3.0348    1.5700 H       1  UNL1        0.1734
@<TRIPOS>BOND
     1     1     2    1
     2     2     3    2
     3     2     4   am
     4     4     5    1
     5     5     6    1
     6     6     7    1
     7     6     8    1
     8     8     9    1
     9     8    10    1
    10    10    11    1
    11    11    12    1
    12    10    13    1
    13    13    14    1
    14    14    15    1
    15    15    16    1
    16    16    17    1
    17    16    18    2
    18    16    19    1
    19    19    20    1
    20    20    21    1
    21    20    22    2
    22    20    23    1
    23    23    24    1
    24    24    25    1
    25    25    26    1
    26    26    27    1
    27    27    28    1
    28    28    29    1
    29    28    30    1
    30    30    31    1
    31    27    32    1
    32    32    33   ar
    33    33    34   ar
    34    34    35   ar
    35    35    36    2
    36    35    37   ar
    37    37    38   ar
    38    38    39    2
    39    14     5    1
    40    30    25    1
    41    38    32   ar
    42     1    40    1
    43     1    41    1
    44     1    42    1
    45     4    43    1
    46     5    44    1
    47     6    45    1
    48     7    46    1
    49     8    47    1
    50     9    48    1
    51    10    49    1
    52    11    50    1
    53    11    51    1
    54    12    52    1
    55    14    53    1
    56    17    54    1
    57    21    55    1
    58    24    56    1
    59    24    57    1
    60    25    58    1
    61    27    59    1
    62    28    60    1
    63    29    61    1
    64    30    62    1
    65    31    63    1
    66    33    64    1
    67    34    65    1
    68    37    66    1
