@<TRIPOS>MOLECULE
*****
 61 68 0 0 0
SMALL
GASTEIGER

@<TRIPOS>ATOM
      1 C          -5.1459    1.1064   -0.5400 C.3     1  UNL1       -0.0155
      2 N          -3.9421    1.7757   -0.9953 N.3     1  UNL1       -0.3136
      3 C          -2.9091    1.4897   -0.0379 C.3     1  UNL1        0.0423
      4 C          -1.5795    2.1606   -0.4087 C.3     1  UNL1        0.0107
      5 C          -0.7235    2.0018    0.8520 C.3     1  UNL1        0.1402
      6 O          -1.1403    0.9971    1.6518 O.3     1  UNL1       -0.3282
      7 C          -1.5520   -0.1911    1.0588 C.3     1  UNL1        0.1741
      8 C          -2.2602   -0.9092    2.2247 C.3     1  UNL1       -0.0136
      9 C          -2.5750   -0.0087   -0.0150 C.3     1  UNL1        0.1214
     10 O          -1.9451   -0.2502   -1.2411 O.3     1  UNL1       -0.3735
     11 C          -2.6671   -1.1393   -2.0315 C.3     1  UNL1        0.0371
     12 N          -0.4171   -1.0109    0.6587 N.ar    1  UNL1       -0.3070
     13 C          -0.4027   -2.3690    0.5662 C.ar    1  UNL1        0.0527
     14 C          -1.3983   -3.3053    0.7437 C.ar    1  UNL1       -0.0375
     15 C          -1.0821   -4.6522    0.5644 C.ar    1  UNL1       -0.0598
     16 C           0.1863   -5.0576    0.2175 C.ar    1  UNL1       -0.0611
     17 C           1.1900   -4.1119    0.0370 C.ar    1  UNL1       -0.0520
     18 C           0.8778   -2.7981    0.2129 C.ar    1  UNL1        0.0081
     19 C           1.6483   -1.6699    0.0846 C.ar    1  UNL1        0.0151
     20 C           2.9718   -1.4583   -0.2514 C.ar    1  UNL1       -0.0078
     21 C           3.4965   -0.1683   -0.3182 C.ar    1  UNL1        0.0518
     22 C           2.6462    0.9075   -0.0381 C.ar    1  UNL1        0.0221
     23 C           2.8336    2.2604   -0.0381 C.ar    1  UNL1        0.0085
     24 C           3.9092    3.0807   -0.2871 C.ar    1  UNL1       -0.0520
     25 C           3.7268    4.4486   -0.1919 C.ar    1  UNL1       -0.0611
     26 C           2.5039    4.9907    0.1431 C.ar    1  UNL1       -0.0598
     27 C           1.4322    4.1739    0.3912 C.ar    1  UNL1       -0.0375
     28 C           1.5919    2.8111    0.3021 C.ar    1  UNL1        0.0524
     29 N           0.6982    1.8565    0.4993 N.ar    1  UNL1       -0.3115
     30 C           1.3241    0.6951    0.2981 C.ar    1  UNL1        0.0774
     31 C           0.8546   -0.6046    0.3539 C.ar    1  UNL1        0.0772
     32 C           4.8876   -0.2955   -0.6740 C.2     1  UNL1        0.2453
     33 O           5.7174    0.6101   -0.8374 O.2     1  UNL1       -0.2702
     34 N           5.1642   -1.7050   -0.8135 N.am    1  UNL1       -0.3072
     35 C           3.9794   -2.4813   -0.5872 C.3     1  UNL1        0.0385
     36 H          -5.2159    0.0584   -0.8184 H       1  UNL1        0.0388
     37 H          -5.1398    1.1817    0.5827 H       1  UNL1        0.0388
     38 H          -6.0420    1.7135   -0.8512 H       1  UNL1        0.0388
     39 H          -4.1574    2.7907   -1.0597 H       1  UNL1        0.1220
     40 H          -3.1516    1.8160    0.9931 H       1  UNL1        0.0489
     41 H          -1.1639    1.5694   -1.2532 H       1  UNL1        0.0325
     42 H          -1.7170    3.2028   -0.6925 H       1  UNL1        0.0325
     43 H          -0.8277    2.9619    1.3991 H       1  UNL1        0.0839
     44 H          -1.6210   -1.6805    2.6826 H       1  UNL1        0.0277
     45 H          -3.2896   -1.1801    1.9961 H       1  UNL1        0.0277
     46 H          -2.3844   -0.1515    3.0749 H       1  UNL1        0.0277
     47 H          -3.5087   -0.5530    0.1145 H       1  UNL1        0.0660
     48 H          -2.7639   -2.0837   -1.4965 H       1  UNL1        0.0524
     49 H          -3.6090   -0.7171   -2.4185 H       1  UNL1        0.0524
     50 H          -2.0420   -1.3402   -2.9490 H       1  UNL1        0.0524
     51 H          -2.4041   -3.0092    0.9901 H       1  UNL1        0.0638
     52 H          -1.8389   -5.4115    0.6968 H       1  UNL1        0.0618
     53 H           0.4273   -6.1084    0.0794 H       1  UNL1        0.0618
     54 H           2.1980   -4.4065   -0.2350 H       1  UNL1        0.0624
     55 H           4.8836    2.7395   -0.5513 H       1  UNL1        0.0624
     56 H           4.5939    5.0839   -0.3936 H       1  UNL1        0.0618
     57 H           2.3986    6.0549    0.2077 H       1  UNL1        0.0618
     58 H           0.4435    4.5770    0.6608 H       1  UNL1        0.0638
     59 H           6.1448   -2.0413   -1.0541 H       1  UNL1        0.1493
     60 H           3.6874   -3.0642   -1.4949 H       1  UNL1        0.0512
     61 H           4.1996   -3.1815    0.2368 H       1  UNL1        0.0512
@<TRIPOS>BOND
     1     1     2    1
     2     2     3    1
     3     3     4    1
     4     4     5    1
     5     5     6    1
     6     6     7    1
     7     7     8    1
     8     7     9    1
     9     9    10    1
    10    10    11    1
    11     7    12    1
    12    12    13   ar
    13    13    14   ar
    14    14    15   ar
    15    15    16   ar
    16    16    17   ar
    17    17    18   ar
    18    18    19   ar
    19    19    20   ar
    20    20    21   ar
    21    21    22   ar
    22    22    23   ar
    23    23    24   ar
    24    24    25   ar
    25    25    26   ar
    26    26    27   ar
    27    27    28   ar
    28    28    29   ar
    29    29    30   ar
    30    30    31   ar
    31    21    32    1
    32    32    33    2
    33    32    34   am
    34    34    35    1
    35     9     3    1
    36    31    12   ar
    37    29     5    1
    38    18    13   ar
    39    31    19   ar
    40    35    20    1
    41    30    22   ar
    42    28    23   ar
    43     1    36    1
    44     1    37    1
    45     1    38    1
    46     2    39    1
    47     3    40    1
    48     4    41    1
    49     4    42    1
    50     5    43    1
    51     8    44    1
    52     8    45    1
    53     8    46    1
    54     9    47    1
    55    11    48    1
    56    11    49    1
    57    11    50    1
    58    14    51    1
    59    15    52    1
    60    16    53    1
    61    17    54    1
    62    24    55    1
    63    25    56    1
    64    26    57    1
    65    27    58    1
    66    34    59    1
    67    35    60    1
    68    35    61    1
