
     RDKit          3D

 61 68  0  0  0  0  0  0  0  0999 V2000
   -5.1459    1.1064   -0.5400 C   0  0  0  0  0  0  0  0  0  0  0  0
   -3.9421    1.7757   -0.9953 N   0  0  0  0  0  0  0  0  0  0  0  0
   -2.9091    1.4897   -0.0379 C   0  0  2  0  0  0  0  0  0  0  0  0
   -1.5795    2.1606   -0.4087 C   0  0  0  0  0  0  0  0  0  0  0  0
   -0.7235    2.0018    0.8520 C   0  0  1  0  0  0  0  0  0  0  0  0
   -1.1403    0.9971    1.6518 O   0  0  0  0  0  0  0  0  0  0  0  0
   -1.5520   -0.1911    1.0588 C   0  0  1  0  0  0  0  0  0  0  0  0
   -2.2602   -0.9092    2.2247 C   0  0  0  0  0  0  0  0  0  0  0  0
   -2.5750   -0.0087   -0.0150 C   0  0  2  0  0  0  0  0  0  0  0  0
   -1.9451   -0.2502   -1.2411 O   0  0  0  0  0  0  0  0  0  0  0  0
   -2.6671   -1.1393   -2.0315 C   0  0  0  0  0  0  0  0  0  0  0  0
   -0.4171   -1.0109    0.6587 N   0  0  0  0  0  0  0  0  0  0  0  0
   -0.4027   -2.3690    0.5662 C   0  0  0  0  0  0  0  0  0  0  0  0
   -1.3983   -3.3053    0.7437 C   0  0  0  0  0  0  0  0  0  0  0  0
   -1.0821   -4.6522    0.5644 C   0  0  0  0  0  0  0  0  0  0  0  0
    0.1863   -5.0576    0.2175 C   0  0  0  0  0  0  0  0  0  0  0  0
    1.1900   -4.1119    0.0370 C   0  0  0  0  0  0  0  0  0  0  0  0
    0.8778   -2.7981    0.2129 C   0  0  0  0  0  0  0  0  0  0  0  0
    1.6483   -1.6699    0.0846 C   0  0  0  0  0  0  0  0  0  0  0  0
    2.9718   -1.4583   -0.2514 C   0  0  0  0  0  0  0  0  0  0  0  0
    3.4965   -0.1683   -0.3182 C   0  0  0  0  0  0  0  0  0  0  0  0
    2.6462    0.9075   -0.0381 C   0  0  0  0  0  0  0  0  0  0  0  0
    2.8336    2.2604   -0.0381 C   0  0  0  0  0  0  0  0  0  0  0  0
    3.9092    3.0807   -0.2871 C   0  0  0  0  0  0  0  0  0  0  0  0
    3.7268    4.4486   -0.1919 C   0  0  0  0  0  0  0  0  0  0  0  0
    2.5039    4.9907    0.1431 C   0  0  0  0  0  0  0  0  0  0  0  0
    1.4322    4.1739    0.3912 C   0  0  0  0  0  0  0  0  0  0  0  0
    1.5919    2.8111    0.3021 C   0  0  0  0  0  0  0  0  0  0  0  0
    0.6982    1.8565    0.4993 N   0  0  0  0  0  0  0  0  0  0  0  0
    1.3241    0.6951    0.2981 C   0  0  0  0  0  0  0  0  0  0  0  0
    0.8546   -0.6046    0.3539 C   0  0  0  0  0  0  0  0  0  0  0  0
    4.8876   -0.2955   -0.6740 C   0  0  0  0  0  0  0  0  0  0  0  0
    5.7174    0.6101   -0.8374 O   0  0  0  0  0  0  0  0  0  0  0  0
    5.1642   -1.7050   -0.8135 N   0  0  0  0  0  0  0  0  0  0  0  0
    3.9794   -2.4813   -0.5872 C   0  0  0  0  0  0  0  0  0  0  0  0
   -5.2159    0.0584   -0.8184 H   0  0  0  0  0  0  0  0  0  0  0  0
   -5.1398    1.1817    0.5827 H   0  0  0  0  0  0  0  0  0  0  0  0
   -6.0420    1.7135   -0.8512 H   0  0  0  0  0  0  0  0  0  0  0  0
   -4.1574    2.7907   -1.0597 H   0  0  0  0  0  0  0  0  0  0  0  0
   -3.1516    1.8160    0.9931 H   0  0  0  0  0  0  0  0  0  0  0  0
   -1.1639    1.5694   -1.2532 H   0  0  0  0  0  0  0  0  0  0  0  0
   -1.7170    3.2028   -0.6925 H   0  0  0  0  0  0  0  0  0  0  0  0
   -0.8277    2.9619    1.3991 H   0  0  0  0  0  0  0  0  0  0  0  0
   -1.6210   -1.6805    2.6826 H   0  0  0  0  0  0  0  0  0  0  0  0
   -3.2896   -1.1801    1.9961 H   0  0  0  0  0  0  0  0  0  0  0  0
   -2.3844   -0.1515    3.0749 H   0  0  0  0  0  0  0  0  0  0  0  0
   -3.5087   -0.5530    0.1145 H   0  0  0  0  0  0  0  0  0  0  0  0
   -2.7639   -2.0837   -1.4965 H   0  0  0  0  0  0  0  0  0  0  0  0
   -3.6090   -0.7171   -2.4185 H   0  0  0  0  0  0  0  0  0  0  0  0
   -2.0420   -1.3402   -2.9490 H   0  0  0  0  0  0  0  0  0  0  0  0
   -2.4041   -3.0092    0.9901 H   0  0  0  0  0  0  0  0  0  0  0  0
   -1.8389   -5.4115    0.6968 H   0  0  0  0  0  0  0  0  0  0  0  0
    0.4273   -6.1084    0.0794 H   0  0  0  0  0  0  0  0  0  0  0  0
    2.1980   -4.4065   -0.2350 H   0  0  0  0  0  0  0  0  0  0  0  0
    4.8836    2.7395   -0.5513 H   0  0  0  0  0  0  0  0  0  0  0  0
    4.5939    5.0839   -0.3936 H   0  0  0  0  0  0  0  0  0  0  0  0
    2.3986    6.0549    0.2077 H   0  0  0  0  0  0  0  0  0  0  0  0
    0.4435    4.5770    0.6608 H   0  0  0  0  0  0  0  0  0  0  0  0
    6.1448   -2.0413   -1.0541 H   0  0  0  0  0  0  0  0  0  0  0  0
    3.6874   -3.0642   -1.4949 H   0  0  0  0  0  0  0  0  0  0  0  0
    4.1996   -3.1815    0.2368 H   0  0  0  0  0  0  0  0  0  0  0  0
  1  2  1  0
  2  3  1  0
  3  4  1  0
  4  5  1  0
  5  6  1  0
  6  7  1  0
  7  8  1  1
  7  9  1  0
  9 10  1  0
 10 11  1  0
  7 12  1  0
 12 13  1  0
 13 14  2  0
 14 15  1  0
 15 16  2  0
 16 17  1  0
 17 18  2  0
 18 19  1  0
 19 20  2  0
 20 21  1  0
 21 22  2  0
 22 23  1  0
 23 24  2  0
 24 25  1  0
 25 26  2  0
 26 27  1  0
 27 28  2  0
 28 29  1  0
 29 30  1  0
 30 31  2  0
 21 32  1  0
 32 33  2  0
 32 34  1  0
 34 35  1  0
  9  3  1  0
 31 12  1  0
 29  5  1  0
 18 13  1  0
 31 19  1  0
 35 20  1  0
 30 22  1  0
 28 23  1  0
  1 36  1  0
  1 37  1  0
  1 38  1  0
  2 39  1  0
  3 40  1  1
  4 41  1  0
  4 42  1  0
  5 43  1  1
  8 44  1  0
  8 45  1  0
  8 46  1  0
  9 47  1  1
 11 48  1  0
 11 49  1  0
 11 50  1  0
 14 51  1  0
 15 52  1  0
 16 53  1  0
 17 54  1  0
 24 55  1  0
 25 56  1  0
 26 57  1  0
 27 58  1  0
 34 59  1  0
 35 60  1  0
 35 61  1  0
M  END
$$$$
