
     RDKit          3D

 61 63  0  0  0  0  0  0  0  0999 V2000
    5.3351    1.8250    3.1764 C   0  0  0  0  0  0  0  0  0  0  0  0
    6.1990    1.4049    2.0675 N   0  0  0  0  0  0  0  0  0  0  0  0
    7.3424    2.2813    1.9516 C   0  0  0  0  0  0  0  0  0  0  0  0
    6.6504    0.0550    2.2038 C   0  0  0  0  0  0  0  0  0  0  0  0
    5.6467   -1.0164    2.0052 C   0  0  0  0  0  0  0  0  0  0  0  0
    5.0624   -1.1552    0.7177 N   0  0  0  0  0  0  0  0  0  0  0  0
    4.3032   -0.2130   -0.0168 C   0  0  0  0  0  0  0  0  0  0  0  0
    4.0911    0.8945    0.4866 O   0  0  0  0  0  0  0  0  0  0  0  0
    3.8159   -0.6125   -1.3292 C   0  0  0  0  0  0  0  0  0  0  0  0
    4.6048   -1.1311   -2.3344 C   0  0  0  0  0  0  0  0  0  0  0  0
    3.9608   -1.4500   -3.4668 N   0  0  0  0  0  0  0  0  0  0  0  0
    2.6679   -1.3097   -3.6864 C   0  0  0  0  0  0  0  0  0  0  0  0
    2.1739   -1.7087   -4.9674 N   0  0  0  0  0  0  0  0  0  0  0  0
    1.7967   -0.7858   -2.7047 C   0  0  0  0  0  0  0  0  0  0  0  0
    0.4781   -0.5801   -2.7764 C   0  0  0  0  0  0  0  0  0  0  0  0
   -0.1655   -0.0591   -1.7144 C   0  0  0  0  0  0  0  0  0  0  0  0
   -1.5959    0.2819   -1.5458 C   0  0  0  0  0  0  0  0  0  0  0  0
   -2.5048    0.0036   -2.5181 C   0  0  0  0  0  0  0  0  0  0  0  0
   -3.8332    0.3503   -2.3622 C   0  0  0  0  0  0  0  0  0  0  0  0
   -4.2962    0.9999   -1.2024 C   0  0  0  0  0  0  0  0  0  0  0  0
   -5.9703    1.4451   -1.0421 S   0  0  0  0  0  6  0  0  0  0  0  0
   -6.5827    1.7177   -2.3933 O   0  0  0  0  0  0  0  0  0  0  0  0
   -5.9911    2.7464   -0.2642 O   0  0  0  0  0  0  0  0  0  0  0  0
   -6.9036    0.2577   -0.2670 N   0  0  0  0  0  0  0  0  0  0  0  0
   -6.5382   -0.0518    1.0831 C   0  0  0  0  0  0  0  0  0  0  0  0
   -6.5536    1.1858    1.9655 C   0  0  0  0  0  0  0  0  0  0  0  0
   -5.2857   -0.8530    1.2258 C   0  0  0  0  0  0  0  0  0  0  0  0
   -7.6976   -0.9194    1.6234 C   0  0  0  0  0  0  0  0  0  0  0  0
   -3.3635    1.2709   -0.2359 C   0  0  0  0  0  0  0  0  0  0  0  0
   -2.0194    0.9179   -0.3972 C   0  0  0  0  0  0  0  0  0  0  0  0
    1.0984    0.1708   -0.5292 S   0  0  0  0  0  0  0  0  0  0  0  0
    2.4363   -0.4551   -1.5446 C   0  0  0  0  0  0  0  0  0  0  0  0
    4.9223    0.9433    3.6980 H   0  0  0  0  0  0  0  0  0  0  0  0
    4.5617    2.5402    2.8223 H   0  0  0  0  0  0  0  0  0  0  0  0
    5.9885    2.4320    3.8711 H   0  0  0  0  0  0  0  0  0  0  0  0
    7.7418    2.2883    0.9188 H   0  0  0  0  0  0  0  0  0  0  0  0
    7.0194    3.3107    2.2007 H   0  0  0  0  0  0  0  0  0  0  0  0
    8.1324    1.8991    2.6411 H   0  0  0  0  0  0  0  0  0  0  0  0
    7.0547   -0.0244    3.2601 H   0  0  0  0  0  0  0  0  0  0  0  0
    7.5577   -0.0669    1.5566 H   0  0  0  0  0  0  0  0  0  0  0  0
    4.8674   -0.8781    2.8130 H   0  0  0  0  0  0  0  0  0  0  0  0
    6.1529   -1.9987    2.2640 H   0  0  0  0  0  0  0  0  0  0  0  0
    5.2016   -2.1022    0.2083 H   0  0  0  0  0  0  0  0  0  0  0  0
    5.6595   -1.2463   -2.1614 H   0  0  0  0  0  0  0  0  0  0  0  0
    2.3248   -2.7001   -5.2406 H   0  0  0  0  0  0  0  0  0  0  0  0
    1.6824   -1.0883   -5.6365 H   0  0  0  0  0  0  0  0  0  0  0  0
   -0.1366   -0.8212   -3.6882 H   0  0  0  0  0  0  0  0  0  0  0  0
   -2.1717   -0.5010   -3.4308 H   0  0  0  0  0  0  0  0  0  0  0  0
   -4.5781    0.1473   -3.1095 H   0  0  0  0  0  0  0  0  0  0  0  0
   -6.7895   -0.6463   -0.8217 H   0  0  0  0  0  0  0  0  0  0  0  0
   -5.6100    1.7172    2.0216 H   0  0  0  0  0  0  0  0  0  0  0  0
   -6.8241    0.8640    2.9798 H   0  0  0  0  0  0  0  0  0  0  0  0
   -7.3844    1.8362    1.5931 H   0  0  0  0  0  0  0  0  0  0  0  0
   -4.9162   -1.1198    0.2042 H   0  0  0  0  0  0  0  0  0  0  0  0
   -4.5097   -0.3579    1.8447 H   0  0  0  0  0  0  0  0  0  0  0  0
   -5.4841   -1.8262    1.7661 H   0  0  0  0  0  0  0  0  0  0  0  0
   -7.6792   -1.8517    1.0434 H   0  0  0  0  0  0  0  0  0  0  0  0
   -7.5657   -1.0753    2.7102 H   0  0  0  0  0  0  0  0  0  0  0  0
   -8.6031   -0.3443    1.3983 H   0  0  0  0  0  0  0  0  0  0  0  0
   -3.6710    1.7822    0.6889 H   0  0  0  0  0  0  0  0  0  0  0  0
   -1.3056    1.1424    0.3765 H   0  0  0  0  0  0  0  0  0  0  0  0
  1  2  1  0
  2  3  1  0
  2  4  1  0
  4  5  1  0
  5  6  1  0
  6  7  1  0
  7  8  2  0
  7  9  1  0
  9 10  2  0
 10 11  1  0
 11 12  2  0
 12 13  1  0
 12 14  1  0
 14 15  1  0
 15 16  2  0
 16 17  1  0
 17 18  2  0
 18 19  1  0
 19 20  2  0
 20 21  1  0
 21 22  2  0
 21 23  2  0
 21 24  1  0
 24 25  1  0
 25 26  1  0
 25 27  1  0
 25 28  1  0
 20 29  1  0
 29 30  2  0
 16 31  1  0
 31 32  1  0
 32  9  1  0
 32 14  2  0
 30 17  1  0
  1 33  1  0
  1 34  1  0
  1 35  1  0
  3 36  1  0
  3 37  1  0
  3 38  1  0
  4 39  1  0
  4 40  1  0
  5 41  1  0
  5 42  1  0
  6 43  1  0
 10 44  1  0
 13 45  1  0
 13 46  1  0
 15 47  1  0
 18 48  1  0
 19 49  1  0
 24 50  1  0
 26 51  1  0
 26 52  1  0
 26 53  1  0
 27 54  1  0
 27 55  1  0
 27 56  1  0
 28 57  1  0
 28 58  1  0
 28 59  1  0
 29 60  1  0
 30 61  1  0
M  END
$$$$
