@<TRIPOS>MOLECULE
*****
 61 63 0 0 0
SMALL
GASTEIGER

@<TRIPOS>ATOM
      1 C           5.3351    1.8250    3.1764 C.3     1  UNL1       -0.0130
      2 N           6.1990    1.4049    2.0675 N.3     1  UNL1       -0.3069
      3 C           7.3424    2.2813    1.9516 C.3     1  UNL1       -0.0130
      4 C           6.6504    0.0550    2.2038 C.3     1  UNL1        0.0139
      5 C           5.6467   -1.0164    2.0052 C.3     1  UNL1        0.0246
      6 N           5.0624   -1.1552    0.7177 N.am    1  UNL1       -0.3101
      7 C           4.3032   -0.2130   -0.0168 C.2     1  UNL1        0.2467
      8 O           4.0911    0.8945    0.4866 O.2     1  UNL1       -0.2701
      9 C           3.8159   -0.6125   -1.3292 C.ar    1  UNL1        0.0691
     10 C           4.6048   -1.1311   -2.3344 C.ar    1  UNL1        0.0429
     11 N           3.9608   -1.4500   -3.4668 N.ar    1  UNL1       -0.2393
     12 C           2.6679   -1.3097   -3.6864 C.ar    1  UNL1        0.1245
     13 N           2.1739   -1.7087   -4.9674 N.pl3   1  UNL1       -0.3426
     14 C           1.7967   -0.7858   -2.7047 C.ar    1  UNL1        0.0300
     15 C           0.4781   -0.5801   -2.7764 C.ar    1  UNL1       -0.0359
     16 C          -0.1655   -0.0591   -1.7144 C.ar    1  UNL1        0.0206
     17 C          -1.5959    0.2819   -1.5458 C.ar    1  UNL1       -0.0112
     18 C          -2.5048    0.0036   -2.5181 C.ar    1  UNL1       -0.0517
     19 C          -3.8332    0.3503   -2.3622 C.ar    1  UNL1       -0.0348
     20 C          -4.2962    0.9999   -1.2024 C.ar    1  UNL1        0.1053
     21 S          -5.9703    1.4451   -1.0421 S.O2    1  UNL1        0.0589
     22 O          -6.5827    1.7177   -2.3933 O.2     1  UNL1       -0.1530
     23 O          -5.9911    2.7464   -0.2642 O.2     1  UNL1       -0.1530
     24 N          -6.9036    0.2577   -0.2670 N.3     1  UNL1       -0.1846
     25 C          -6.5382   -0.0518    1.0831 C.3     1  UNL1        0.0316
     26 C          -6.5536    1.1858    1.9655 C.3     1  UNL1       -0.0457
     27 C          -5.2857   -0.8530    1.2258 C.3     1  UNL1       -0.0457
     28 C          -7.6976   -0.9194    1.6234 C.3     1  UNL1       -0.0457
     29 C          -3.3635    1.2709   -0.2359 C.ar    1  UNL1       -0.0348
     30 C          -2.0194    0.9179   -0.3972 C.ar    1  UNL1       -0.0517
     31 S           1.0984    0.1708   -0.5292 S.2     1  UNL1       -0.0873
     32 C           2.4363   -0.4551   -1.5446 C.ar    1  UNL1        0.0367
     33 H           4.9223    0.9433    3.6980 H       1  UNL1        0.0391
     34 H           4.5617    2.5402    2.8223 H       1  UNL1        0.0391
     35 H           5.9885    2.4320    3.8711 H       1  UNL1        0.0391
     36 H           7.7418    2.2883    0.9188 H       1  UNL1        0.0391
     37 H           7.0194    3.3107    2.2007 H       1  UNL1        0.0391
     38 H           8.1324    1.8991    2.6411 H       1  UNL1        0.0391
     39 H           7.0547   -0.0244    3.2601 H       1  UNL1        0.0442
     40 H           7.5577   -0.0669    1.5566 H       1  UNL1        0.0442
     41 H           4.8674   -0.8781    2.8130 H       1  UNL1        0.0475
     42 H           6.1529   -1.9987    2.2640 H       1  UNL1        0.0475
     43 H           5.2016   -2.1022    0.2083 H       1  UNL1        0.1491
     44 H           5.6595   -1.2463   -2.1614 H       1  UNL1        0.0838
     45 H           2.3248   -2.7001   -5.2406 H       1  UNL1        0.1437
     46 H           1.6824   -1.0883   -5.6365 H       1  UNL1        0.1437
     47 H          -0.1366   -0.8212   -3.6882 H       1  UNL1        0.0636
     48 H          -2.1717   -0.5010   -3.4308 H       1  UNL1        0.0624
     49 H          -4.5781    0.1473   -3.1095 H       1  UNL1        0.0637
     50 H          -6.7895   -0.6463   -0.8217 H       1  UNL1        0.1486
     51 H          -5.6100    1.7172    2.0216 H       1  UNL1        0.0248
     52 H          -6.8241    0.8640    2.9798 H       1  UNL1        0.0248
     53 H          -7.3844    1.8362    1.5931 H       1  UNL1        0.0248
     54 H          -4.9162   -1.1198    0.2042 H       1  UNL1        0.0248
     55 H          -4.5097   -0.3579    1.8447 H       1  UNL1        0.0248
     56 H          -5.4841   -1.8262    1.7661 H       1  UNL1        0.0248
     57 H          -7.6792   -1.8517    1.0434 H       1  UNL1        0.0248
     58 H          -7.5657   -1.0753    2.7102 H       1  UNL1        0.0248
     59 H          -8.6031   -0.3443    1.3983 H       1  UNL1        0.0248
     60 H          -3.6710    1.7822    0.6889 H       1  UNL1        0.0637
     61 H          -1.3056    1.1424    0.3765 H       1  UNL1        0.0624
@<TRIPOS>BOND
     1     1     2    1
     2     2     3    1
     3     2     4    1
     4     4     5    1
     5     5     6    1
     6     6     7   am
     7     7     8    2
     8     7     9    1
     9     9    10   ar
    10    10    11   ar
    11    11    12   ar
    12    12    13    1
    13    12    14   ar
    14    14    15   ar
    15    15    16   ar
    16    16    17    1
    17    17    18   ar
    18    18    19   ar
    19    19    20   ar
    20    20    21    1
    21    21    22    2
    22    21    23    2
    23    21    24    1
    24    24    25    1
    25    25    26    1
    26    25    27    1
    27    25    28    1
    28    20    29   ar
    29    29    30   ar
    30    16    31   ar
    31    31    32   ar
    32    32     9   ar
    33    32    14   ar
    34    30    17   ar
    35     1    33    1
    36     1    34    1
    37     1    35    1
    38     3    36    1
    39     3    37    1
    40     3    38    1
    41     4    39    1
    42     4    40    1
    43     5    41    1
    44     5    42    1
    45     6    43    1
    46    10    44    1
    47    13    45    1
    48    13    46    1
    49    15    47    1
    50    18    48    1
    51    19    49    1
    52    24    50    1
    53    26    51    1
    54    26    52    1
    55    26    53    1
    56    27    54    1
    57    27    55    1
    58    27    56    1
    59    28    57    1
    60    28    58    1
    61    28    59    1
    62    29    60    1
    63    30    61    1
