@<TRIPOS>MOLECULE
*****
 84 88 0 0 0
SMALL
GASTEIGER

@<TRIPOS>ATOM
      1 C           6.6230    1.1506    0.6682 C.3     1  UNL1       -0.0387
      2 C           6.9680   -0.3121    0.7643 C.2     1  UNL1       -0.0346
      3 C           6.3629   -1.3254    0.2319 C.2     1  UNL1        0.0221
      4 C           5.1927   -1.3752   -0.6049 C.2     1  UNL1        0.2412
      5 O           4.7883   -2.5305   -0.9879 O.2     1  UNL1       -0.2705
      6 N           4.4458   -0.2836   -1.0527 N.am    1  UNL1       -0.3005
      7 C           3.2780   -0.5270   -1.9051 C.3     1  UNL1        0.0969
      8 C           3.5734    0.0964   -3.2562 C.3     1  UNL1       -0.0381
      9 C           2.1014    0.1205   -1.2750 C.2     1  UNL1        0.2337
     10 O           2.1696    0.6527   -0.1246 O.2     1  UNL1       -0.2738
     11 N           0.8480    0.1980   -1.8844 N.am    1  UNL1       -0.3022
     12 C          -0.3157    0.8261   -1.2890 C.3     1  UNL1        0.1034
     13 C          -0.5908    2.1612   -1.9079 C.3     1  UNL1        0.0013
     14 C          -1.7664    2.7709   -1.2782 C.ar    1  UNL1       -0.0201
     15 C          -3.0432    2.9450   -1.7938 C.ar    1  UNL1        0.0060
     16 N          -3.7927    3.5959   -0.8708 N.ar    1  UNL1       -0.3604
     17 C          -3.0715    3.8516    0.2147 C.ar    1  UNL1        0.0467
     18 C          -3.3455    4.4677    1.3983 C.ar    1  UNL1       -0.0378
     19 C          -2.3884    4.6102    2.3960 C.ar    1  UNL1       -0.0598
     20 C          -1.1374    4.1178    2.1808 C.ar    1  UNL1       -0.0611
     21 C          -0.8471    3.4966    0.9959 C.ar    1  UNL1       -0.0523
     22 C          -1.8012    3.3427   -0.0227 C.ar    1  UNL1        0.0029
     23 C          -1.4619   -0.0514   -1.5385 C.2     1  UNL1        0.2341
     24 O          -1.3737   -0.9351   -2.4460 O.2     1  UNL1       -0.2738
     25 N          -2.6937    0.0015   -0.8300 N.am    1  UNL1       -0.3072
     26 C          -3.8273   -0.8606   -1.1060 C.3     1  UNL1        0.0470
     27 C          -5.0621   -0.0939   -0.9270 C.2     1  UNL1       -0.0461
     28 C          -5.4537    0.4092    0.2375 C.2     1  UNL1        0.0495
     29 S          -6.9275    1.3182    0.4272 S.O2    1  UNL1       -0.0127
     30 C          -7.0915    1.9321    2.0906 C.3     1  UNL1        0.0589
     31 O          -7.0003    2.4293   -0.5490 O.2     1  UNL1       -0.1702
     32 O          -8.0552    0.3528    0.1080 O.2     1  UNL1       -0.1702
     33 C          -3.6902   -2.0365   -0.1396 C.3     1  UNL1       -0.0055
     34 C          -4.7524   -3.0398   -0.2585 C.ar    1  UNL1       -0.0453
     35 C          -5.9066   -3.0386    0.4802 C.ar    1  UNL1       -0.0585
     36 C          -6.9098   -3.9836    0.3573 C.ar    1  UNL1       -0.0615
     37 C          -6.7718   -5.0062   -0.5579 C.ar    1  UNL1       -0.0617
     38 C          -5.6179   -5.0503   -1.3315 C.ar    1  UNL1       -0.0615
     39 C          -4.6302   -4.0826   -1.1791 C.ar    1  UNL1       -0.0585
     40 C           7.0819   -2.6028    0.5894 C.3     1  UNL1        0.0033
     41 C           8.1920   -2.1620    1.4450 C.ar    1  UNL1       -0.0355
     42 C           9.2005   -2.8825    2.1002 C.ar    1  UNL1       -0.0577
     43 C          10.1366   -2.1933    2.8459 C.ar    1  UNL1       -0.0615
     44 C          10.0639   -0.8389    2.9315 C.ar    1  UNL1       -0.0612
     45 C           9.0671   -0.1079    2.2855 C.ar    1  UNL1       -0.0541
     46 C           8.1198   -0.7947    1.5325 C.ar    1  UNL1       -0.0182
     47 H           5.6335    1.3054    1.0959 H       1  UNL1        0.0278
     48 H           6.6809    1.5093   -0.3537 H       1  UNL1        0.0278
     49 H           7.3181    1.7342    1.3467 H       1  UNL1        0.0278
     50 H           4.6492    0.7024   -0.8237 H       1  UNL1        0.1498
     51 H           3.0944   -1.6222   -2.0034 H       1  UNL1        0.0592
     52 H           4.2262    0.9682   -3.2233 H       1  UNL1        0.0252
     53 H           2.6211    0.4063   -3.7768 H       1  UNL1        0.0252
     54 H           3.9955   -0.7021   -3.9352 H       1  UNL1        0.0252
     55 H           0.6949   -0.2146   -2.8313 H       1  UNL1        0.1495
     56 H          -0.1751    0.9895   -0.2173 H       1  UNL1        0.0598
     57 H           0.2218    2.9035   -1.8232 H       1  UNL1        0.0337
     58 H          -0.8467    1.9607   -2.9908 H       1  UNL1        0.0337
     59 H          -3.3329    2.6073   -2.7682 H       1  UNL1        0.0810
     60 H          -4.8111    3.8672   -1.0115 H       1  UNL1        0.1653
     61 H          -4.3153    4.8948    1.6385 H       1  UNL1        0.0638
     62 H          -2.5792    5.0887    3.3287 H       1  UNL1        0.0618
     63 H          -0.3312    4.2021    2.9242 H       1  UNL1        0.0618
     64 H           0.1707    3.1213    0.8539 H       1  UNL1        0.0624
     65 H          -2.7873    0.6826   -0.0582 H       1  UNL1        0.1493
     66 H          -3.7718   -1.3179   -2.0993 H       1  UNL1        0.0546
     67 H          -5.7550    0.1159   -1.7631 H       1  UNL1        0.0603
     68 H          -4.8244    0.2404    1.0992 H       1  UNL1        0.0816
     69 H          -7.4610    2.9763    2.0132 H       1  UNL1        0.0468
     70 H          -7.8726    1.3285    2.5921 H       1  UNL1        0.0468
     71 H          -6.0907    1.8911    2.5981 H       1  UNL1        0.0468
     72 H          -2.7114   -2.4758   -0.2961 H       1  UNL1        0.0334
     73 H          -3.6933   -1.5857    0.8930 H       1  UNL1        0.0334
     74 H          -6.0314   -2.2418    1.2022 H       1  UNL1        0.0620
     75 H          -7.8055   -3.9422    0.9603 H       1  UNL1        0.0618
     76 H          -7.5700   -5.7339   -0.6255 H       1  UNL1        0.0618
     77 H          -5.5305   -5.8691   -2.0470 H       1  UNL1        0.0618
     78 H          -3.7224   -4.1212   -1.7970 H       1  UNL1        0.0620
     79 H           7.4544   -3.0975   -0.3542 H       1  UNL1        0.0363
     80 H           6.4031   -3.3285    1.0690 H       1  UNL1        0.0363
     81 H           9.2373   -3.9518    2.0203 H       1  UNL1        0.0621
     82 H          10.9358   -2.7332    3.3751 H       1  UNL1        0.0618
     83 H          10.7829   -0.2510    3.5138 H       1  UNL1        0.0618
     84 H           9.0120    0.9600    2.3608 H       1  UNL1        0.0624
@<TRIPOS>BOND
     1     1     2    1
     2     2     3    2
     3     3     4    1
     4     4     5    2
     5     4     6   am
     6     6     7    1
     7     7     8    1
     8     7     9    1
     9     9    10    2
    10     9    11   am
    11    11    12    1
    12    12    13    1
    13    13    14    1
    14    14    15   ar
    15    15    16   ar
    16    16    17   ar
    17    17    18   ar
    18    18    19   ar
    19    19    20   ar
    20    20    21   ar
    21    21    22   ar
    22    12    23    1
    23    23    24    2
    24    23    25   am
    25    25    26    1
    26    26    27    1
    27    27    28    2
    28    28    29    1
    29    29    30    1
    30    29    31    2
    31    29    32    2
    32    26    33    1
    33    33    34    1
    34    34    35   ar
    35    35    36   ar
    36    36    37   ar
    37    37    38   ar
    38    38    39   ar
    39     3    40    1
    40    40    41    1
    41    41    42   ar
    42    42    43   ar
    43    43    44   ar
    44    44    45   ar
    45    45    46   ar
    46    46     2    1
    47    22    14   ar
    48    39    34   ar
    49    46    41   ar
    50    22    17   ar
    51     1    47    1
    52     1    48    1
    53     1    49    1
    54     6    50    1
    55     7    51    1
    56     8    52    1
    57     8    53    1
    58     8    54    1
    59    11    55    1
    60    12    56    1
    61    13    57    1
    62    13    58    1
    63    15    59    1
    64    16    60    1
    65    18    61    1
    66    19    62    1
    67    20    63    1
    68    21    64    1
    69    25    65    1
    70    26    66    1
    71    27    67    1
    72    28    68    1
    73    30    69    1
    74    30    70    1
    75    30    71    1
    76    33    72    1
    77    33    73    1
    78    35    74    1
    79    36    75    1
    80    37    76    1
    81    38    77    1
    82    39    78    1
    83    40    79    1
    84    40    80    1
    85    42    81    1
    86    43    82    1
    87    44    83    1
    88    45    84    1
