@<TRIPOS>MOLECULE
*****
 30 32 0 0 0
SMALL
GASTEIGER

@<TRIPOS>ATOM
      1 O          -0.2166   -1.6788   -0.2377 O.2     1  UNL1       -0.2863
      2 C          -0.5190   -0.4858   -0.0090 C.ar    1  UNL1        0.2037
      3 C           0.4488    0.4674    0.2481 C.ar    1  UNL1        0.0644
      4 C           1.8742    0.1101    0.2616 C.ar    1  UNL1       -0.0110
      5 C           2.4301   -0.6946   -0.7326 C.ar    1  UNL1       -0.0504
      6 C           3.7601   -1.0335   -0.7282 C.ar    1  UNL1       -0.0196
      7 C           4.6059   -0.5921    0.2613 C.ar    1  UNL1        0.1169
      8 O           5.9510   -0.9137    0.2973 O.3     1  UNL1       -0.5068
      9 C           4.0493    0.2141    1.2574 C.ar    1  UNL1       -0.0196
     10 C           2.7149    0.5580    1.2590 C.ar    1  UNL1       -0.0504
     11 C           0.0568    1.7605    0.4920 C.ar    1  UNL1        0.1038
     12 O          -1.2125    2.0842    0.4811 O.2     1  UNL1       -0.4618
     13 C          -2.1436    1.1924    0.2391 C.ar    1  UNL1        0.1454
     14 C          -3.4948    1.5545    0.2311 C.ar    1  UNL1        0.0231
     15 C          -4.4620    0.6337   -0.0192 C.ar    1  UNL1        0.1239
     16 O          -5.8004    1.0209   -0.0212 O.3     1  UNL1       -0.5065
     17 C          -4.1223   -0.6859   -0.2719 C.ar    1  UNL1        0.0223
     18 C          -2.8034   -1.0950   -0.2756 C.ar    1  UNL1        0.1347
     19 O          -2.5107   -2.4163   -0.5315 O.3     1  UNL1       -0.5058
     20 C          -1.8546   -0.1314   -0.0176 C.ar    1  UNL1        0.1060
     21 H           1.7679   -1.0405   -1.5077 H       1  UNL1        0.0625
     22 H           4.1677   -1.6558   -1.5058 H       1  UNL1        0.0654
     23 H           6.7017   -0.2623    0.1979 H       1  UNL1        0.2921
     24 H           4.7030    0.5638    2.0350 H       1  UNL1        0.0654
     25 H           2.3248    1.1923    2.0613 H       1  UNL1        0.0625
     26 H           0.8354    2.5147    0.6962 H       1  UNL1        0.1037
     27 H          -3.7131    2.5865    0.4316 H       1  UNL1        0.0691
     28 H          -6.4229    0.6740    0.7104 H       1  UNL1        0.2921
     29 H          -4.9519   -1.3672   -0.4641 H       1  UNL1        0.0691
     30 H          -2.1640   -3.0741    0.1455 H       1  UNL1        0.2922
@<TRIPOS>BOND
     1     1     2    2
     2     2     3   ar
     3     3     4    1
     4     4     5   ar
     5     5     6   ar
     6     6     7   ar
     7     7     8    1
     8     7     9   ar
     9     9    10   ar
    10     3    11   ar
    11    11    12   ar
    12    12    13   ar
    13    13    14   ar
    14    14    15   ar
    15    15    16    1
    16    15    17   ar
    17    17    18   ar
    18    18    19    1
    19    18    20   ar
    20    20     2   ar
    21    10     4   ar
    22    20    13   ar
    23     5    21    1
    24     6    22    1
    25     8    23    1
    26     9    24    1
    27    10    25    1
    28    11    26    1
    29    14    27    1
    30    16    28    1
    31    17    29    1
    32    19    30    1
