
     RDKit          3D

 30 32  0  0  0  0  0  0  0  0999 V2000
   -0.2166   -1.6788   -0.2377 O   0  0  0  0  0  0  0  0  0  0  0  0
   -0.5190   -0.4858   -0.0090 C   0  0  0  0  0  0  0  0  0  0  0  0
    0.4488    0.4674    0.2481 C   0  0  0  0  0  0  0  0  0  0  0  0
    1.8742    0.1101    0.2616 C   0  0  0  0  0  0  0  0  0  0  0  0
    2.4301   -0.6946   -0.7326 C   0  0  0  0  0  0  0  0  0  0  0  0
    3.7601   -1.0335   -0.7282 C   0  0  0  0  0  0  0  0  0  0  0  0
    4.6059   -0.5921    0.2613 C   0  0  0  0  0  0  0  0  0  0  0  0
    5.9510   -0.9137    0.2973 O   0  0  0  0  0  0  0  0  0  0  0  0
    4.0493    0.2141    1.2574 C   0  0  0  0  0  0  0  0  0  0  0  0
    2.7149    0.5580    1.2590 C   0  0  0  0  0  0  0  0  0  0  0  0
    0.0568    1.7605    0.4920 C   0  0  0  0  0  0  0  0  0  0  0  0
   -1.2125    2.0842    0.4811 O   0  0  0  0  0  0  0  0  0  0  0  0
   -2.1436    1.1924    0.2391 C   0  0  0  0  0  0  0  0  0  0  0  0
   -3.4948    1.5545    0.2311 C   0  0  0  0  0  0  0  0  0  0  0  0
   -4.4620    0.6337   -0.0192 C   0  0  0  0  0  0  0  0  0  0  0  0
   -5.8004    1.0209   -0.0212 O   0  0  0  0  0  0  0  0  0  0  0  0
   -4.1223   -0.6859   -0.2719 C   0  0  0  0  0  0  0  0  0  0  0  0
   -2.8034   -1.0950   -0.2756 C   0  0  0  0  0  0  0  0  0  0  0  0
   -2.5107   -2.4163   -0.5315 O   0  0  0  0  0  0  0  0  0  0  0  0
   -1.8546   -0.1314   -0.0176 C   0  0  0  0  0  0  0  0  0  0  0  0
    1.7679   -1.0405   -1.5077 H   0  0  0  0  0  0  0  0  0  0  0  0
    4.1677   -1.6558   -1.5058 H   0  0  0  0  0  0  0  0  0  0  0  0
    6.7017   -0.2623    0.1979 H   0  0  0  0  0  0  0  0  0  0  0  0
    4.7030    0.5638    2.0350 H   0  0  0  0  0  0  0  0  0  0  0  0
    2.3248    1.1923    2.0613 H   0  0  0  0  0  0  0  0  0  0  0  0
    0.8354    2.5147    0.6962 H   0  0  0  0  0  0  0  0  0  0  0  0
   -3.7131    2.5865    0.4316 H   0  0  0  0  0  0  0  0  0  0  0  0
   -6.4229    0.6740    0.7104 H   0  0  0  0  0  0  0  0  0  0  0  0
   -4.9519   -1.3672   -0.4641 H   0  0  0  0  0  0  0  0  0  0  0  0
   -2.1640   -3.0741    0.1455 H   0  0  0  0  0  0  0  0  0  0  0  0
  1  2  2  0
  2  3  1  0
  3  4  1  0
  4  5  2  0
  5  6  1  0
  6  7  2  0
  7  8  1  0
  7  9  1  0
  9 10  2  0
  3 11  2  0
 11 12  1  0
 12 13  1  0
 13 14  2  0
 14 15  1  0
 15 16  1  0
 15 17  2  0
 17 18  1  0
 18 19  1  0
 18 20  2  0
 20  2  1  0
 10  4  1  0
 20 13  1  0
  5 21  1  0
  6 22  1  0
  8 23  1  0
  9 24  1  0
 10 25  1  0
 11 26  1  0
 14 27  1  0
 16 28  1  0
 17 29  1  0
 19 30  1  0
M  END
$$$$
