
     RDKit          3D

 57 63  0  0  0  0  0  0  0  0999 V2000
   -1.5394    0.3116   -1.9094 C   0  0  0  0  0  0  0  0  0  0  0  0
   -1.7122    0.4233   -0.4376 C   0  0  2  0  0  0  0  0  0  0  0  0
   -1.0800    1.7077    0.0322 C   0  0  0  0  0  0  0  0  0  0  0  0
    0.3929    1.6735   -0.2400 C   0  0  0  0  0  0  0  0  0  0  0  0
    1.0941    0.4868    0.3121 C   0  0  1  0  0  0  0  0  0  0  0  0
    0.4068   -0.8445   -0.0053 C   0  0  2  0  0  0  0  0  0  0  0  0
   -1.0257   -0.6656    0.3645 C   0  0  2  0  0  0  0  0  0  0  0  0
   -1.8829   -1.8534    0.3506 C   0  0  2  0  0  0  0  0  0  0  0  0
   -2.8734   -2.2206   -0.6383 C   0  0  0  0  0  0  0  0  0  0  0  0
   -3.2868   -1.2299    0.3902 C   0  0  2  0  0  0  0  0  0  0  0  0
   -3.1148    0.2197   -0.0304 C   0  0  1  0  0  0  0  0  0  0  0  0
   -3.6034    1.1139    1.0670 C   0  0  0  0  0  0  0  0  0  0  0  0
   -5.1027    1.1661    0.8539 C   0  0  0  0  0  0  0  0  0  0  0  0
   -5.3034    0.4454   -0.4327 C   0  0  0  0  0  0  0  0  0  0  0  0
   -6.4005   -0.0675   -0.8537 O   0  0  0  0  0  0  0  0  0  0  0  0
   -4.0624    0.4565   -1.0548 O   0  0  0  0  0  0  0  0  0  0  0  0
    0.9910   -1.8841    0.9191 C   0  0  1  0  0  0  0  0  0  0  0  0
    1.8696   -2.9330    0.3305 C   0  0  0  0  0  0  0  0  0  0  0  0
    2.4150   -1.8043    1.2069 C   0  0  1  0  0  0  0  0  0  0  0  0
    3.1719   -0.7097    0.5708 C   0  0  0  0  0  0  0  0  0  0  0  0
    4.4982   -0.7247    0.5988 C   0  0  0  0  0  0  0  0  0  0  0  0
    5.2875    0.3368   -0.0160 C   0  0  0  0  0  0  0  0  0  0  0  0
    6.4157    0.1323   -0.4986 O   0  0  0  0  0  0  0  0  0  0  0  0
    4.7081    1.6883   -0.0547 C   0  0  0  0  0  0  0  0  0  0  0  0
    3.2385    1.6885    0.3130 C   0  0  0  0  0  0  0  0  0  0  0  0
    2.5362    0.4470   -0.1246 C   0  0  2  0  0  0  0  0  0  0  0  0
    2.6382    0.3013   -1.6283 C   0  0  0  0  0  0  0  0  0  0  0  0
   -1.0182    1.2191   -2.3360 H   0  0  0  0  0  0  0  0  0  0  0  0
   -2.5647    0.3598   -2.3824 H   0  0  0  0  0  0  0  0  0  0  0  0
   -0.9811   -0.5494   -2.2741 H   0  0  0  0  0  0  0  0  0  0  0  0
   -1.5013    2.5876   -0.4978 H   0  0  0  0  0  0  0  0  0  0  0  0
   -1.1937    1.8083    1.1514 H   0  0  0  0  0  0  0  0  0  0  0  0
    0.8222    2.5694    0.3008 H   0  0  0  0  0  0  0  0  0  0  0  0
    0.6182    1.8849   -1.3167 H   0  0  0  0  0  0  0  0  0  0  0  0
    1.0975    0.5681    1.4210 H   0  0  0  0  0  0  0  0  0  0  0  0
    0.5588   -1.1158   -1.0716 H   0  0  0  0  0  0  0  0  0  0  0  0
   -1.0190   -0.2671    1.4276 H   0  0  0  0  0  0  0  0  0  0  0  0
   -1.6547   -2.5938    1.1738 H   0  0  0  0  0  0  0  0  0  0  0  0
   -2.8600   -1.9219   -1.7034 H   0  0  0  0  0  0  0  0  0  0  0  0
   -3.3566   -3.2271   -0.5127 H   0  0  0  0  0  0  0  0  0  0  0  0
   -3.9498   -1.4672    1.2190 H   0  0  0  0  0  0  0  0  0  0  0  0
   -3.4079    0.6077    2.0284 H   0  0  0  0  0  0  0  0  0  0  0  0
   -3.2011    2.1448    1.0207 H   0  0  0  0  0  0  0  0  0  0  0  0
   -5.6596    0.7049    1.6884 H   0  0  0  0  0  0  0  0  0  0  0  0
   -5.4399    2.2206    0.6785 H   0  0  0  0  0  0  0  0  0  0  0  0
    0.3394   -2.2540    1.7686 H   0  0  0  0  0  0  0  0  0  0  0  0
    2.0434   -2.8330   -0.7707 H   0  0  0  0  0  0  0  0  0  0  0  0
    1.8356   -3.9448    0.7328 H   0  0  0  0  0  0  0  0  0  0  0  0
    2.7697   -2.1798    2.2125 H   0  0  0  0  0  0  0  0  0  0  0  0
    4.9810   -1.5704    1.1023 H   0  0  0  0  0  0  0  0  0  0  0  0
    5.2651    2.3297    0.6597 H   0  0  0  0  0  0  0  0  0  0  0  0
    4.8812    2.1018   -1.0631 H   0  0  0  0  0  0  0  0  0  0  0  0
    2.7984    2.5779   -0.1951 H   0  0  0  0  0  0  0  0  0  0  0  0
    3.0962    1.8240    1.3999 H   0  0  0  0  0  0  0  0  0  0  0  0
    1.6281    0.2915   -2.0814 H   0  0  0  0  0  0  0  0  0  0  0  0
    3.1268   -0.6505   -1.9261 H   0  0  0  0  0  0  0  0  0  0  0  0
    3.2705    1.1133   -2.0373 H   0  0  0  0  0  0  0  0  0  0  0  0
  2  1  1  6
  2  3  1  0
  3  4  1  0
  4  5  1  0
  5  6  1  0
  6  7  1  0
  7  8  1  0
  8  9  1  0
  9 10  1  0
 10 11  1  0
 11 12  1  0
 12 13  1  0
 13 14  1  0
 14 15  2  0
 14 16  1  0
  6 17  1  0
 17 18  1  0
 18 19  1  0
 19 20  1  0
 20 21  2  0
 21 22  1  0
 22 23  2  0
 22 24  1  0
 24 25  1  0
 25 26  1  0
 26 27  1  6
  7  2  1  0
 10  8  1  0
 11 16  1  6
 19 17  1  0
 26 20  1  0
 11  2  1  0
 26  5  1  0
  1 28  1  0
  1 29  1  0
  1 30  1  0
  3 31  1  0
  3 32  1  0
  4 33  1  0
  4 34  1  0
  5 35  1  1
  6 36  1  6
  7 37  1  1
  8 38  1  1
  9 39  1  0
  9 40  1  0
 10 41  1  1
 12 42  1  0
 12 43  1  0
 13 44  1  0
 13 45  1  0
 17 46  1  1
 18 47  1  0
 18 48  1  0
 19 49  1  1
 21 50  1  0
 24 51  1  0
 24 52  1  0
 25 53  1  0
 25 54  1  0
 27 55  1  0
 27 56  1  0
 27 57  1  0
M  END
$$$$
