
     RDKit          3D

 54 58  0  0  0  0  0  0  0  0999 V2000
   -0.6807    1.1179   -1.1473 O   0  0  0  0  0  0  0  0  0  0  0  0
   -0.0330    0.4121   -0.2934 C   0  0  0  0  0  0  0  0  0  0  0  0
   -0.7617    0.1055    0.9454 C   0  0  0  0  0  0  0  0  0  0  0  0
   -2.1144    0.7814    0.9634 C   0  0  0  0  0  0  0  0  0  0  0  0
   -3.2059    0.1805    0.4646 N   0  0  0  0  0  0  0  0  0  0  0  0
   -4.3964    0.8023    0.4928 C   0  0  0  0  0  0  0  0  0  0  0  0
   -5.5302    0.1425   -0.0407 N   0  0  0  0  0  0  0  0  0  0  0  0
   -6.8373    0.7548   -0.0720 C   0  0  0  0  0  0  0  0  0  0  0  0
   -7.6101    0.0546   -1.1937 C   0  0  0  0  0  0  0  0  0  0  0  0
   -6.7200   -0.0671   -2.2780 O   0  0  0  0  0  0  0  0  0  0  0  0
   -5.8303   -1.1282   -2.0500 C   0  0  0  0  0  0  0  0  0  0  0  0
   -5.4394   -1.2124   -0.5947 C   0  0  0  0  0  0  0  0  0  0  0  0
   -4.5301    2.0611    1.0288 C   0  0  0  0  0  0  0  0  0  0  0  0
   -3.4011    2.6727    1.5404 C   0  0  0  0  0  0  0  0  0  0  0  0
   -3.4932    3.8203    2.0353 O   0  0  0  0  0  0  0  0  0  0  0  0
   -2.2397    2.0025    1.4843 N   0  0  0  0  0  0  0  0  0  0  0  0
    1.2753    0.0196   -0.6295 N   0  0  0  0  0  0  0  0  0  0  0  0
    1.9200    0.3321   -1.8986 C   0  0  0  0  0  0  0  0  0  0  0  0
    3.3430    0.6212   -1.3781 C   0  0  0  0  0  0  0  0  0  0  0  0
    3.5381   -0.3478   -0.2773 C   0  0  0  0  0  0  0  0  0  0  0  0
    4.6358   -0.9140    0.3164 C   0  0  0  0  0  0  0  0  0  0  0  0
    6.0129   -0.6078   -0.0392 C   0  0  0  0  0  0  0  0  0  0  0  0
    6.3842    0.5347   -0.6796 C   0  0  0  0  0  0  0  0  0  0  0  0
    7.7318    0.7561   -0.9342 C   0  0  0  0  0  0  0  0  0  0  0  0
    8.6798   -0.1503   -0.5517 C   0  0  0  0  0  0  0  0  0  0  0  0
    8.2940   -1.3044    0.0979 C   0  0  0  0  0  0  0  0  0  0  0  0
    6.9952   -1.4978    0.3319 N   0  0  0  0  0  0  0  0  0  0  0  0
    4.4007   -1.8717    1.3171 C   0  0  0  0  0  0  0  0  0  0  0  0
    3.1371   -2.2417    1.7051 C   0  0  0  0  0  0  0  0  0  0  0  0
    2.0378   -1.6662    1.1057 C   0  0  0  0  0  0  0  0  0  0  0  0
    2.2465   -0.7283    0.1245 C   0  0  0  0  0  0  0  0  0  0  0  0
   -1.0201   -1.0012    0.9507 H   0  0  0  0  0  0  0  0  0  0  0  0
   -0.1970    0.3283    1.8501 H   0  0  0  0  0  0  0  0  0  0  0  0
   -6.7841    1.8468   -0.2588 H   0  0  0  0  0  0  0  0  0  0  0  0
   -7.3699    0.5123    0.8785 H   0  0  0  0  0  0  0  0  0  0  0  0
   -8.4240    0.7103   -1.5161 H   0  0  0  0  0  0  0  0  0  0  0  0
   -7.8988   -0.9520   -0.8862 H   0  0  0  0  0  0  0  0  0  0  0  0
   -6.2929   -2.0749   -2.4010 H   0  0  0  0  0  0  0  0  0  0  0  0
   -4.9075   -0.9535   -2.6413 H   0  0  0  0  0  0  0  0  0  0  0  0
   -4.4468   -1.6579   -0.4366 H   0  0  0  0  0  0  0  0  0  0  0  0
   -6.2126   -1.8003   -0.0240 H   0  0  0  0  0  0  0  0  0  0  0  0
   -5.4595    2.6083    1.0791 H   0  0  0  0  0  0  0  0  0  0  0  0
   -1.3704    2.4591    1.8718 H   0  0  0  0  0  0  0  0  0  0  0  0
    1.9228   -0.5061   -2.6004 H   0  0  0  0  0  0  0  0  0  0  0  0
    1.5061    1.2647   -2.2786 H   0  0  0  0  0  0  0  0  0  0  0  0
    3.3493    1.6643   -1.0959 H   0  0  0  0  0  0  0  0  0  0  0  0
    4.0385    0.4593   -2.2377 H   0  0  0  0  0  0  0  0  0  0  0  0
    5.6587    1.3098   -0.9812 H   0  0  0  0  0  0  0  0  0  0  0  0
    8.0391    1.6525   -1.4395 H   0  0  0  0  0  0  0  0  0  0  0  0
    9.7488   -0.0253   -0.7269 H   0  0  0  0  0  0  0  0  0  0  0  0
    9.0504   -2.0285    0.4039 H   0  0  0  0  0  0  0  0  0  0  0  0
    5.2708   -2.3092    1.7736 H   0  0  0  0  0  0  0  0  0  0  0  0
    2.9682   -2.9844    2.4808 H   0  0  0  0  0  0  0  0  0  0  0  0
    1.0221   -1.9565    1.4101 H   0  0  0  0  0  0  0  0  0  0  0  0
  1  2  2  0
  2  3  1  0
  3  4  1  0
  4  5  2  0
  5  6  1  0
  6  7  1  0
  7  8  1  0
  8  9  1  0
  9 10  1  0
 10 11  1  0
 11 12  1  0
  6 13  2  0
 13 14  1  0
 14 15  2  0
 14 16  1  0
  2 17  1  0
 17 18  1  0
 18 19  1  0
 19 20  1  0
 20 21  2  0
 21 22  1  0
 22 23  2  0
 23 24  1  0
 24 25  2  0
 25 26  1  0
 26 27  2  0
 21 28  1  0
 28 29  2  0
 29 30  1  0
 30 31  2  0
 16  4  1  0
 31 17  1  0
 12  7  1  0
 31 20  1  0
 27 22  1  0
  3 32  1  0
  3 33  1  0
  8 34  1  0
  8 35  1  0
  9 36  1  0
  9 37  1  0
 11 38  1  0
 11 39  1  0
 12 40  1  0
 12 41  1  0
 13 42  1  0
 16 43  1  0
 18 44  1  0
 18 45  1  0
 19 46  1  0
 19 47  1  0
 23 48  1  0
 24 49  1  0
 25 50  1  0
 26 51  1  0
 28 52  1  0
 29 53  1  0
 30 54  1  0
M  END
$$$$
