@<TRIPOS>MOLECULE
*****
 54 58 0 0 0
SMALL
GASTEIGER

@<TRIPOS>ATOM
      1 O          -0.6807    1.1179   -1.1473 O.2     1  UNL1       -0.2748
      2 C          -0.0330    0.4121   -0.2934 C.2     1  UNL1        0.2271
      3 C          -0.7617    0.1055    0.9454 C.3     1  UNL1        0.0826
      4 C          -2.1144    0.7814    0.9634 C.ar    1  UNL1        0.1206
      5 N          -3.2059    0.1805    0.4646 N.ar    1  UNL1       -0.2186
      6 C          -4.3964    0.8023    0.4928 C.ar    1  UNL1        0.1285
      7 N          -5.5302    0.1425   -0.0407 N.pl3   1  UNL1       -0.3106
      8 C          -6.8373    0.7548   -0.0720 C.3     1  UNL1        0.0370
      9 C          -7.6101    0.0546   -1.1937 C.3     1  UNL1        0.0634
     10 O          -6.7200   -0.0671   -2.2780 O.3     1  UNL1       -0.3767
     11 C          -5.8303   -1.1282   -2.0500 C.3     1  UNL1        0.0634
     12 C          -5.4394   -1.2124   -0.5947 C.3     1  UNL1        0.0370
     13 C          -4.5301    2.0611    1.0288 C.ar    1  UNL1        0.0427
     14 C          -3.4011    2.6727    1.5404 C.ar    1  UNL1        0.2533
     15 O          -3.4932    3.8203    2.0353 O.2     1  UNL1       -0.2677
     16 N          -2.2397    2.0025    1.4843 N.ar    1  UNL1       -0.3104
     17 N           1.2753    0.0196   -0.6295 N.am    1  UNL1       -0.2705
     18 C           1.9200    0.3321   -1.8986 C.3     1  UNL1        0.0239
     19 C           3.3430    0.6212   -1.3781 C.3     1  UNL1       -0.0090
     20 C           3.5381   -0.3478   -0.2773 C.ar    1  UNL1       -0.0153
     21 C           4.6358   -0.9140    0.3164 C.ar    1  UNL1        0.0053
     22 C           6.0129   -0.6078   -0.0392 C.ar    1  UNL1        0.0713
     23 C           6.3842    0.5347   -0.6796 C.ar    1  UNL1       -0.0357
     24 C           7.7318    0.7561   -0.9342 C.ar    1  UNL1       -0.0583
     25 C           8.6798   -0.1503   -0.5517 C.ar    1  UNL1       -0.0436
     26 C           8.2940   -1.3044    0.0979 C.ar    1  UNL1        0.0283
     27 N           6.9952   -1.4978    0.3319 N.ar    1  UNL1       -0.2550
     28 C           4.4007   -1.8717    1.3171 C.ar    1  UNL1       -0.0522
     29 C           3.1371   -2.2417    1.7051 C.ar    1  UNL1       -0.0594
     30 C           2.0378   -1.6662    1.1057 C.ar    1  UNL1       -0.0400
     31 C           2.2465   -0.7283    0.1245 C.ar    1  UNL1        0.0401
     32 H          -1.0201   -1.0012    0.9507 H       1  UNL1        0.0438
     33 H          -0.1970    0.3283    1.8501 H       1  UNL1        0.0438
     34 H          -6.7841    1.8468   -0.2588 H       1  UNL1        0.0487
     35 H          -7.3699    0.5123    0.8785 H       1  UNL1        0.0487
     36 H          -8.4240    0.7103   -1.5161 H       1  UNL1        0.0575
     37 H          -7.8988   -0.9520   -0.8862 H       1  UNL1        0.0575
     38 H          -6.2929   -2.0749   -2.4010 H       1  UNL1        0.0575
     39 H          -4.9075   -0.9535   -2.6413 H       1  UNL1        0.0575
     40 H          -4.4468   -1.6579   -0.4366 H       1  UNL1        0.0487
     41 H          -6.2126   -1.8003   -0.0240 H       1  UNL1        0.0487
     42 H          -5.4595    2.6083    1.0791 H       1  UNL1        0.0706
     43 H          -1.3704    2.4591    1.8718 H       1  UNL1        0.1700
     44 H           1.9228   -0.5061   -2.6004 H       1  UNL1        0.0472
     45 H           1.5061    1.2647   -2.2786 H       1  UNL1        0.0472
     46 H           3.3493    1.6643   -1.0959 H       1  UNL1        0.0329
     47 H           4.0385    0.4593   -2.2377 H       1  UNL1        0.0329
     48 H           5.6587    1.3098   -0.9812 H       1  UNL1        0.0639
     49 H           8.0391    1.6525   -1.4395 H       1  UNL1        0.0619
     50 H           9.7488   -0.0253   -0.7269 H       1  UNL1        0.0633
     51 H           9.0504   -2.0285    0.4039 H       1  UNL1        0.0830
     52 H           5.2708   -2.3092    1.7736 H       1  UNL1        0.0624
     53 H           2.9682   -2.9844    2.4808 H       1  UNL1        0.0618
     54 H           1.0221   -1.9565    1.4101 H       1  UNL1        0.0636
@<TRIPOS>BOND
     1     1     2    2
     2     2     3    1
     3     3     4    1
     4     4     5   ar
     5     5     6   ar
     6     6     7    1
     7     7     8    1
     8     8     9    1
     9     9    10    1
    10    10    11    1
    11    11    12    1
    12     6    13   ar
    13    13    14   ar
    14    14    15    2
    15    14    16   ar
    16     2    17   am
    17    17    18    1
    18    18    19    1
    19    19    20    1
    20    20    21   ar
    21    21    22    1
    22    22    23   ar
    23    23    24   ar
    24    24    25   ar
    25    25    26   ar
    26    26    27   ar
    27    21    28   ar
    28    28    29   ar
    29    29    30   ar
    30    30    31   ar
    31    16     4   ar
    32    31    17    1
    33    12     7    1
    34    31    20   ar
    35    27    22   ar
    36     3    32    1
    37     3    33    1
    38     8    34    1
    39     8    35    1
    40     9    36    1
    41     9    37    1
    42    11    38    1
    43    11    39    1
    44    12    40    1
    45    12    41    1
    46    13    42    1
    47    16    43    1
    48    18    44    1
    49    18    45    1
    50    19    46    1
    51    19    47    1
    52    23    48    1
    53    24    49    1
    54    25    50    1
    55    26    51    1
    56    28    52    1
    57    29    53    1
    58    30    54    1
