@<TRIPOS>MOLECULE
*****
 54 58 0 0 0
SMALL
GASTEIGER

@<TRIPOS>ATOM
      1 O           2.6148   -1.0380   -3.4559 O.2     1  UNL1       -0.2817
      2 C           2.9755   -0.9586   -2.2433 C.2     1  UNL1        0.2496
      3 C           4.2027   -1.4644   -1.6577 C.2     1  UNL1        0.2915
      4 O           5.1415   -2.0771   -2.2385 O.2     1  UNL1       -0.2661
      5 N           4.1525   -1.1339   -0.2672 N.am    1  UNL1       -0.2598
      6 C           5.2076   -1.4709    0.6879 C.3     1  UNL1        0.0454
      7 C           6.2260   -0.3756    0.7427 C.ar    1  UNL1       -0.0240
      8 C           7.3198   -0.4020   -0.1096 C.ar    1  UNL1       -0.0387
      9 C           8.2604    0.6035   -0.0639 C.ar    1  UNL1        0.0309
     10 N           8.1249    1.6223    0.8105 N.ar    1  UNL1       -0.2276
     11 C           7.0798    1.6693    1.6410 C.ar    1  UNL1        0.2135
     12 F           6.9440    2.7018    2.5261 F       1  UNL1       -0.1839
     13 C           6.1104    0.6760    1.6266 C.ar    1  UNL1       -0.0026
     14 C           2.9459   -0.4526   -0.0025 C.ar    1  UNL1        0.0481
     15 C           2.4677    0.0563    1.1968 C.ar    1  UNL1       -0.0377
     16 C           1.2431    0.6861    1.1882 C.ar    1  UNL1       -0.0335
     17 C           0.5068    0.8139    0.0346 C.ar    1  UNL1        0.1063
     18 S          -1.0257    1.6163    0.1021 S.O2    1  UNL1        0.0612
     19 O          -1.0383    2.7010    1.1559 O.2     1  UNL1       -0.1528
     20 O          -1.2922    2.3130   -1.2233 O.2     1  UNL1       -0.1528
     21 N          -2.3452    0.5829    0.4036 N.3     1  UNL1       -0.1702
     22 C          -2.3437   -0.1377    1.6492 C.3     1  UNL1        0.0225
     23 C          -2.8570   -1.3458    0.8480 C.3     1  UNL1       -0.0180
     24 C          -2.4226   -0.6199   -0.3819 C.3     1  UNL1        0.0671
     25 C          -3.4824   -0.4742   -1.4881 C.3     1  UNL1        0.1067
     26 O          -4.6744   -0.2499   -1.0471 O.3     1  UNL1       -0.4904
     27 C          -5.8605   -0.0269   -0.6082 C.ar    1  UNL1        0.1206
     28 C          -6.6371   -0.8583    0.2119 C.ar    1  UNL1       -0.0199
     29 C          -7.8999   -0.5326    0.6321 C.ar    1  UNL1       -0.0583
     30 C          -8.4560    0.6568    0.2479 C.ar    1  UNL1       -0.0615
     31 C          -7.7507    1.5227   -0.5575 C.ar    1  UNL1       -0.0583
     32 C          -6.4979    1.1815   -0.9647 C.ar    1  UNL1       -0.0199
     33 C           0.9866    0.3079   -1.1491 C.ar    1  UNL1       -0.0226
     34 C           2.2079   -0.3281   -1.1757 C.ar    1  UNL1        0.0502
     35 H           4.7743   -1.5879    1.6861 H       1  UNL1        0.0518
     36 H           5.7204   -2.3986    0.4033 H       1  UNL1        0.0518
     37 H           7.4254   -1.2209   -0.8100 H       1  UNL1        0.0636
     38 H           9.1322    0.5948   -0.7359 H       1  UNL1        0.0830
     39 H           5.2857    0.7512    2.3099 H       1  UNL1        0.0665
     40 H           3.0336   -0.0375    2.1064 H       1  UNL1        0.0637
     41 H           0.8437    1.0922    2.1063 H       1  UNL1        0.0638
     42 H          -1.3411   -0.2695    2.0806 H       1  UNL1        0.0444
     43 H          -3.1252    0.2847    2.3175 H       1  UNL1        0.0444
     44 H          -3.9127   -1.5513    1.0013 H       1  UNL1        0.0295
     45 H          -2.2197   -2.2163    1.1186 H       1  UNL1        0.0295
     46 H          -1.4490   -0.9987   -0.7667 H       1  UNL1        0.0514
     47 H          -3.3325   -1.3253   -2.2269 H       1  UNL1        0.0713
     48 H          -3.0892    0.4396   -2.0686 H       1  UNL1        0.0713
     49 H          -6.1992   -1.7936    0.5071 H       1  UNL1        0.0654
     50 H          -8.4955   -1.1907    1.2713 H       1  UNL1        0.0619
     51 H          -9.4476    0.9436    0.5614 H       1  UNL1        0.0618
     52 H          -8.2212    2.4536   -0.8427 H       1  UNL1        0.0619
     53 H          -5.9734    1.8885   -1.5984 H       1  UNL1        0.0654
     54 H           0.4568    0.3775   -2.0816 H       1  UNL1        0.0645
@<TRIPOS>BOND
     1     1     2    2
     2     2     3    1
     3     3     4    2
     4     3     5   am
     5     5     6    1
     6     6     7    1
     7     7     8   ar
     8     8     9   ar
     9     9    10   ar
    10    10    11   ar
    11    11    12    1
    12    11    13   ar
    13     5    14    1
    14    14    15   ar
    15    15    16   ar
    16    16    17   ar
    17    17    18    1
    18    18    19    2
    19    18    20    2
    20    18    21    1
    21    21    22    1
    22    22    23    1
    23    23    24    1
    24    24    25    1
    25    25    26    1
    26    26    27    1
    27    27    28   ar
    28    28    29   ar
    29    29    30   ar
    30    30    31   ar
    31    31    32   ar
    32    17    33   ar
    33    33    34   ar
    34    34     2    1
    35    13     7   ar
    36    34    14   ar
    37    24    21    1
    38    32    27   ar
    39     6    35    1
    40     6    36    1
    41     8    37    1
    42     9    38    1
    43    13    39    1
    44    15    40    1
    45    16    41    1
    46    22    42    1
    47    22    43    1
    48    23    44    1
    49    23    45    1
    50    24    46    1
    51    25    47    1
    52    25    48    1
    53    28    49    1
    54    29    50    1
    55    30    51    1
    56    31    52    1
    57    32    53    1
    58    33    54    1
