@<TRIPOS>MOLECULE
*****
 62 66 0 0 0
SMALL
GASTEIGER

@<TRIPOS>ATOM
      1 C          11.9223   -1.8187    0.2442 C.3     1  UNL1        0.0788
      2 O          11.2524   -1.5330   -0.9696 O.3     1  UNL1       -0.4951
      3 C           9.9784   -1.0455   -0.9325 C.ar    1  UNL1        0.1201
      4 C           9.3423   -0.8301    0.2994 C.ar    1  UNL1       -0.0192
      5 C           8.0585   -0.3396    0.3492 C.ar    1  UNL1       -0.0460
      6 C           7.3346   -0.0366   -0.7861 C.ar    1  UNL1        0.0387
      7 C           5.9810    0.4920   -0.6701 C.ar    1  UNL1        0.2489
      8 N           5.1655    0.7846   -1.6987 N.ar    1  UNL1       -0.1068
      9 N           4.0163    1.2411   -1.2376 N.ar    1  UNL1       -0.1021
     10 C           4.0983    1.2399    0.0999 C.ar    1  UNL1        0.3042
     11 C           3.0670    1.6647    1.0545 C.2     1  UNL1        0.3035
     12 O           3.4162    1.6580    2.2835 O.2     1  UNL1       -0.2647
     13 N           1.7542    2.0666    0.6685 N.am    1  UNL1       -0.2865
     14 C           0.6512    2.5244    1.4877 C.3     1  UNL1        0.0538
     15 C           0.0101    3.1039    0.2403 C.3     1  UNL1        0.1314
     16 O          -1.3374    2.9858    0.1675 O.3     1  UNL1       -0.4857
     17 C          -2.2787    2.0362    0.3140 C.ar    1  UNL1        0.1211
     18 C          -3.6362    2.4297    0.2509 C.ar    1  UNL1       -0.0196
     19 C          -4.6030    1.4898    0.3988 C.ar    1  UNL1       -0.0539
     20 C          -4.3312    0.1673    0.6067 C.ar    1  UNL1       -0.0331
     21 C          -5.4351   -0.7912    0.7748 C.3     1  UNL1        0.0241
     22 N          -5.9153   -1.4011   -0.4162 N.3     1  UNL1       -0.2954
     23 C          -6.5080   -0.5262   -1.3745 C.3     1  UNL1        0.0020
     24 C          -7.5994   -1.3296   -2.0697 C.3     1  UNL1       -0.0102
     25 C          -8.1374   -2.1267   -0.8991 C.3     1  UNL1        0.0771
     26 C          -9.1751   -1.3753   -0.1171 C.3     1  UNL1       -0.0348
     27 O          -8.6577   -3.3102   -1.3783 O.3     1  UNL1       -0.3875
     28 C          -6.8992   -2.4090   -0.0752 C.3     1  UNL1        0.0279
     29 C          -3.0242   -0.2232    0.6683 C.ar    1  UNL1       -0.0539
     30 C          -2.0229    0.6948    0.5244 C.ar    1  UNL1       -0.0196
     31 C           0.9418    2.2086   -0.5094 C.3     1  UNL1        0.0538
     32 O           5.2953    0.7815    0.3925 O.2     1  UNL1       -0.4123
     33 C           7.9474   -0.2448   -1.9940 C.ar    1  UNL1       -0.0460
     34 C           9.2535   -0.7432   -2.0593 C.ar    1  UNL1       -0.0192
     35 H          11.3593   -2.6624    0.7033 H       1  UNL1        0.0660
     36 H          12.9677   -2.0902   -0.0115 H       1  UNL1        0.0660
     37 H          11.9252   -0.9747    0.9561 H       1  UNL1        0.0660
     38 H           9.8996   -1.0629    1.2020 H       1  UNL1        0.0654
     39 H           7.5639   -0.1716    1.3186 H       1  UNL1        0.0626
     40 H           0.9962    3.3304    2.2147 H       1  UNL1        0.0502
     41 H           0.1180    1.7518    2.0276 H       1  UNL1        0.0502
     42 H           0.3806    4.1966    0.1780 H       1  UNL1        0.0765
     43 H          -3.9126    3.4550    0.0895 H       1  UNL1        0.0654
     44 H          -5.6559    1.8184    0.3545 H       1  UNL1        0.0622
     45 H          -6.3225   -0.2949    1.2616 H       1  UNL1        0.0476
     46 H          -5.1329   -1.5896    1.4891 H       1  UNL1        0.0476
     47 H          -5.8404   -0.1305   -2.1441 H       1  UNL1        0.0428
     48 H          -7.0267    0.3234   -0.8517 H       1  UNL1        0.0428
     49 H          -7.1944   -1.9526   -2.8700 H       1  UNL1        0.0306
     50 H          -8.3367   -0.6085   -2.4465 H       1  UNL1        0.0306
     51 H          -9.9365   -2.0455    0.3425 H       1  UNL1        0.0258
     52 H          -9.7030   -0.6504   -0.7461 H       1  UNL1        0.0258
     53 H          -8.7373   -0.8147    0.7402 H       1  UNL1        0.0258
     54 H          -9.1380   -3.7552   -0.6321 H       1  UNL1        0.2102
     55 H          -7.1760   -2.3634    1.0041 H       1  UNL1        0.0455
     56 H          -6.4740   -3.4029   -0.2423 H       1  UNL1        0.0455
     57 H          -2.7611   -1.2858    0.8330 H       1  UNL1        0.0622
     58 H          -0.9832    0.3490    0.5707 H       1  UNL1        0.0654
     59 H           0.5116    1.2882   -0.9468 H       1  UNL1        0.0502
     60 H           1.5646    2.7693   -1.2831 H       1  UNL1        0.0502
     61 H           7.3992   -0.0133   -2.8984 H       1  UNL1        0.0626
     62 H           9.7200   -0.8979   -3.0357 H       1  UNL1        0.0654
@<TRIPOS>BOND
     1     1     2    1
     2     2     3    1
     3     3     4   ar
     4     4     5   ar
     5     5     6   ar
     6     6     7    1
     7     7     8   ar
     8     8     9   ar
     9     9    10   ar
    10    10    11    1
    11    11    12    2
    12    11    13   am
    13    13    14    1
    14    14    15    1
    15    15    16    1
    16    16    17    1
    17    17    18   ar
    18    18    19   ar
    19    19    20   ar
    20    20    21    1
    21    21    22    1
    22    22    23    1
    23    23    24    1
    24    24    25    1
    25    25    26    1
    26    25    27    1
    27    25    28    1
    28    20    29   ar
    29    29    30   ar
    30    15    31    1
    31    10    32   ar
    32     6    33   ar
    33    33    34   ar
    34    34     3   ar
    35    32     7   ar
    36    31    13    1
    37    30    17   ar
    38    28    22    1
    39     1    35    1
    40     1    36    1
    41     1    37    1
    42     4    38    1
    43     5    39    1
    44    14    40    1
    45    14    41    1
    46    15    42    1
    47    18    43    1
    48    19    44    1
    49    21    45    1
    50    21    46    1
    51    23    47    1
    52    23    48    1
    53    24    49    1
    54    24    50    1
    55    26    51    1
    56    26    52    1
    57    26    53    1
    58    27    54    1
    59    28    55    1
    60    28    56    1
    61    29    57    1
    62    30    58    1
    63    31    59    1
    64    31    60    1
    65    33    61    1
    66    34    62    1
