
     RDKit          3D

 62 66  0  0  0  0  0  0  0  0999 V2000
   11.9223   -1.8187    0.2442 C   0  0  0  0  0  0  0  0  0  0  0  0
   11.2524   -1.5330   -0.9696 O   0  0  0  0  0  0  0  0  0  0  0  0
    9.9784   -1.0455   -0.9325 C   0  0  0  0  0  0  0  0  0  0  0  0
    9.3423   -0.8301    0.2994 C   0  0  0  0  0  0  0  0  0  0  0  0
    8.0585   -0.3396    0.3492 C   0  0  0  0  0  0  0  0  0  0  0  0
    7.3346   -0.0366   -0.7861 C   0  0  0  0  0  0  0  0  0  0  0  0
    5.9810    0.4920   -0.6701 C   0  0  0  0  0  0  0  0  0  0  0  0
    5.1655    0.7846   -1.6987 N   0  0  0  0  0  0  0  0  0  0  0  0
    4.0163    1.2411   -1.2376 N   0  0  0  0  0  0  0  0  0  0  0  0
    4.0983    1.2399    0.0999 C   0  0  0  0  0  0  0  0  0  0  0  0
    3.0670    1.6647    1.0545 C   0  0  0  0  0  0  0  0  0  0  0  0
    3.4162    1.6580    2.2835 O   0  0  0  0  0  0  0  0  0  0  0  0
    1.7542    2.0666    0.6685 N   0  0  0  0  0  0  0  0  0  0  0  0
    0.6512    2.5244    1.4877 C   0  0  0  0  0  0  0  0  0  0  0  0
    0.0101    3.1039    0.2403 C   0  0  0  0  0  0  0  0  0  0  0  0
   -1.3374    2.9858    0.1675 O   0  0  0  0  0  0  0  0  0  0  0  0
   -2.2787    2.0362    0.3140 C   0  0  0  0  0  0  0  0  0  0  0  0
   -3.6362    2.4297    0.2509 C   0  0  0  0  0  0  0  0  0  0  0  0
   -4.6030    1.4898    0.3988 C   0  0  0  0  0  0  0  0  0  0  0  0
   -4.3312    0.1673    0.6067 C   0  0  0  0  0  0  0  0  0  0  0  0
   -5.4351   -0.7912    0.7748 C   0  0  0  0  0  0  0  0  0  0  0  0
   -5.9153   -1.4011   -0.4162 N   0  0  0  0  0  0  0  0  0  0  0  0
   -6.5080   -0.5262   -1.3745 C   0  0  0  0  0  0  0  0  0  0  0  0
   -7.5994   -1.3296   -2.0697 C   0  0  0  0  0  0  0  0  0  0  0  0
   -8.1374   -2.1267   -0.8991 C   0  0  0  0  0  0  0  0  0  0  0  0
   -9.1751   -1.3753   -0.1171 C   0  0  0  0  0  0  0  0  0  0  0  0
   -8.6577   -3.3102   -1.3783 O   0  0  0  0  0  0  0  0  0  0  0  0
   -6.8992   -2.4090   -0.0752 C   0  0  0  0  0  0  0  0  0  0  0  0
   -3.0242   -0.2232    0.6683 C   0  0  0  0  0  0  0  0  0  0  0  0
   -2.0229    0.6948    0.5244 C   0  0  0  0  0  0  0  0  0  0  0  0
    0.9418    2.2086   -0.5094 C   0  0  0  0  0  0  0  0  0  0  0  0
    5.2953    0.7815    0.3925 O   0  0  0  0  0  0  0  0  0  0  0  0
    7.9474   -0.2448   -1.9940 C   0  0  0  0  0  0  0  0  0  0  0  0
    9.2535   -0.7432   -2.0593 C   0  0  0  0  0  0  0  0  0  0  0  0
   11.3593   -2.6624    0.7033 H   0  0  0  0  0  0  0  0  0  0  0  0
   12.9677   -2.0902   -0.0115 H   0  0  0  0  0  0  0  0  0  0  0  0
   11.9252   -0.9747    0.9561 H   0  0  0  0  0  0  0  0  0  0  0  0
    9.8996   -1.0629    1.2020 H   0  0  0  0  0  0  0  0  0  0  0  0
    7.5639   -0.1716    1.3186 H   0  0  0  0  0  0  0  0  0  0  0  0
    0.9962    3.3304    2.2147 H   0  0  0  0  0  0  0  0  0  0  0  0
    0.1180    1.7518    2.0276 H   0  0  0  0  0  0  0  0  0  0  0  0
    0.3806    4.1966    0.1780 H   0  0  0  0  0  0  0  0  0  0  0  0
   -3.9126    3.4550    0.0895 H   0  0  0  0  0  0  0  0  0  0  0  0
   -5.6559    1.8184    0.3545 H   0  0  0  0  0  0  0  0  0  0  0  0
   -6.3225   -0.2949    1.2616 H   0  0  0  0  0  0  0  0  0  0  0  0
   -5.1329   -1.5896    1.4891 H   0  0  0  0  0  0  0  0  0  0  0  0
   -5.8404   -0.1305   -2.1441 H   0  0  0  0  0  0  0  0  0  0  0  0
   -7.0267    0.3234   -0.8517 H   0  0  0  0  0  0  0  0  0  0  0  0
   -7.1944   -1.9526   -2.8700 H   0  0  0  0  0  0  0  0  0  0  0  0
   -8.3367   -0.6085   -2.4465 H   0  0  0  0  0  0  0  0  0  0  0  0
   -9.9365   -2.0455    0.3425 H   0  0  0  0  0  0  0  0  0  0  0  0
   -9.7030   -0.6504   -0.7461 H   0  0  0  0  0  0  0  0  0  0  0  0
   -8.7373   -0.8147    0.7402 H   0  0  0  0  0  0  0  0  0  0  0  0
   -9.1380   -3.7552   -0.6321 H   0  0  0  0  0  0  0  0  0  0  0  0
   -7.1760   -2.3634    1.0041 H   0  0  0  0  0  0  0  0  0  0  0  0
   -6.4740   -3.4029   -0.2423 H   0  0  0  0  0  0  0  0  0  0  0  0
   -2.7611   -1.2858    0.8330 H   0  0  0  0  0  0  0  0  0  0  0  0
   -0.9832    0.3490    0.5707 H   0  0  0  0  0  0  0  0  0  0  0  0
    0.5116    1.2882   -0.9468 H   0  0  0  0  0  0  0  0  0  0  0  0
    1.5646    2.7693   -1.2831 H   0  0  0  0  0  0  0  0  0  0  0  0
    7.3992   -0.0133   -2.8984 H   0  0  0  0  0  0  0  0  0  0  0  0
    9.7200   -0.8979   -3.0357 H   0  0  0  0  0  0  0  0  0  0  0  0
  1  2  1  0
  2  3  1  0
  3  4  2  0
  4  5  1  0
  5  6  2  0
  6  7  1  0
  7  8  2  0
  8  9  1  0
  9 10  2  0
 10 11  1  0
 11 12  2  0
 11 13  1  0
 13 14  1  0
 14 15  1  0
 15 16  1  0
 16 17  1  0
 17 18  2  0
 18 19  1  0
 19 20  2  0
 20 21  1  0
 21 22  1  0
 22 23  1  0
 23 24  1  0
 24 25  1  0
 25 26  1  0
 25 27  1  0
 25 28  1  0
 20 29  1  0
 29 30  2  0
 15 31  1  0
 10 32  1  0
  6 33  1  0
 33 34  2  0
 34  3  1  0
 32  7  1  0
 31 13  1  0
 30 17  1  0
 28 22  1  0
  1 35  1  0
  1 36  1  0
  1 37  1  0
  4 38  1  0
  5 39  1  0
 14 40  1  0
 14 41  1  0
 15 42  1  0
 18 43  1  0
 19 44  1  0
 21 45  1  0
 21 46  1  0
 23 47  1  0
 23 48  1  0
 24 49  1  0
 24 50  1  0
 26 51  1  0
 26 52  1  0
 26 53  1  0
 27 54  1  0
 28 55  1  0
 28 56  1  0
 29 57  1  0
 30 58  1  0
 31 59  1  0
 31 60  1  0
 33 61  1  0
 34 62  1  0
M  END
$$$$
