
     RDKit          3D

 31 33  0  0  0  0  0  0  0  0999 V2000
    1.0019    3.5000    1.7206 O   0  0  0  0  0  0  0  0  0  0  0  0
    1.1917    2.1893    1.3904 C   0  0  0  0  0  0  0  0  0  0  0  0
    0.0026    1.5504    0.8747 N   0  0  0  0  0  0  0  0  0  0  0  0
   -0.1684    0.4072    0.2922 C   0  0  0  0  0  0  0  0  0  0  0  0
   -1.5089    0.0608   -0.1161 C   0  0  0  0  0  0  0  0  0  0  0  0
   -2.4986    0.9441    0.3485 C   0  0  0  0  0  0  0  0  0  0  0  0
   -3.8289    0.8707    0.0403 C   0  0  0  0  0  0  0  0  0  0  0  0
   -4.2782   -0.1169   -0.7763 C   0  0  0  0  0  0  0  0  0  0  0  0
   -3.3818   -1.0137   -1.2703 C   0  0  0  0  0  0  0  0  0  0  0  0
   -2.0583   -0.8884   -0.9263 C   0  0  0  0  0  0  0  0  0  0  0  0
    0.9246   -0.5637    0.0912 C   0  0  0  0  0  0  0  0  0  0  0  0
    2.2451   -0.2664   -0.2721 C   0  0  0  0  0  0  0  0  0  0  0  0
    2.8109    1.0603   -0.4114 N   0  0  0  0  0  0  0  0  0  0  0  0
    2.3076    2.1598    0.3962 C   0  0  0  0  0  0  0  0  0  0  0  0
    3.0251    3.1796    0.1005 O   0  0  0  0  0  0  0  0  0  0  0  0
    3.1340   -1.3308   -0.4654 C   0  0  0  0  0  0  0  0  0  0  0  0
    2.6512   -2.6084   -0.2824 C   0  0  0  0  0  0  0  0  0  0  0  0
    1.3461   -2.8679    0.0790 C   0  0  0  0  0  0  0  0  0  0  0  0
    0.7484   -4.4939    0.3072 Cl  0  0  0  0  0  0  0  0  0  0  0  0
    0.4250   -1.8629    0.2834 C   0  0  0  0  0  0  0  0  0  0  0  0
    1.0441    4.1257    0.9410 H   0  0  0  0  0  0  0  0  0  0  0  0
    1.5278    1.6229    2.2726 H   0  0  0  0  0  0  0  0  0  0  0  0
   -2.2617    1.7877    1.0184 H   0  0  0  0  0  0  0  0  0  0  0  0
   -4.5637    1.5670    0.4153 H   0  0  0  0  0  0  0  0  0  0  0  0
   -5.3017   -0.2671   -1.0817 H   0  0  0  0  0  0  0  0  0  0  0  0
   -3.6429   -1.8239   -1.9199 H   0  0  0  0  0  0  0  0  0  0  0  0
   -1.3321   -1.5591   -1.3568 H   0  0  0  0  0  0  0  0  0  0  0  0
    3.5677    1.0577   -1.1186 H   0  0  0  0  0  0  0  0  0  0  0  0
    4.1103   -1.0131   -0.7407 H   0  0  0  0  0  0  0  0  0  0  0  0
    3.3581   -3.4093   -0.4390 H   0  0  0  0  0  0  0  0  0  0  0  0
   -0.5970   -1.9975    0.6056 H   0  0  0  0  0  0  0  0  0  0  0  0
  1  2  1  0
  2  3  1  0
  3  4  2  0
  4  5  1  0
  5  6  2  0
  6  7  1  0
  7  8  2  0
  8  9  1  0
  9 10  2  0
  4 11  1  0
 11 12  2  0
 12 13  1  0
 13 14  1  0
 14 15  2  0
 12 16  1  0
 16 17  2  0
 17 18  1  0
 18 19  1  0
 18 20  2  0
 14  2  1  0
 10  5  1  0
 20 11  1  0
  1 21  1  0
  2 22  1  0
  6 23  1  0
  7 24  1  0
  8 25  1  0
  9 26  1  0
 10 27  1  0
 13 28  1  0
 16 29  1  0
 17 30  1  0
 20 31  1  0
M  END
$$$$
