@<TRIPOS>MOLECULE
*****
 39 42 0 0 0
SMALL
GASTEIGER

@<TRIPOS>ATOM
      1 O          -0.0604   -0.8530    1.0951 O.2     1  UNL1       -0.2737
      2 C           0.2839    0.2004    0.5266 C.2     1  UNL1        0.2354
      3 C          -0.6995    1.2397    0.2074 C.3     1  UNL1        0.0964
      4 N          -2.0274    0.9379    0.5921 N.am    1  UNL1       -0.2609
      5 C          -2.5213    1.3249    1.8959 C.2     1  UNL1        0.2206
      6 O          -1.9646    2.2981    2.4262 O.2     1  UNL1       -0.2752
      7 C          -3.6222    0.5139    2.4274 C.3     1  UNL1        0.0299
      8 C          -4.7215    0.4477    1.4105 C.3     1  UNL1       -0.0003
      9 C          -4.2021   -0.0113    0.1111 C.ar    1  UNL1        0.0630
     10 N          -4.9999   -0.7032   -0.7601 N.ar    1  UNL1       -0.2580
     11 C          -4.5563   -1.1009   -1.9406 C.ar    1  UNL1        0.0280
     12 C          -3.2809   -0.8562   -2.3804 C.ar    1  UNL1       -0.0418
     13 C          -2.4376   -0.1566   -1.5254 C.ar    1  UNL1       -0.0371
     14 C          -2.9036    0.2582   -0.2909 C.ar    1  UNL1        0.0581
     15 N           1.6631    0.3733    0.1911 N.am    1  UNL1       -0.2781
     16 C           2.6349   -0.6501    0.5039 C.ar    1  UNL1        0.0836
     17 S           2.1735   -1.9995    1.5289 S.2     1  UNL1       -0.0801
     18 C           3.7638   -2.8062    1.5169 C.ar    1  UNL1       -0.0078
     19 C           4.5233   -1.9758    0.7255 C.ar    1  UNL1        0.0374
     20 BR          6.3901   -2.4912    0.4390 Br      1  UNL1       -0.0490
     21 C           3.9083   -0.8715    0.2169 C.ar    1  UNL1        0.0614
     22 C           4.6814    0.0065   -0.7231 C.ar    1  UNL1        0.1648
     23 N           5.9980   -0.1327   -1.0542 N.ar    1  UNL1       -0.1295
     24 N           6.3653    0.7523   -1.9282 N.ar    1  UNL1       -0.1377
     25 C           5.3253    1.5158   -2.2200 C.ar    1  UNL1        0.1175
     26 N           4.2849    1.0341   -1.4586 N.ar    1  UNL1       -0.3276
     27 H          -0.6517    1.4546   -0.8718 H       1  UNL1        0.0564
     28 H          -0.3998    2.2010    0.7376 H       1  UNL1        0.0564
     29 H          -3.2428   -0.5374    2.5535 H       1  UNL1        0.0362
     30 H          -3.9823    0.8989    3.4108 H       1  UNL1        0.0362
     31 H          -5.5198   -0.2452    1.7801 H       1  UNL1        0.0333
     32 H          -5.1521    1.4693    1.3332 H       1  UNL1        0.0333
     33 H          -5.2445   -1.6515   -2.5941 H       1  UNL1        0.0829
     34 H          -2.9559   -1.1928   -3.3424 H       1  UNL1        0.0633
     35 H          -1.4510    0.0093   -1.9012 H       1  UNL1        0.0637
     36 H           1.8969    1.2539   -0.2380 H       1  UNL1        0.1554
     37 H           4.0244   -3.7490    2.0372 H       1  UNL1        0.0705
     38 H           5.3115    2.3334   -2.9071 H       1  UNL1        0.1046
     39 H           3.3686    1.4608   -1.5312 H       1  UNL1        0.1683
@<TRIPOS>BOND
     1     1     2    2
     2     2     3    1
     3     3     4    1
     4     4     5   am
     5     5     6    2
     6     5     7    1
     7     7     8    1
     8     8     9    1
     9     9    10   ar
    10    10    11   ar
    11    11    12   ar
    12    12    13   ar
    13    13    14   ar
    14     2    15   am
    15    15    16    1
    16    16    17   ar
    17    17    18   ar
    18    18    19   ar
    19    19    20    1
    20    19    21   ar
    21    21    22    1
    22    22    23   ar
    23    23    24   ar
    24    24    25   ar
    25    25    26   ar
    26    14     4    1
    27    21    16   ar
    28    26    22   ar
    29    14     9   ar
    30     3    27    1
    31     3    28    1
    32     7    29    1
    33     7    30    1
    34     8    31    1
    35     8    32    1
    36    11    33    1
    37    12    34    1
    38    13    35    1
    39    15    36    1
    40    18    37    1
    41    25    38    1
    42    26    39    1
