
     RDKit          3D

 39 42  0  0  0  0  0  0  0  0999 V2000
   -0.0604   -0.8530    1.0951 O   0  0  0  0  0  0  0  0  0  0  0  0
    0.2839    0.2004    0.5266 C   0  0  0  0  0  0  0  0  0  0  0  0
   -0.6995    1.2397    0.2074 C   0  0  0  0  0  0  0  0  0  0  0  0
   -2.0274    0.9379    0.5921 N   0  0  0  0  0  0  0  0  0  0  0  0
   -2.5213    1.3249    1.8959 C   0  0  0  0  0  0  0  0  0  0  0  0
   -1.9646    2.2981    2.4262 O   0  0  0  0  0  0  0  0  0  0  0  0
   -3.6222    0.5139    2.4274 C   0  0  0  0  0  0  0  0  0  0  0  0
   -4.7215    0.4477    1.4105 C   0  0  0  0  0  0  0  0  0  0  0  0
   -4.2021   -0.0113    0.1111 C   0  0  0  0  0  0  0  0  0  0  0  0
   -4.9999   -0.7032   -0.7601 N   0  0  0  0  0  0  0  0  0  0  0  0
   -4.5563   -1.1009   -1.9406 C   0  0  0  0  0  0  0  0  0  0  0  0
   -3.2809   -0.8562   -2.3804 C   0  0  0  0  0  0  0  0  0  0  0  0
   -2.4376   -0.1566   -1.5254 C   0  0  0  0  0  0  0  0  0  0  0  0
   -2.9036    0.2582   -0.2909 C   0  0  0  0  0  0  0  0  0  0  0  0
    1.6631    0.3733    0.1911 N   0  0  0  0  0  0  0  0  0  0  0  0
    2.6349   -0.6501    0.5039 C   0  0  0  0  0  0  0  0  0  0  0  0
    2.1735   -1.9995    1.5289 S   0  0  0  0  0  0  0  0  0  0  0  0
    3.7638   -2.8062    1.5169 C   0  0  0  0  0  0  0  0  0  0  0  0
    4.5233   -1.9758    0.7255 C   0  0  0  0  0  0  0  0  0  0  0  0
    6.3901   -2.4912    0.4390 Br  0  0  0  0  0  0  0  0  0  0  0  0
    3.9083   -0.8715    0.2169 C   0  0  0  0  0  0  0  0  0  0  0  0
    4.6814    0.0065   -0.7231 C   0  0  0  0  0  0  0  0  0  0  0  0
    5.9980   -0.1327   -1.0542 N   0  0  0  0  0  0  0  0  0  0  0  0
    6.3653    0.7523   -1.9282 N   0  0  0  0  0  0  0  0  0  0  0  0
    5.3253    1.5158   -2.2200 C   0  0  0  0  0  0  0  0  0  0  0  0
    4.2849    1.0341   -1.4586 N   0  0  0  0  0  0  0  0  0  0  0  0
   -0.6517    1.4546   -0.8718 H   0  0  0  0  0  0  0  0  0  0  0  0
   -0.3998    2.2010    0.7376 H   0  0  0  0  0  0  0  0  0  0  0  0
   -3.2428   -0.5374    2.5535 H   0  0  0  0  0  0  0  0  0  0  0  0
   -3.9823    0.8989    3.4108 H   0  0  0  0  0  0  0  0  0  0  0  0
   -5.5198   -0.2452    1.7801 H   0  0  0  0  0  0  0  0  0  0  0  0
   -5.1521    1.4693    1.3332 H   0  0  0  0  0  0  0  0  0  0  0  0
   -5.2445   -1.6515   -2.5941 H   0  0  0  0  0  0  0  0  0  0  0  0
   -2.9559   -1.1928   -3.3424 H   0  0  0  0  0  0  0  0  0  0  0  0
   -1.4510    0.0093   -1.9012 H   0  0  0  0  0  0  0  0  0  0  0  0
    1.8969    1.2539   -0.2380 H   0  0  0  0  0  0  0  0  0  0  0  0
    4.0244   -3.7490    2.0372 H   0  0  0  0  0  0  0  0  0  0  0  0
    5.3115    2.3334   -2.9071 H   0  0  0  0  0  0  0  0  0  0  0  0
    3.3686    1.4608   -1.5312 H   0  0  0  0  0  0  0  0  0  0  0  0
  1  2  2  0
  2  3  1  0
  3  4  1  0
  4  5  1  0
  5  6  2  0
  5  7  1  0
  7  8  1  0
  8  9  1  0
  9 10  2  0
 10 11  1  0
 11 12  2  0
 12 13  1  0
 13 14  2  0
  2 15  1  0
 15 16  1  0
 16 17  1  0
 17 18  1  0
 18 19  2  0
 19 20  1  0
 19 21  1  0
 21 22  1  0
 22 23  2  0
 23 24  1  0
 24 25  2  0
 25 26  1  0
 14  4  1  0
 21 16  2  0
 26 22  1  0
 14  9  1  0
  3 27  1  0
  3 28  1  0
  7 29  1  0
  7 30  1  0
  8 31  1  0
  8 32  1  0
 11 33  1  0
 12 34  1  0
 13 35  1  0
 15 36  1  0
 18 37  1  0
 25 38  1  0
 26 39  1  0
M  END
$$$$
