@<TRIPOS>MOLECULE
*****
 42 46 0 0 0
SMALL
GASTEIGER

@<TRIPOS>ATOM
      1 C          -1.0623    3.1935   -1.3825 C.3     1  UNL1        0.0322
      2 N          -0.3551    2.9092   -0.1474 N.ar    1  UNL1       -0.2515
      3 N           0.0699    3.8852    0.6457 N.ar    1  UNL1       -0.1584
      4 C           0.6920    3.3753    1.7207 C.ar    1  UNL1        0.1383
      5 N           0.6318    2.0425    1.5555 N.ar    1  UNL1       -0.2187
      6 C          -0.0066    1.7691    0.4170 C.ar    1  UNL1        0.1383
      7 C          -0.2640    0.4234   -0.0952 C.3     1  UNL1        0.0854
      8 C          -1.5548   -0.1304    0.3414 C.ar    1  UNL1        0.0835
      9 N          -2.5299    0.6474    0.8584 N.ar    1  UNL1       -0.1745
     10 N          -3.7025    0.1445    1.1990 N.ar    1  UNL1       -0.2424
     11 C          -3.9821   -1.1616    1.0482 C.ar    1  UNL1        0.2726
     12 O          -5.0829   -1.6698    1.3599 O.2     1  UNL1       -0.2658
     13 C          -3.0198   -2.0208    0.5211 C.ar    1  UNL1        0.0541
     14 C          -3.2829   -3.3582    0.3526 C.ar    1  UNL1       -0.0133
     15 C          -2.2962   -4.1643   -0.1772 C.ar    1  UNL1        0.1259
     16 F          -2.5533   -5.4930   -0.3475 F       1  UNL1       -0.2054
     17 C          -1.0697   -3.6266   -0.5272 C.ar    1  UNL1       -0.0049
     18 C          -0.7982   -2.3026   -0.3639 C.ar    1  UNL1        0.0401
     19 C          -1.8004   -1.4691    0.1738 C.ar    1  UNL1        0.0321
     20 N           0.4648   -1.7203   -0.6731 N.pl3   1  UNL1       -0.3354
     21 C           0.8126   -0.5648    0.1337 C.3     1  UNL1        0.0611
     22 C           2.1711   -0.0818   -0.1183 C.ar    1  UNL1       -0.0261
     23 C           2.6775    0.0617   -1.3852 C.ar    1  UNL1       -0.0541
     24 C           3.9690    0.5222   -1.6148 C.ar    1  UNL1       -0.0261
     25 C           4.7443    0.8375   -0.5221 C.ar    1  UNL1        0.1234
     26 F           6.0204    1.2945   -0.6905 F       1  UNL1       -0.2055
     27 C           4.2703    0.7062    0.7564 C.ar    1  UNL1       -0.0261
     28 C           2.9819    0.2450    0.9331 C.ar    1  UNL1       -0.0541
     29 H          -2.0519    3.6300   -1.0669 H       1  UNL1        0.0473
     30 H          -1.1642    2.3244   -2.0288 H       1  UNL1        0.0473
     31 H          -0.5681    3.9970   -1.9690 H       1  UNL1        0.0473
     32 H           1.1557    3.8761    2.5609 H       1  UNL1        0.1066
     33 H          -0.3709    0.5370   -1.2247 H       1  UNL1        0.0466
     34 H          -4.4441    0.7874    1.6023 H       1  UNL1        0.1921
     35 H          -4.2549   -3.7344    0.6410 H       1  UNL1        0.0654
     36 H          -0.2699   -4.2544   -0.9522 H       1  UNL1        0.0665
     37 H           1.0279   -2.1454   -1.4228 H       1  UNL1        0.1467
     38 H           0.7740   -0.8902    1.1942 H       1  UNL1        0.0558
     39 H           2.1046   -0.1741   -2.2804 H       1  UNL1        0.0622
     40 H           4.3682    0.6353   -2.6154 H       1  UNL1        0.0646
     41 H           4.8944    0.9592    1.6117 H       1  UNL1        0.0646
     42 H           2.6540    0.1584    1.9785 H       1  UNL1        0.0622
@<TRIPOS>BOND
     1     1     2    1
     2     2     3   ar
     3     3     4   ar
     4     4     5   ar
     5     5     6   ar
     6     6     7    1
     7     7     8    1
     8     8     9   ar
     9     9    10   ar
    10    10    11   ar
    11    11    12    2
    12    11    13   ar
    13    13    14   ar
    14    14    15   ar
    15    15    16    1
    16    15    17   ar
    17    17    18   ar
    18    18    19   ar
    19    18    20    1
    20    20    21    1
    21    21    22    1
    22    22    23   ar
    23    23    24   ar
    24    24    25   ar
    25    25    26    1
    26    25    27   ar
    27    27    28   ar
    28     6     2   ar
    29    21     7    1
    30    28    22   ar
    31    19     8   ar
    32    19    13   ar
    33     1    29    1
    34     1    30    1
    35     1    31    1
    36     4    32    1
    37     7    33    1
    38    10    34    1
    39    14    35    1
    40    17    36    1
    41    20    37    1
    42    21    38    1
    43    23    39    1
    44    24    40    1
    45    27    41    1
    46    28    42    1
