
     RDKit          3D

 32 34  0  0  0  0  0  0  0  0999 V2000
   -2.0627    2.8742    1.7262 O   0  0  0  0  0  0  0  0  0  0  0  0
   -1.6920    1.9102    1.0106 C   0  0  0  0  0  0  0  0  0  0  0  0
   -0.3960    1.5220    0.9326 N   0  0  0  0  0  0  0  0  0  0  0  0
    0.0179    0.4970    0.1753 C   0  0  0  0  0  0  0  0  0  0  0  0
    1.4085    0.0597    0.0748 C   0  0  0  0  0  0  0  0  0  0  0  0
    1.7303   -1.0171   -0.7416 C   0  0  0  0  0  0  0  0  0  0  0  0
    3.0302   -1.4632   -0.8659 C   0  0  0  0  0  0  0  0  0  0  0  0
    4.0636   -0.8562   -0.1830 C   0  0  0  0  0  0  0  0  0  0  0  0
    5.4649   -1.3528   -0.3298 C   0  0  0  0  0  0  0  0  0  0  0  0
    5.8003   -2.1920    0.6906 F   0  0  0  0  0  0  0  0  0  0  0  0
    5.5352   -2.0423   -1.5209 F   0  0  0  0  0  0  0  0  0  0  0  0
    6.3625   -0.2890   -0.3788 F   0  0  0  0  0  0  0  0  0  0  0  0
    3.7560    0.2120    0.6290 C   0  0  0  0  0  0  0  0  0  0  0  0
    2.4340    0.6647    0.7546 C   0  0  0  0  0  0  0  0  0  0  0  0
   -0.9513   -0.1556   -0.5330 N   0  0  0  0  0  0  0  0  0  0  0  0
   -2.2476    0.1852   -0.4937 C   0  0  0  0  0  0  0  0  0  0  0  0
   -2.6579    1.2419    0.2901 C   0  0  0  0  0  0  0  0  0  0  0  0
   -4.0891    1.6592    0.3669 C   0  0  0  0  0  0  0  0  0  0  0  0
   -5.0538    0.1324    0.6897 S   0  0  0  0  0  0  0  0  0  0  0  0
   -4.3451   -1.1492   -0.3925 C   0  0  0  0  0  0  0  0  0  0  0  0
   -3.2722   -0.5480   -1.2777 C   0  0  0  0  0  0  0  0  0  0  0  0
    0.3079    2.0440    1.4861 H   0  0  0  0  0  0  0  0  0  0  0  0
    0.9328   -1.5161   -1.2935 H   0  0  0  0  0  0  0  0  0  0  0  0
    3.3020   -2.3028   -1.4986 H   0  0  0  0  0  0  0  0  0  0  0  0
    4.5637    0.6908    1.1664 H   0  0  0  0  0  0  0  0  0  0  0  0
    2.2345    1.4975    1.3950 H   0  0  0  0  0  0  0  0  0  0  0  0
   -4.1933    2.3392    1.2235 H   0  0  0  0  0  0  0  0  0  0  0  0
   -4.4643    2.0669   -0.5848 H   0  0  0  0  0  0  0  0  0  0  0  0
   -3.8775   -1.9703    0.1933 H   0  0  0  0  0  0  0  0  0  0  0  0
   -5.1517   -1.4949   -1.0606 H   0  0  0  0  0  0  0  0  0  0  0  0
   -2.7698   -1.4103   -1.7796 H   0  0  0  0  0  0  0  0  0  0  0  0
   -3.7199    0.1628   -2.0064 H   0  0  0  0  0  0  0  0  0  0  0  0
  1  2  2  0
  2  3  1  0
  3  4  1  0
  4  5  1  0
  5  6  2  0
  6  7  1  0
  7  8  2  0
  8  9  1  0
  9 10  1  0
  9 11  1  0
  9 12  1  0
  8 13  1  0
 13 14  2  0
  4 15  2  0
 15 16  1  0
 16 17  2  0
 17 18  1  0
 18 19  1  0
 19 20  1  0
 20 21  1  0
 17  2  1  0
 14  5  1  0
 21 16  1  0
  3 22  1  0
  6 23  1  0
  7 24  1  0
 13 25  1  0
 14 26  1  0
 18 27  1  0
 18 28  1  0
 20 29  1  0
 20 30  1  0
 21 31  1  0
 21 32  1  0
M  END
$$$$
