@<TRIPOS>MOLECULE
*****
 32 34 0 0 0
SMALL
GASTEIGER

@<TRIPOS>ATOM
      1 O          -2.0627    2.8742    1.7262 O.2     1  UNL1       -0.2675
      2 C          -1.6920    1.9102    1.0106 C.ar    1  UNL1        0.2559
      3 N          -0.3960    1.5220    0.9326 N.ar    1  UNL1       -0.3067
      4 C           0.0179    0.4970    0.1753 C.ar    1  UNL1        0.1411
      5 C           1.4085    0.0597    0.0748 C.ar    1  UNL1        0.0174
      6 C           1.7303   -1.0171   -0.7416 C.ar    1  UNL1       -0.0506
      7 C           3.0302   -1.4632   -0.8659 C.ar    1  UNL1       -0.0495
      8 C           4.0636   -0.8562   -0.1830 C.ar    1  UNL1        0.0548
      9 C           5.4649   -1.3528   -0.3298 C.3     1  UNL1        0.4174
     10 F           5.8003   -2.1920    0.6906 F       1  UNL1       -0.1659
     11 F           5.5352   -2.0423   -1.5209 F       1  UNL1       -0.1659
     12 F           6.3625   -0.2890   -0.3788 F       1  UNL1       -0.1659
     13 C           3.7560    0.2120    0.6290 C.ar    1  UNL1       -0.0495
     14 C           2.4340    0.6647    0.7546 C.ar    1  UNL1       -0.0506
     15 N          -0.9513   -0.1556   -0.5330 N.ar    1  UNL1       -0.2335
     16 C          -2.2476    0.1852   -0.4937 C.ar    1  UNL1        0.0535
     17 C          -2.6579    1.2419    0.2901 C.ar    1  UNL1        0.0480
     18 C          -4.0891    1.6592    0.3669 C.3     1  UNL1        0.0257
     19 S          -5.0538    0.1324    0.6897 S.3     1  UNL1       -0.1555
     20 C          -4.3451   -1.1492   -0.3925 C.3     1  UNL1       -0.0006
     21 C          -3.2722   -0.5480   -1.2777 C.3     1  UNL1       -0.0008
     22 H           0.3079    2.0440    1.4861 H       1  UNL1        0.1704
     23 H           0.9328   -1.5161   -1.2935 H       1  UNL1        0.0625
     24 H           3.3020   -2.3028   -1.4986 H       1  UNL1        0.0623
     25 H           4.5637    0.6908    1.1664 H       1  UNL1        0.0623
     26 H           2.2345    1.4975    1.3950 H       1  UNL1        0.0625
     27 H          -4.1933    2.3392    1.2235 H       1  UNL1        0.0427
     28 H          -4.4643    2.0669   -0.5848 H       1  UNL1        0.0427
     29 H          -3.8775   -1.9703    0.1933 H       1  UNL1        0.0380
     30 H          -5.1517   -1.4949   -1.0606 H       1  UNL1        0.0380
     31 H          -2.7698   -1.4103   -1.7796 H       1  UNL1        0.0336
     32 H          -3.7199    0.1628   -2.0064 H       1  UNL1        0.0336
@<TRIPOS>BOND
     1     1     2    2
     2     2     3   ar
     3     3     4   ar
     4     4     5    1
     5     5     6   ar
     6     6     7   ar
     7     7     8   ar
     8     8     9    1
     9     9    10    1
    10     9    11    1
    11     9    12    1
    12     8    13   ar
    13    13    14   ar
    14     4    15   ar
    15    15    16   ar
    16    16    17   ar
    17    17    18    1
    18    18    19    1
    19    19    20    1
    20    20    21    1
    21    17     2   ar
    22    14     5   ar
    23    21    16    1
    24     3    22    1
    25     6    23    1
    26     7    24    1
    27    13    25    1
    28    14    26    1
    29    18    27    1
    30    18    28    1
    31    20    29    1
    32    20    30    1
    33    21    31    1
    34    21    32    1
