
     RDKit          3D

 49 51  0  0  0  0  0  0  0  0999 V2000
    6.9492    2.5006   -0.7935 C   0  0  0  0  0  0  0  0  0  0  0  0
    6.2292    1.2897   -0.7275 O   0  0  0  0  0  0  0  0  0  0  0  0
    5.0854    1.2437    0.0501 C   0  0  0  0  0  0  0  0  0  0  0  0
    4.6749    2.3496    0.7315 C   0  0  0  0  0  0  0  0  0  0  0  0
    3.5360    2.2816    1.4976 C   0  0  0  0  0  0  0  0  0  0  0  0
    2.8129    1.1155    1.5813 C   0  0  0  0  0  0  0  0  0  0  0  0
    3.2054   -0.0111    0.9048 C   0  0  0  0  0  0  0  0  0  0  0  0
    2.4506   -1.2410    0.9903 C   0  0  0  0  0  0  0  0  0  0  0  0
    1.3906   -1.3967    0.0117 N   0  0  0  0  0  0  0  0  0  0  0  0
    1.7476   -2.0603   -1.2243 C   0  0  0  0  0  0  0  0  0  0  0  0
    1.6066   -3.5517   -1.1526 C   0  0  0  0  0  0  0  0  0  0  0  0
    0.3148   -3.9102   -0.8668 O   0  0  0  0  0  0  0  0  0  0  0  0
    0.0792   -0.9655    0.2117 C   0  0  0  0  0  0  0  0  0  0  0  0
   -0.2362   -0.4248    1.2943 O   0  0  0  0  0  0  0  0  0  0  0  0
   -0.9067   -1.1191   -0.7718 N   0  0  0  0  0  0  0  0  0  0  0  0
   -2.2501   -0.6509   -0.5023 C   0  0  0  0  0  0  0  0  0  0  0  0
   -2.5408    0.6445   -0.8441 C   0  0  0  0  0  0  0  0  0  0  0  0
   -3.7775    1.2216   -0.6438 C   0  0  0  0  0  0  0  0  0  0  0  0
   -4.7372    0.3922   -0.0601 C   0  0  0  0  0  0  0  0  0  0  0  0
   -6.0691    0.9268    0.1850 C   0  0  0  0  0  0  0  0  0  0  0  0
   -6.3139    2.2695    0.4928 C   0  0  0  0  0  0  0  0  0  0  0  0
   -7.6460    2.3669    0.6455 N   0  0  0  0  0  0  0  0  0  0  0  0
   -8.2213    1.1831    0.4525 N   0  0  0  0  0  0  0  0  0  0  0  0
   -7.2747    0.2624    0.1642 C   0  0  0  0  0  0  0  0  0  0  0  0
   -4.4790   -0.9046    0.2925 C   0  0  0  0  0  0  0  0  0  0  0  0
   -3.2126   -1.4370    0.0678 C   0  0  0  0  0  0  0  0  0  0  0  0
    4.3432    0.0561    0.1394 C   0  0  0  0  0  0  0  0  0  0  0  0
    6.2938    3.3454   -1.0915 H   0  0  0  0  0  0  0  0  0  0  0  0
    7.3748    2.6715    0.2255 H   0  0  0  0  0  0  0  0  0  0  0  0
    7.7404    2.4091   -1.5623 H   0  0  0  0  0  0  0  0  0  0  0  0
    5.2537    3.2904    0.6671 H   0  0  0  0  0  0  0  0  0  0  0  0
    3.2143    3.1711    2.0397 H   0  0  0  0  0  0  0  0  0  0  0  0
    1.9267    1.1507    2.2093 H   0  0  0  0  0  0  0  0  0  0  0  0
    1.9961   -1.3013    2.0178 H   0  0  0  0  0  0  0  0  0  0  0  0
    3.1014   -2.1332    0.9129 H   0  0  0  0  0  0  0  0  0  0  0  0
    2.8388   -1.8275   -1.4107 H   0  0  0  0  0  0  0  0  0  0  0  0
    1.2281   -1.6358   -2.1078 H   0  0  0  0  0  0  0  0  0  0  0  0
    1.9714   -3.9568   -2.1269 H   0  0  0  0  0  0  0  0  0  0  0  0
    2.2824   -3.9451   -0.3594 H   0  0  0  0  0  0  0  0  0  0  0  0
    0.1990   -4.0863    0.1145 H   0  0  0  0  0  0  0  0  0  0  0  0
   -0.7267   -1.5540   -1.7027 H   0  0  0  0  0  0  0  0  0  0  0  0
   -1.7656    1.2724   -1.3015 H   0  0  0  0  0  0  0  0  0  0  0  0
   -4.0091    2.2423   -0.9122 H   0  0  0  0  0  0  0  0  0  0  0  0
   -5.5629    3.0353    0.5803 H   0  0  0  0  0  0  0  0  0  0  0  0
   -9.2532    0.9920    0.5144 H   0  0  0  0  0  0  0  0  0  0  0  0
   -7.4229   -0.7914   -0.0436 H   0  0  0  0  0  0  0  0  0  0  0  0
   -5.2202   -1.5571    0.7476 H   0  0  0  0  0  0  0  0  0  0  0  0
   -2.9603   -2.4505    0.3271 H   0  0  0  0  0  0  0  0  0  0  0  0
    4.7394   -0.7719   -0.4299 H   0  0  0  0  0  0  0  0  0  0  0  0
  1  2  1  0
  2  3  1  0
  3  4  2  0
  4  5  1  0
  5  6  2  0
  6  7  1  0
  7  8  1  0
  8  9  1  0
  9 10  1  0
 10 11  1  0
 11 12  1  0
  9 13  1  0
 13 14  2  0
 13 15  1  0
 15 16  1  0
 16 17  2  0
 17 18  1  0
 18 19  2  0
 19 20  1  0
 20 21  1  0
 21 22  2  0
 22 23  1  0
 23 24  1  0
 19 25  1  0
 25 26  2  0
  7 27  2  0
 27  3  1  0
 26 16  1  0
 24 20  2  0
  1 28  1  0
  1 29  1  0
  1 30  1  0
  4 31  1  0
  5 32  1  0
  6 33  1  0
  8 34  1  0
  8 35  1  0
 10 36  1  0
 10 37  1  0
 11 38  1  0
 11 39  1  0
 12 40  1  0
 15 41  1  0
 17 42  1  0
 18 43  1  0
 21 44  1  0
 23 45  1  0
 24 46  1  0
 25 47  1  0
 26 48  1  0
 27 49  1  0
M  END
$$$$
