@<TRIPOS>MOLECULE
*****
 49 51 0 0 0
SMALL
GASTEIGER

@<TRIPOS>ATOM
      1 C           6.9492    2.5006   -0.7935 C.3     1  UNL1        0.0788
      2 O           6.2292    1.2897   -0.7275 O.3     1  UNL1       -0.4951
      3 C           5.0854    1.2437    0.0501 C.ar    1  UNL1        0.1204
      4 C           4.6749    2.3496    0.7315 C.ar    1  UNL1       -0.0199
      5 C           3.5360    2.2816    1.4976 C.ar    1  UNL1       -0.0580
      6 C           2.8129    1.1155    1.5813 C.ar    1  UNL1       -0.0568
      7 C           3.2054   -0.0111    0.9048 C.ar    1  UNL1       -0.0266
      8 C           2.4506   -1.2410    0.9903 C.3     1  UNL1        0.0414
      9 N           1.3906   -1.3967    0.0117 N.am    1  UNL1       -0.2789
     10 C           1.7476   -2.0603   -1.2243 C.3     1  UNL1        0.0397
     11 C           1.6066   -3.5517   -1.1526 C.3     1  UNL1        0.0600
     12 O           0.3148   -3.9102   -0.8668 O.3     1  UNL1       -0.3935
     13 C           0.0792   -0.9655    0.2117 C.2     1  UNL1        0.3068
     14 O          -0.2362   -0.4248    1.2943 O.2     1  UNL1       -0.2523
     15 N          -0.9067   -1.1191   -0.7718 N.am    1  UNL1       -0.2693
     16 C          -2.2501   -0.6509   -0.5023 C.ar    1  UNL1        0.0348
     17 C          -2.5408    0.6445   -0.8441 C.ar    1  UNL1       -0.0399
     18 C          -3.7775    1.2216   -0.6438 C.ar    1  UNL1       -0.0522
     19 C          -4.7372    0.3922   -0.0601 C.ar    1  UNL1       -0.0148
     20 C          -6.0691    0.9268    0.1850 C.ar    1  UNL1        0.0193
     21 C          -6.3139    2.2695    0.4928 C.ar    1  UNL1        0.0568
     22 N          -7.6460    2.3669    0.6455 N.ar    1  UNL1       -0.1817
     23 N          -8.2213    1.1831    0.4525 N.ar    1  UNL1       -0.2841
     24 C          -7.2747    0.2624    0.1642 C.ar    1  UNL1        0.0300
     25 C          -4.4790   -0.9046    0.2925 C.ar    1  UNL1       -0.0522
     26 C          -3.2126   -1.4370    0.0678 C.ar    1  UNL1       -0.0399
     27 C           4.3432    0.0561    0.1394 C.ar    1  UNL1       -0.0153
     28 H           6.2938    3.3454   -1.0915 H       1  UNL1        0.0660
     29 H           7.3748    2.6715    0.2255 H       1  UNL1        0.0660
     30 H           7.7404    2.4091   -1.5623 H       1  UNL1        0.0660
     31 H           5.2537    3.2904    0.6671 H       1  UNL1        0.0654
     32 H           3.2143    3.1711    2.0397 H       1  UNL1        0.0619
     33 H           1.9267    1.1507    2.2093 H       1  UNL1        0.0621
     34 H           1.9961   -1.3013    2.0178 H       1  UNL1        0.0514
     35 H           3.1014   -2.1332    0.9129 H       1  UNL1        0.0514
     36 H           2.8388   -1.8275   -1.4107 H       1  UNL1        0.0488
     37 H           1.2281   -1.6358   -2.1078 H       1  UNL1        0.0488
     38 H           1.9714   -3.9568   -2.1269 H       1  UNL1        0.0573
     39 H           2.2824   -3.9451   -0.3594 H       1  UNL1        0.0573
     40 H           0.1990   -4.0863    0.1145 H       1  UNL1        0.2095
     41 H          -0.7267   -1.5540   -1.7027 H       1  UNL1        0.1564
     42 H          -1.7656    1.2724   -1.3015 H       1  UNL1        0.0636
     43 H          -4.0091    2.2423   -0.9122 H       1  UNL1        0.0624
     44 H          -5.5629    3.0353    0.5803 H       1  UNL1        0.0854
     45 H          -9.2532    0.9920    0.5144 H       1  UNL1        0.1882
     46 H          -7.4229   -0.7914   -0.0436 H       1  UNL1        0.0830
     47 H          -5.2202   -1.5571    0.7476 H       1  UNL1        0.0624
     48 H          -2.9603   -2.4505    0.3271 H       1  UNL1        0.0636
     49 H           4.7394   -0.7719   -0.4299 H       1  UNL1        0.0657
@<TRIPOS>BOND
     1     1     2    1
     2     2     3    1
     3     3     4   ar
     4     4     5   ar
     5     5     6   ar
     6     6     7   ar
     7     7     8    1
     8     8     9    1
     9     9    10    1
    10    10    11    1
    11    11    12    1
    12     9    13   am
    13    13    14    2
    14    13    15   am
    15    15    16    1
    16    16    17   ar
    17    17    18   ar
    18    18    19   ar
    19    19    20    1
    20    20    21   ar
    21    21    22   ar
    22    22    23   ar
    23    23    24   ar
    24    19    25   ar
    25    25    26   ar
    26     7    27   ar
    27    27     3   ar
    28    26    16   ar
    29    24    20   ar
    30     1    28    1
    31     1    29    1
    32     1    30    1
    33     4    31    1
    34     5    32    1
    35     6    33    1
    36     8    34    1
    37     8    35    1
    38    10    36    1
    39    10    37    1
    40    11    38    1
    41    11    39    1
    42    12    40    1
    43    15    41    1
    44    17    42    1
    45    18    43    1
    46    21    44    1
    47    23    45    1
    48    24    46    1
    49    25    47    1
    50    26    48    1
    51    27    49    1
