
     RDKit          3D

 65 69  0  0  0  0  0  0  0  0999 V2000
    3.0287   -2.1201   -2.4087 C   0  0  0  0  0  0  0  0  0  0  0  0
    1.6536   -2.2072   -1.8707 C   0  0  0  0  0  0  0  0  0  0  0  0
    0.7784   -2.7011   -3.0467 C   0  0  0  0  0  0  0  0  0  0  0  0
    1.1319   -0.8651   -1.5378 C   0  0  0  0  0  0  0  0  0  0  0  0
    1.5390    0.2738   -1.9191 O   0  0  0  0  0  0  0  0  0  0  0  0
    0.0074   -1.0580   -0.6505 N   0  0  0  0  0  0  0  0  0  0  0  0
   -0.9600   -0.0596   -0.3301 C   0  0  1  0  0  0  0  0  0  0  0  0
   -2.3577   -0.3552   -0.8593 C   0  0  0  0  0  0  0  0  0  0  0  0
   -3.1657   -1.2157    0.0595 C   0  0  0  0  0  0  0  0  0  0  0  0
   -3.3142   -0.5532    1.4063 C   0  0  0  0  0  0  0  0  0  0  0  0
   -1.9039   -0.4529    1.9880 C   0  0  0  0  0  0  0  0  0  0  0  0
   -1.0440    0.3678    1.0935 C   0  0  0  0  0  0  0  0  0  0  0  0
   -1.7152    1.7595    1.0625 C   0  0  0  0  0  0  0  0  0  0  0  0
   -3.0652    1.6642    0.4253 C   0  0  2  0  0  0  0  0  0  0  0  0
   -3.6123    3.0185    0.2333 C   0  0  0  0  0  0  0  0  0  0  0  0
   -2.9338    4.0356    0.6114 N   0  0  0  0  0  0  0  0  0  0  0  0
   -4.8799    3.2374   -0.3616 N   0  0  0  0  0  0  0  0  0  0  0  0
   -5.4380    4.4650   -0.4571 O   0  0  0  0  0  0  0  0  0  0  0  0
   -3.9493    0.8146    1.3172 C   0  0  0  0  0  0  0  0  0  0  0  0
   -3.0631    0.9932   -0.9300 C   0  0  0  0  0  0  0  0  0  0  0  0
    0.0635   -2.4280   -0.1801 C   0  0  0  0  0  0  0  0  0  0  0  0
    1.4068   -2.9889   -0.6642 C   0  0  0  0  0  0  0  0  0  0  0  0
    2.3866   -3.0575    0.4382 C   0  0  0  0  0  0  0  0  0  0  0  0
    2.7758   -1.9780    1.1253 O   0  0  0  0  0  0  0  0  0  0  0  0
    3.3813   -0.7921    1.0860 C   0  0  0  0  0  0  0  0  0  0  0  0
    3.4921   -0.0204    2.2711 C   0  0  0  0  0  0  0  0  0  0  0  0
    4.1079    1.1932    2.2620 C   0  0  0  0  0  0  0  0  0  0  0  0
    4.6479    1.7266    1.1159 C   0  0  0  0  0  0  0  0  0  0  0  0
    5.3256    3.0436    1.0668 C   0  0  0  0  0  0  0  0  0  0  0  0
    6.6762    2.8532    1.0974 F   0  0  0  0  0  0  0  0  0  0  0  0
    5.0199    3.7102   -0.1174 F   0  0  0  0  0  0  0  0  0  0  0  0
    4.9604    3.8229    2.1640 F   0  0  0  0  0  0  0  0  0  0  0  0
    4.5357    0.9732   -0.0239 C   0  0  0  0  0  0  0  0  0  0  0  0
    3.9279   -0.2153    0.0048 N   0  0  0  0  0  0  0  0  0  0  0  0
    3.2775   -1.1460   -2.8776 H   0  0  0  0  0  0  0  0  0  0  0  0
    3.8053   -2.4147   -1.6822 H   0  0  0  0  0  0  0  0  0  0  0  0
    3.1321   -2.8648   -3.2522 H   0  0  0  0  0  0  0  0  0  0  0  0
    1.1547   -3.6596   -3.4371 H   0  0  0  0  0  0  0  0  0  0  0  0
   -0.2828   -2.7225   -2.7490 H   0  0  0  0  0  0  0  0  0  0  0  0
    0.8755   -1.9537   -3.8611 H   0  0  0  0  0  0  0  0  0  0  0  0
   -0.6783    0.8880   -0.8954 H   0  0  0  0  0  0  0  0  0  0  0  0
   -2.3157   -0.8132   -1.8461 H   0  0  0  0  0  0  0  0  0  0  0  0
   -2.7966   -2.2234    0.2179 H   0  0  0  0  0  0  0  0  0  0  0  0
   -4.1806   -1.2933   -0.3734 H   0  0  0  0  0  0  0  0  0  0  0  0
   -3.9292   -1.1668    2.0835 H   0  0  0  0  0  0  0  0  0  0  0  0
   -1.5581   -1.4459    2.2459 H   0  0  0  0  0  0  0  0  0  0  0  0
   -2.0341    0.1156    2.9360 H   0  0  0  0  0  0  0  0  0  0  0  0
   -0.0364    0.4773    1.5248 H   0  0  0  0  0  0  0  0  0  0  0  0
   -1.8506    2.1167    2.0933 H   0  0  0  0  0  0  0  0  0  0  0  0
   -1.0022    2.3833    0.4668 H   0  0  0  0  0  0  0  0  0  0  0  0
   -2.0113    4.0497    1.0545 H   0  0  0  0  0  0  0  0  0  0  0  0
   -5.4546    2.4391   -0.7632 H   0  0  0  0  0  0  0  0  0  0  0  0
   -6.2149    4.4489    0.1853 H   0  0  0  0  0  0  0  0  0  0  0  0
   -4.9595    0.6804    0.8894 H   0  0  0  0  0  0  0  0  0  0  0  0
   -3.9569    1.2415    2.3258 H   0  0  0  0  0  0  0  0  0  0  0  0
   -4.1359    0.7626   -1.1668 H   0  0  0  0  0  0  0  0  0  0  0  0
   -2.5763    1.5940   -1.7111 H   0  0  0  0  0  0  0  0  0  0  0  0
    0.0891   -2.4846    0.9272 H   0  0  0  0  0  0  0  0  0  0  0  0
   -0.7103   -3.0618   -0.6085 H   0  0  0  0  0  0  0  0  0  0  0  0
    1.2313   -4.0720   -0.9839 H   0  0  0  0  0  0  0  0  0  0  0  0
    3.3393   -3.4941   -0.0575 H   0  0  0  0  0  0  0  0  0  0  0  0
    2.1436   -3.9473    1.1291 H   0  0  0  0  0  0  0  0  0  0  0  0
    3.0546   -0.4673    3.1677 H   0  0  0  0  0  0  0  0  0  0  0  0
    4.1726    1.7566    3.1958 H   0  0  0  0  0  0  0  0  0  0  0  0
    4.9645    1.3933   -0.9420 H   0  0  0  0  0  0  0  0  0  0  0  0
  1  2  1  0
  2  3  1  0
  2  4  1  0
  4  5  2  0
  4  6  1  0
  6  7  1  0
  7  8  1  0
  8  9  1  0
  9 10  1  0
 10 11  1  0
 11 12  1  0
 12 13  1  0
 13 14  1  0
 14 15  1  6
 15 16  2  3
 15 17  1  0
 17 18  1  0
 14 19  1  0
 14 20  1  0
  6 21  1  0
 21 22  1  0
 22 23  1  0
 23 24  1  0
 24 25  1  0
 25 26  2  0
 26 27  1  0
 27 28  2  0
 28 29  1  0
 29 30  1  0
 29 31  1  0
 29 32  1  0
 28 33  1  0
 33 34  2  0
 22  2  1  0
 34 25  1  0
 12  7  1  0
 20  8  1  0
 19 10  1  0
  1 35  1  0
  1 36  1  0
  1 37  1  0
  3 38  1  0
  3 39  1  0
  3 40  1  0
  7 41  1  6
  8 42  1  0
  9 43  1  0
  9 44  1  0
 10 45  1  0
 11 46  1  0
 11 47  1  0
 12 48  1  0
 13 49  1  0
 13 50  1  0
 16 51  1  0
 17 52  1  0
 18 53  1  0
 19 54  1  0
 19 55  1  0
 20 56  1  0
 20 57  1  0
 21 58  1  0
 21 59  1  0
 22 60  1  0
 23 61  1  0
 23 62  1  0
 26 63  1  0
 27 64  1  0
 33 65  1  0
M  END
$$$$
