@<TRIPOS>MOLECULE
*****
 65 69 0 0 0
SMALL
GASTEIGER

@<TRIPOS>ATOM
      1 C           3.0287   -2.1201   -2.4087 C.3     1  UNL1       -0.0511
      2 C           1.6536   -2.2072   -1.8707 C.3     1  UNL1        0.0489
      3 C           0.7784   -2.7011   -3.0467 C.3     1  UNL1       -0.0511
      4 C           1.1319   -0.8651   -1.5378 C.2     1  UNL1        0.2219
      5 O           1.5390    0.2738   -1.9191 O.2     1  UNL1       -0.2750
      6 N           0.0074   -1.0580   -0.6505 N.am    1  UNL1       -0.2970
      7 C          -0.9600   -0.0596   -0.3301 C.3     1  UNL1        0.0317
      8 C          -2.3577   -0.3552   -0.8593 C.3     1  UNL1       -0.0208
      9 C          -3.1657   -1.2157    0.0595 C.3     1  UNL1       -0.0456
     10 C          -3.3142   -0.5532    1.4063 C.3     1  UNL1       -0.0394
     11 C          -1.9039   -0.4529    1.9880 C.3     1  UNL1       -0.0456
     12 C          -1.0440    0.3678    1.0935 C.3     1  UNL1       -0.0208
     13 C          -1.7152    1.7595    1.0625 C.3     1  UNL1       -0.0316
     14 C          -3.0652    1.6642    0.4253 C.3     1  UNL1        0.0782
     15 C          -3.6123    3.0185    0.2333 C.2     1  UNL1        0.3216
     16 N          -2.9338    4.0356    0.6114 N.2     1  UNL1       -0.0995
     17 N          -4.8799    3.2374   -0.3616 N.3     1  UNL1       -0.1329
     18 O          -5.4380    4.4650   -0.4571 O.3     1  UNL1       -0.2096
     19 C          -3.9493    0.8146    1.3172 C.3     1  UNL1       -0.0333
     20 C          -3.0631    0.9932   -0.9300 C.3     1  UNL1       -0.0316
     21 C           0.0635   -2.4280   -0.1801 C.3     1  UNL1        0.0219
     22 C           1.4068   -2.9889   -0.6642 C.3     1  UNL1        0.0224
     23 C           2.3866   -3.0575    0.4382 C.3     1  UNL1        0.0964
     24 O           2.7758   -1.9780    1.1253 O.3     1  UNL1       -0.4760
     25 C           3.3813   -0.7921    1.0860 C.ar    1  UNL1        0.2147
     26 C           3.4921   -0.0204    2.2711 C.ar    1  UNL1        0.0005
     27 C           4.1079    1.1932    2.2620 C.ar    1  UNL1       -0.0436
     28 C           4.6479    1.7266    1.1159 C.ar    1  UNL1        0.0731
     29 C           5.3256    3.0436    1.0668 C.3     1  UNL1        0.4188
     30 F           6.6762    2.8532    1.0974 F       1  UNL1       -0.1658
     31 F           5.0199    3.7102   -0.1174 F       1  UNL1       -0.1658
     32 F           4.9604    3.8229    2.1640 F       1  UNL1       -0.1658
     33 C           4.5357    0.9732   -0.0239 C.ar    1  UNL1        0.0430
     34 N           3.9279   -0.2153    0.0048 N.ar    1  UNL1       -0.2208
     35 H           3.2775   -1.1460   -2.8776 H       1  UNL1        0.0240
     36 H           3.8053   -2.4147   -1.6822 H       1  UNL1        0.0240
     37 H           3.1321   -2.8648   -3.2522 H       1  UNL1        0.0240
     38 H           1.1547   -3.6596   -3.4371 H       1  UNL1        0.0240
     39 H          -0.2828   -2.7225   -2.7490 H       1  UNL1        0.0240
     40 H           0.8755   -1.9537   -3.8611 H       1  UNL1        0.0240
     41 H          -0.6783    0.8880   -0.8954 H       1  UNL1        0.0506
     42 H          -2.3157   -0.8132   -1.8461 H       1  UNL1        0.0319
     43 H          -2.7966   -2.2234    0.2179 H       1  UNL1        0.0271
     44 H          -4.1806   -1.2933   -0.3734 H       1  UNL1        0.0271
     45 H          -3.9292   -1.1668    2.0835 H       1  UNL1        0.0301
     46 H          -1.5581   -1.4459    2.2459 H       1  UNL1        0.0271
     47 H          -2.0341    0.1156    2.9360 H       1  UNL1        0.0271
     48 H          -0.0364    0.4773    1.5248 H       1  UNL1        0.0319
     49 H          -1.8506    2.1167    2.0933 H       1  UNL1        0.0279
     50 H          -1.0022    2.3833    0.4668 H       1  UNL1        0.0279
     51 H          -2.0113    4.0497    1.0545 H       1  UNL1        0.3632
     52 H          -5.4546    2.4391   -0.7632 H       1  UNL1        0.3479
     53 H          -6.2149    4.4489    0.1853 H       1  UNL1        0.2712
     54 H          -4.9595    0.6804    0.8894 H       1  UNL1        0.0279
     55 H          -3.9569    1.2415    2.3258 H       1  UNL1        0.0279
     56 H          -4.1359    0.7626   -1.1668 H       1  UNL1        0.0279
     57 H          -2.5763    1.5940   -1.7111 H       1  UNL1        0.0279
     58 H           0.0891   -2.4846    0.9272 H       1  UNL1        0.0469
     59 H          -0.7103   -3.0618   -0.6085 H       1  UNL1        0.0469
     60 H           1.2313   -4.0720   -0.9839 H       1  UNL1        0.0359
     61 H           3.3393   -3.4941   -0.0575 H       1  UNL1        0.0700
     62 H           2.1436   -3.9473    1.1291 H       1  UNL1        0.0700
     63 H           3.0546   -0.4673    3.1677 H       1  UNL1        0.0671
     64 H           4.1726    1.7566    3.1958 H       1  UNL1        0.0625
     65 H           4.9645    1.3933   -0.9420 H       1  UNL1        0.0836
@<TRIPOS>BOND
     1     1     2    1
     2     2     3    1
     3     2     4    1
     4     4     5    2
     5     4     6   am
     6     6     7    1
     7     7     8    1
     8     8     9    1
     9     9    10    1
    10    10    11    1
    11    11    12    1
    12    12    13    1
    13    13    14    1
    14    14    15    1
    15    15    16    2
    16    15    17    1
    17    17    18    1
    18    14    19    1
    19    14    20    1
    20     6    21    1
    21    21    22    1
    22    22    23    1
    23    23    24    1
    24    24    25    1
    25    25    26   ar
    26    26    27   ar
    27    27    28   ar
    28    28    29    1
    29    29    30    1
    30    29    31    1
    31    29    32    1
    32    28    33   ar
    33    33    34   ar
    34    22     2    1
    35    34    25   ar
    36    12     7    1
    37    20     8    1
    38    19    10    1
    39     1    35    1
    40     1    36    1
    41     1    37    1
    42     3    38    1
    43     3    39    1
    44     3    40    1
    45     7    41    1
    46     8    42    1
    47     9    43    1
    48     9    44    1
    49    10    45    1
    50    11    46    1
    51    11    47    1
    52    12    48    1
    53    13    49    1
    54    13    50    1
    55    16    51    1
    56    17    52    1
    57    18    53    1
    58    19    54    1
    59    19    55    1
    60    20    56    1
    61    20    57    1
    62    21    58    1
    63    21    59    1
    64    22    60    1
    65    23    61    1
    66    23    62    1
    67    26    63    1
    68    27    64    1
    69    33    65    1
