@<TRIPOS>MOLECULE
*****
 64 64 0 0 0
SMALL
GASTEIGER

@<TRIPOS>ATOM
      1 C           6.5807   -2.0256    0.9902 C.3     1  UNK1        0.1037
      2 N           5.6495   -2.7530    0.2187 N.3     1  UNK1       -0.3184
      3 C           6.4319   -0.5531    1.0582 C.3     1  UNK1       -0.0190
      4 C           5.1287   -0.0878    1.6439 C.3     1  UNK1        0.0249
      5 C           3.9288   -0.5003    0.9234 C.2     1  UNK1        0.1832
      6 O           3.3242   -1.7212    0.7387 O.2     1  UNK1       -0.4956
      7 N           3.2747    0.4343    0.3262 N.2     1  UNK1       -0.2411
      8 C           2.0844    0.3229   -0.4411 C.3     1  UNK1        0.1378
      9 C           0.8498    0.1701    0.4242 C.3     1  UNK1        0.0252
     10 S          -0.5676    0.0411   -0.6896 S.3     1  UNK1       -0.1520
     11 C          -2.1142   -0.1351    0.2705 C.3     1  UNK1        0.0362
     12 C          -2.3295    1.1557    1.0227 C.3     1  UNK1        0.0124
     13 C          -3.3028    1.8639    0.0948 C.3     1  UNK1        0.1576
     14 O          -4.0658    2.7869    0.7763 O.3     1  UNK1       -0.3669
     15 O          -4.0525    0.8664   -0.4858 O.3     1  UNK1       -0.3472
     16 C          -3.2674   -0.2360   -0.7116 C.3     1  UNK1        0.0736
     17 C          -3.9605   -1.5584   -0.5083 C.3     1  UNK1       -0.0255
     18 C          -5.1023   -1.7546   -1.4336 C.3     1  UNK1       -0.0507
     19 C          -6.2086   -0.7622   -1.3361 C.3     1  UNK1       -0.0532
     20 C          -6.8231   -0.7561    0.0522 C.3     1  UNK1       -0.0559
     21 C          -7.3649   -2.1516    0.3143 C.3     1  UNK1       -0.0653
     22 C           1.9078    1.5671   -1.2381 C.2     1  UNK1        0.2092
     23 O           0.7707    1.5949   -2.0448 O.2     1  UNK1       -0.4942
     24 N           2.7553    2.5502   -1.1807 N.2     2  GLY2       -0.2416
     25 CA          2.4879    3.7101   -1.9954 C.3     2  GLY2        0.1398
     26 C           1.2276    4.3918   -1.6120 C.2     2  GLY2        0.3264
     27 O           0.8762    5.5232   -2.3361 O.3     2  GLY2       -0.4793
     28 OXT         0.4282    4.0414   -0.6780 O.2     2  GLY2       -0.2489
     29 C           6.6721   -2.6205    2.3744 C.2     1  UNK1        0.3217
     30 O           7.5734   -1.9732    3.2329 O.3     1  UNK1       -0.4795
     31 O           6.0260   -3.6263    2.8229 O.2     1  UNK1       -0.2493
     32 H           7.6053   -2.2252    0.5479 H       1  UNK1        0.0574
     33 H           5.8668   -2.8339   -0.7942 H       1  UNK1        0.1190
     34 H           5.3163   -3.6462    0.6395 H       1  UNK1        0.1190
     35 H           7.2865   -0.0748    1.6249 H       1  UNK1        0.0290
     36 H           6.5019   -0.0918    0.0288 H       1  UNK1        0.0290
     37 H           5.1191    1.0174    1.8013 H       1  UNK1        0.0360
     38 H           5.0695   -0.4840    2.7086 H       1  UNK1        0.0360
     39 H           2.9724   -2.0466   -0.1519 H       1  UNK1        0.2934
     40 H           2.1427   -0.5015   -1.1733 H       1  UNK1        0.0651
     41 H           0.8954   -0.7618    1.0424 H       1  UNK1        0.0402
     42 H           0.7333    1.0159    1.1011 H       1  UNK1        0.0402
     43 H          -2.0554   -1.0043    0.9386 H       1  UNK1        0.0439
     44 H          -1.3977    1.7139    1.1848 H       1  UNK1        0.0325
     45 H          -2.8538    0.9293    1.9802 H       1  UNK1        0.0325
     46 H          -2.6851    2.3330   -0.7029 H       1  UNK1        0.0908
     47 H          -4.1732    2.4330    1.7051 H       1  UNK1        0.2125
     48 H          -2.8951   -0.1430   -1.7631 H       1  UNK1        0.0608
     49 H          -3.2239   -2.3834   -0.7351 H       1  UNK1        0.0290
     50 H          -4.2193   -1.7239    0.5646 H       1  UNK1        0.0290
     51 H          -4.7011   -1.7301   -2.4725 H       1  UNK1        0.0266
     52 H          -5.5529   -2.7599   -1.2860 H       1  UNK1        0.0266
     53 H          -6.9925   -1.0757   -2.0929 H       1  UNK1        0.0265
     54 H          -5.9497    0.2633   -1.6113 H       1  UNK1        0.0265
     55 H          -6.0725   -0.4589    0.8022 H       1  UNK1        0.0263
     56 H          -7.6537   -0.0238    0.1147 H       1  UNK1        0.0263
     57 H          -7.7348   -2.5450   -0.6547 H       1  UNK1        0.0230
     58 H          -8.1641   -2.0622    1.0784 H       1  UNK1        0.0230
     59 H          -6.5148   -2.7478    0.7061 H       1  UNK1        0.0230
     60 H           0.7278    2.2858   -2.8002 H       1  UNK1        0.2935
     61 HA1         2.4263    3.4424   -3.0841 H       2  GLY2        0.0625
     62 HA2         3.3885    4.3704   -1.9009 H       2  GLY2        0.0625
     63 H           0.1619    6.1822   -2.0358 H       2  GLY2        0.2951
     64 H           7.8071   -2.4676    4.0971 H       1  UNK1        0.2951
@<TRIPOS>BOND
     1     1     2    1
     2     1     3    1
     3     3     4    1
     4     4     5    1
     5     5     6    1
     6     5     7    2
     7     7     8    1
     8     8     9    1
     9     9    10    1
    10    10    11    1
    11    11    12    1
    12    12    13    1
    13    13    14    1
    14    13    15    1
    15    15    16    1
    16    16    17    1
    17    17    18    1
    18    18    19    1
    19    19    20    1
    20    20    21    1
    21     8    22    1
    22    22    23    1
    23    22    24    2
    24    24    25    1
    25    25    26    1
    26    26    27    1
    27    26    28    2
    28     1    29    1
    29    29    30    1
    30    29    31    2
    31    16    11    1
    32     1    32    1
    33     2    33    1
    34     2    34    1
    35     3    35    1
    36     3    36    1
    37     4    37    1
    38     4    38    1
    39     6    39    1
    40     8    40    1
    41     9    41    1
    42     9    42    1
    43    11    43    1
    44    12    44    1
    45    12    45    1
    46    13    46    1
    47    14    47    1
    48    16    48    1
    49    17    49    1
    50    17    50    1
    51    18    51    1
    52    18    52    1
    53    19    53    1
    54    19    54    1
    55    20    55    1
    56    20    56    1
    57    21    57    1
    58    21    58    1
    59    21    59    1
    60    23    60    1
    61    25    61    1
    62    25    62    1
    63    27    63    1
    64    30    64    1
