@<TRIPOS>MOLECULE
*****
 39 41 0 0 0
SMALL
GASTEIGER

@<TRIPOS>ATOM
      1 C          -1.6913    4.1823    0.0680 C.3     1  UNL1       -0.0060
      2 C          -1.1556    2.8364    0.4118 C.2     1  UNL1        0.1312
      3 O          -0.0470    2.9126    0.9680 O.2     1  UNL1       -0.2977
      4 C          -1.9082    1.5616    0.1006 C.3     1  UNL1        0.0167
      5 C          -1.1387    0.3788    0.5338 C.3     1  UNL1        0.0262
      6 C          -1.8956   -0.8632    0.2318 C.ar    1  UNL1       -0.0392
      7 C          -2.0970   -1.8947    1.1262 C.ar    1  UNL1       -0.0580
      8 C          -2.7916   -3.0420    0.8551 C.ar    1  UNL1       -0.0615
      9 C          -3.3481   -3.2086   -0.4088 C.ar    1  UNL1       -0.0617
     10 C          -3.1614   -2.1919   -1.3214 C.ar    1  UNL1       -0.0615
     11 C          -2.4529   -1.0386   -1.0218 C.ar    1  UNL1       -0.0580
     12 C           0.2656    0.3017    0.1327 C.ar    1  UNL1        0.0866
     13 C           1.2692   -0.3564    0.8130 C.ar    1  UNL1        0.1381
     14 O           0.9353   -1.0017    1.9924 O.3     1  UNL1       -0.5055
     15 C           2.5669   -0.3711    0.3327 C.ar    1  UNL1        0.0593
     16 C           2.8057    0.3030   -0.8565 C.ar    1  UNL1        0.1426
     17 O           1.8265    0.9215   -1.4822 O.2     1  UNL1       -0.4217
     18 C           0.5783    0.9462   -1.0375 C.ar    1  UNL1        0.3446
     19 O          -0.1468    1.6019   -1.8239 O.2     1  UNL1       -0.2447
     20 C           4.0996    0.2841   -1.3276 C.ar    1  UNL1       -0.0185
     21 C           5.1209   -0.3643   -0.6689 C.ar    1  UNL1       -0.0582
     22 C           4.8357   -1.0199    0.5079 C.ar    1  UNL1       -0.0609
     23 C           3.5592   -1.0411    1.0376 C.ar    1  UNL1       -0.0475
     24 H          -2.1698    4.6732    0.9488 H       1  UNL1        0.0306
     25 H          -2.4853    4.0878   -0.7005 H       1  UNL1        0.0306
     26 H          -0.8763    4.8809   -0.2590 H       1  UNL1        0.0306
     27 H          -2.8119    1.6274    0.7631 H       1  UNL1        0.0351
     28 H          -2.3087    1.5486   -0.9126 H       1  UNL1        0.0351
     29 H          -1.1169    0.4385    1.6677 H       1  UNL1        0.0405
     30 H          -1.6817   -1.8039    2.1203 H       1  UNL1        0.0620
     31 H          -2.9226   -3.8240    1.5906 H       1  UNL1        0.0618
     32 H          -3.8893   -4.1273   -0.5843 H       1  UNL1        0.0618
     33 H          -3.6125   -2.3566   -2.3050 H       1  UNL1        0.0618
     34 H          -2.3736   -0.3121   -1.8198 H       1  UNL1        0.0620
     35 H           0.9548   -2.0205    1.9556 H       1  UNL1        0.2922
     36 H           4.2848    0.8098   -2.2544 H       1  UNL1        0.0654
     37 H           6.1263   -0.3643   -1.0585 H       1  UNL1        0.0619
     38 H           5.5722   -1.5534    1.0913 H       1  UNL1        0.0618
     39 H           3.2819   -1.5408    1.9582 H       1  UNL1        0.0626
@<TRIPOS>BOND
     1     1     2    1
     2     2     3    2
     3     2     4    1
     4     4     5    1
     5     5     6    1
     6     6     7   ar
     7     7     8   ar
     8     8     9   ar
     9     9    10   ar
    10    10    11   ar
    11     5    12    1
    12    12    13   ar
    13    13    14    1
    14    13    15   ar
    15    15    16   ar
    16    16    17   ar
    17    17    18   ar
    18    18    19    2
    19    16    20   ar
    20    20    21   ar
    21    21    22   ar
    22    22    23   ar
    23    11     6   ar
    24    18    12   ar
    25    23    15   ar
    26     1    24    1
    27     1    25    1
    28     1    26    1
    29     4    27    1
    30     4    28    1
    31     5    29    1
    32     7    30    1
    33     8    31    1
    34     9    32    1
    35    10    33    1
    36    11    34    1
    37    14    35    1
    38    20    36    1
    39    21    37    1
    40    22    38    1
    41    23    39    1
