
     RDKit          3D

 73 78  0  0  0  0  0  0  0  0999 V2000
   10.3453   -0.9838   -1.2487 C   0  0  0  0  0  0  0  0  0  0  0  0
    9.1152   -0.1926   -1.4349 C   0  0  0  0  0  0  0  0  0  0  0  0
    8.8824    0.2675   -2.5751 O   0  0  0  0  0  0  0  0  0  0  0  0
    8.1965    0.0672   -0.3928 N   0  0  0  0  0  0  0  0  0  0  0  0
    6.9728    0.8442   -0.5246 C   0  0  0  0  0  0  0  0  0  0  0  0
    6.9438    1.6848    0.7555 C   0  0  0  0  0  0  0  0  0  0  0  0
    7.9141    1.0086    1.6717 C   0  0  0  0  0  0  0  0  0  0  0  0
    8.2197   -0.3301    1.0011 C   0  0  0  0  0  0  0  0  0  0  0  0
    7.1306   -1.3223    1.3234 C   0  0  0  0  0  0  0  0  0  0  0  0
    5.8710   -0.9361    0.7167 N   0  0  0  0  0  0  0  0  0  0  0  0
    4.6678   -1.3508    1.3210 C   0  0  0  0  0  0  0  0  0  0  0  0
    4.6622   -2.0265    2.3949 O   0  0  0  0  0  0  0  0  0  0  0  0
    3.4010   -1.0258    0.7268 C   0  0  0  0  0  0  0  0  0  0  0  0
    3.0680   -1.5363   -0.5224 C   0  0  0  0  0  0  0  0  0  0  0  0
    1.8679   -1.2719   -1.1165 C   0  0  0  0  0  0  0  0  0  0  0  0
    0.9432   -0.4608   -0.4452 C   0  0  0  0  0  0  0  0  0  0  0  0
   -0.2839   -0.2499   -1.0658 N   0  0  0  0  0  0  0  0  0  0  0  0
   -1.4034    0.5313   -0.7086 C   0  0  0  0  0  0  0  0  0  0  0  0
   -1.2635    1.7449   -0.1751 N   0  0  0  0  0  0  0  0  0  0  0  0
   -2.3921    2.4548    0.0858 C   0  0  0  0  0  0  0  0  0  0  0  0
   -3.6674    1.9724   -0.1762 C   0  0  0  0  0  0  0  0  0  0  0  0
   -4.9530    2.4823   -0.0479 C   0  0  0  0  0  0  0  0  0  0  0  0
   -5.8246    1.5143   -0.5216 C   0  0  0  0  0  0  0  0  0  0  0  0
   -7.2546    1.6974   -0.6081 C   0  0  0  0  0  0  0  0  0  0  0  0
   -7.8014    1.9247   -1.7263 O   0  0  0  0  0  0  0  0  0  0  0  0
   -8.0664    1.6321    0.5167 N   0  0  0  0  0  0  0  0  0  0  0  0
   -7.5693    1.4213    1.8516 C   0  0  0  0  0  0  0  0  0  0  0  0
   -9.5241    1.7548    0.3798 C   0  0  0  0  0  0  0  0  0  0  0  0
   -5.1250    0.4663   -0.9174 N   0  0  0  0  0  0  0  0  0  0  0  0
   -5.4909   -0.7931   -1.4305 C   0  0  0  0  0  0  0  0  0  0  0  0
   -6.8612   -1.2247   -1.5892 C   0  0  0  0  0  0  0  0  0  0  0  0
   -7.3619   -1.7693   -0.2642 C   0  0  0  0  0  0  0  0  0  0  0  0
   -6.1017   -1.9641    0.5431 C   0  0  0  0  0  0  0  0  0  0  0  0
   -4.9422   -1.8667   -0.4580 C   0  0  0  0  0  0  0  0  0  0  0  0
   -3.7853    0.7226   -0.7199 C   0  0  0  0  0  0  0  0  0  0  0  0
   -2.6662    0.0498   -0.9663 N   0  0  0  0  0  0  0  0  0  0  0  0
    1.2600    0.0236    0.7406 N   0  0  0  0  0  0  0  0  0  0  0  0
    2.4612   -0.2439    1.3275 C   0  0  0  0  0  0  0  0  0  0  0  0
    5.8137   -0.1280   -0.4852 C   0  0  0  0  0  0  0  0  0  0  0  0
   10.1286   -1.8972   -0.6819 H   0  0  0  0  0  0  0  0  0  0  0  0
   10.8026   -1.2780   -2.2114 H   0  0  0  0  0  0  0  0  0  0  0  0
   11.1079   -0.4016   -0.6588 H   0  0  0  0  0  0  0  0  0  0  0  0
    6.9446    1.4588   -1.4246 H   0  0  0  0  0  0  0  0  0  0  0  0
    5.9275    1.7427    1.1506 H   0  0  0  0  0  0  0  0  0  0  0  0
    7.2765    2.6962    0.4364 H   0  0  0  0  0  0  0  0  0  0  0  0
    8.8550    1.5461    1.7372 H   0  0  0  0  0  0  0  0  0  0  0  0
    7.4551    0.7340    2.6503 H   0  0  0  0  0  0  0  0  0  0  0  0
    9.2136   -0.7007    1.3164 H   0  0  0  0  0  0  0  0  0  0  0  0
    7.4663   -2.3033    0.9275 H   0  0  0  0  0  0  0  0  0  0  0  0
    7.0667   -1.4115    2.4251 H   0  0  0  0  0  0  0  0  0  0  0  0
    3.7712   -2.1688   -1.0636 H   0  0  0  0  0  0  0  0  0  0  0  0
    1.6125   -1.6664   -2.0928 H   0  0  0  0  0  0  0  0  0  0  0  0
   -0.4648   -0.7614   -2.0255 H   0  0  0  0  0  0  0  0  0  0  0  0
   -2.3355    3.4520    0.5163 H   0  0  0  0  0  0  0  0  0  0  0  0
   -5.2232    3.4312    0.3378 H   0  0  0  0  0  0  0  0  0  0  0  0
   -7.5725    2.3858    2.4408 H   0  0  0  0  0  0  0  0  0  0  0  0
   -6.5706    0.9843    1.9003 H   0  0  0  0  0  0  0  0  0  0  0  0
   -8.2942    0.7283    2.3670 H   0  0  0  0  0  0  0  0  0  0  0  0
   -9.8037    2.3353   -0.5207 H   0  0  0  0  0  0  0  0  0  0  0  0
   -9.9343    0.7138    0.2008 H   0  0  0  0  0  0  0  0  0  0  0  0
   -9.9986    2.2125    1.2473 H   0  0  0  0  0  0  0  0  0  0  0  0
   -4.9304   -0.9826   -2.3987 H   0  0  0  0  0  0  0  0  0  0  0  0
   -6.8058   -2.1838   -2.2360 H   0  0  0  0  0  0  0  0  0  0  0  0
   -7.5889   -0.6358   -2.1258 H   0  0  0  0  0  0  0  0  0  0  0  0
   -7.8031   -2.8043   -0.3687 H   0  0  0  0  0  0  0  0  0  0  0  0
   -8.1296   -1.1523    0.2072 H   0  0  0  0  0  0  0  0  0  0  0  0
   -6.0358   -1.1995    1.3153 H   0  0  0  0  0  0  0  0  0  0  0  0
   -6.0058   -2.9864    0.9788 H   0  0  0  0  0  0  0  0  0  0  0  0
   -4.8168   -2.8263   -0.9570 H   0  0  0  0  0  0  0  0  0  0  0  0
   -4.0584   -1.4544    0.0473 H   0  0  0  0  0  0  0  0  0  0  0  0
    2.6301    0.1984    2.3041 H   0  0  0  0  0  0  0  0  0  0  0  0
    5.8515   -0.8192   -1.3360 H   0  0  0  0  0  0  0  0  0  0  0  0
    4.8639    0.4258   -0.5241 H   0  0  0  0  0  0  0  0  0  0  0  0
  1  2  1  0
  2  3  2  0
  2  4  1  0
  4  5  1  0
  5  6  1  0
  6  7  1  0
  7  8  1  0
  8  9  1  0
  9 10  1  0
 10 11  1  0
 11 12  2  0
 11 13  1  0
 13 14  2  0
 14 15  1  0
 15 16  2  0
 16 17  1  0
 17 18  1  0
 18 19  2  0
 19 20  1  0
 20 21  2  0
 21 22  1  0
 22 23  2  0
 23 24  1  0
 24 25  2  0
 24 26  1  0
 26 27  1  0
 26 28  1  0
 23 29  1  0
 29 30  1  0
 30 31  1  0
 31 32  1  0
 32 33  1  0
 33 34  1  0
 29 35  1  0
 35 36  2  0
 16 37  1  0
 37 38  2  0
 10 39  1  0
  8  4  1  0
 38 13  1  0
 39  5  1  0
 36 18  1  0
 35 21  1  0
 34 30  1  0
  1 40  1  0
  1 41  1  0
  1 42  1  0
  5 43  1  0
  6 44  1  0
  6 45  1  0
  7 46  1  0
  7 47  1  0
  8 48  1  0
  9 49  1  0
  9 50  1  0
 14 51  1  0
 15 52  1  0
 17 53  1  0
 20 54  1  0
 22 55  1  0
 27 56  1  0
 27 57  1  0
 27 58  1  0
 28 59  1  0
 28 60  1  0
 28 61  1  0
 30 62  1  0
 31 63  1  0
 31 64  1  0
 32 65  1  0
 32 66  1  0
 33 67  1  0
 33 68  1  0
 34 69  1  0
 34 70  1  0
 38 71  1  0
 39 72  1  0
 39 73  1  0
M  END
$$$$
