@<TRIPOS>MOLECULE
*****
 73 78 0 0 0
SMALL
GASTEIGER

@<TRIPOS>ATOM
      1 C          10.3453   -0.9838   -1.2487 C.3     1  UNL1        0.0124
      2 C           9.1152   -0.1926   -1.4349 C.2     1  UNL1        0.2130
      3 O           8.8824    0.2675   -2.5751 O.2     1  UNL1       -0.2759
      4 N           8.1965    0.0672   -0.3928 N.am    1  UNL1       -0.2926
      5 C           6.9728    0.8442   -0.5246 C.3     1  UNL1        0.0421
      6 C           6.9438    1.6848    0.7555 C.3     1  UNL1       -0.0311
      7 C           7.9141    1.0086    1.6717 C.3     1  UNL1       -0.0311
      8 C           8.2197   -0.3301    1.0011 C.3     1  UNL1        0.0421
      9 C           7.1306   -1.3223    1.3234 C.3     1  UNL1        0.0337
     10 N           5.8710   -0.9361    0.7167 N.am    1  UNL1       -0.2940
     11 C           4.6678   -1.3508    1.3210 C.2     1  UNL1        0.2482
     12 O           4.6622   -2.0265    2.3949 O.2     1  UNL1       -0.2699
     13 C           3.4010   -1.0258    0.7268 C.ar    1  UNL1        0.0551
     14 C           3.0680   -1.5363   -0.5224 C.ar    1  UNL1       -0.0449
     15 C           1.8679   -1.2719   -1.1165 C.ar    1  UNL1       -0.0208
     16 C           0.9432   -0.4608   -0.4452 C.ar    1  UNL1        0.1250
     17 N          -0.2839   -0.2499   -1.0658 N.pl3   1  UNL1       -0.2685
     18 C          -1.4034    0.5313   -0.7086 C.ar    1  UNL1        0.2224
     19 N          -1.2635    1.7449   -0.1751 N.ar    1  UNL1       -0.2219
     20 C          -2.3921    2.4548    0.0858 C.ar    1  UNL1        0.0419
     21 C          -3.6674    1.9724   -0.1762 C.ar    1  UNL1        0.0378
     22 C          -4.9530    2.4823   -0.0479 C.ar    1  UNL1       -0.0209
     23 C          -5.8246    1.5143   -0.5216 C.ar    1  UNL1        0.1070
     24 C          -7.2546    1.6974   -0.6081 C.2     1  UNL1        0.2627
     25 O          -7.8014    1.9247   -1.7263 O.2     1  UNL1       -0.2684
     26 N          -8.0664    1.6321    0.5167 N.am    1  UNL1       -0.3024
     27 C          -7.5693    1.4213    1.8516 C.3     1  UNL1        0.0032
     28 C          -9.5241    1.7548    0.3798 C.3     1  UNL1        0.0032
     29 N          -5.1250    0.4663   -0.9174 N.ar    1  UNL1       -0.3180
     30 C          -5.4909   -0.7931   -1.4305 C.3     1  UNL1        0.0366
     31 C          -6.8612   -1.2247   -1.5892 C.3     1  UNL1       -0.0320
     32 C          -7.3619   -1.7693   -0.2642 C.3     1  UNL1       -0.0511
     33 C          -6.1017   -1.9641    0.5431 C.3     1  UNL1       -0.0511
     34 C          -4.9422   -1.8667   -0.4580 C.3     1  UNL1       -0.0320
     35 C          -3.7853    0.7226   -0.7199 C.ar    1  UNL1        0.1466
     36 N          -2.6662    0.0498   -0.9663 N.ar    1  UNL1       -0.1962
     37 N           1.2600    0.0236    0.7406 N.ar    1  UNL1       -0.2394
     38 C           2.4612   -0.2439    1.3275 C.ar    1  UNL1        0.0418
     39 C           5.8137   -0.1280   -0.4852 C.3     1  UNL1        0.0337
     40 H          10.1286   -1.8972   -0.6819 H       1  UNL1        0.0323
     41 H          10.8026   -1.2780   -2.2114 H       1  UNL1        0.0323
     42 H          11.1079   -0.4016   -0.6588 H       1  UNL1        0.0323
     43 H           6.9446    1.4588   -1.4246 H       1  UNL1        0.0516
     44 H           5.9275    1.7427    1.1506 H       1  UNL1        0.0284
     45 H           7.2765    2.6962    0.4364 H       1  UNL1        0.0284
     46 H           8.8550    1.5461    1.7372 H       1  UNL1        0.0284
     47 H           7.4551    0.7340    2.6503 H       1  UNL1        0.0284
     48 H           9.2136   -0.7007    1.3164 H       1  UNL1        0.0516
     49 H           7.4663   -2.3033    0.9275 H       1  UNL1        0.0483
     50 H           7.0667   -1.4115    2.4251 H       1  UNL1        0.0483
     51 H           3.7712   -2.1688   -1.0636 H       1  UNL1        0.0627
     52 H           1.6125   -1.6664   -2.0928 H       1  UNL1        0.0652
     53 H          -0.4648   -0.7614   -2.0255 H       1  UNL1        0.1564
     54 H          -2.3355    3.4520    0.5163 H       1  UNL1        0.0838
     55 H          -5.2232    3.4312    0.3378 H       1  UNL1        0.0647
     56 H          -7.5725    2.3858    2.4408 H       1  UNL1        0.0428
     57 H          -6.5706    0.9843    1.9003 H       1  UNL1        0.0428
     58 H          -8.2942    0.7283    2.3670 H       1  UNL1        0.0428
     59 H          -9.8037    2.3353   -0.5207 H       1  UNL1        0.0428
     60 H          -9.9343    0.7138    0.2008 H       1  UNL1        0.0428
     61 H          -9.9986    2.2125    1.2473 H       1  UNL1        0.0428
     62 H          -4.9304   -0.9826   -2.3987 H       1  UNL1        0.0528
     63 H          -6.8058   -2.1838   -2.2360 H       1  UNL1        0.0285
     64 H          -7.5889   -0.6358   -2.1258 H       1  UNL1        0.0285
     65 H          -7.8031   -2.8043   -0.3687 H       1  UNL1        0.0266
     66 H          -8.1296   -1.1523    0.2072 H       1  UNL1        0.0266
     67 H          -6.0358   -1.1995    1.3153 H       1  UNL1        0.0266
     68 H          -6.0058   -2.9864    0.9788 H       1  UNL1        0.0266
     69 H          -4.8168   -2.8263   -0.9570 H       1  UNL1        0.0285
     70 H          -4.0584   -1.4544    0.0473 H       1  UNL1        0.0285
     71 H           2.6301    0.1984    2.3041 H       1  UNL1        0.0838
     72 H           5.8515   -0.8192   -1.3360 H       1  UNL1        0.0483
     73 H           4.8639    0.4258   -0.5241 H       1  UNL1        0.0483
@<TRIPOS>BOND
     1     1     2    1
     2     2     3    2
     3     2     4   am
     4     4     5    1
     5     5     6    1
     6     6     7    1
     7     7     8    1
     8     8     9    1
     9     9    10    1
    10    10    11   am
    11    11    12    2
    12    11    13    1
    13    13    14   ar
    14    14    15   ar
    15    15    16   ar
    16    16    17    1
    17    17    18    1
    18    18    19   ar
    19    19    20   ar
    20    20    21   ar
    21    21    22   ar
    22    22    23   ar
    23    23    24    1
    24    24    25    2
    25    24    26   am
    26    26    27    1
    27    26    28    1
    28    23    29   ar
    29    29    30    1
    30    30    31    1
    31    31    32    1
    32    32    33    1
    33    33    34    1
    34    29    35   ar
    35    35    36   ar
    36    16    37   ar
    37    37    38   ar
    38    10    39    1
    39     8     4    1
    40    38    13   ar
    41    39     5    1
    42    36    18   ar
    43    35    21   ar
    44    34    30    1
    45     1    40    1
    46     1    41    1
    47     1    42    1
    48     5    43    1
    49     6    44    1
    50     6    45    1
    51     7    46    1
    52     7    47    1
    53     8    48    1
    54     9    49    1
    55     9    50    1
    56    14    51    1
    57    15    52    1
    58    17    53    1
    59    20    54    1
    60    22    55    1
    61    27    56    1
    62    27    57    1
    63    27    58    1
    64    28    59    1
    65    28    60    1
    66    28    61    1
    67    30    62    1
    68    31    63    1
    69    31    64    1
    70    32    65    1
    71    32    66    1
    72    33    67    1
    73    33    68    1
    74    34    69    1
    75    34    70    1
    76    38    71    1
    77    39    72    1
    78    39    73    1
