
     RDKit          3D

 40 42  0  0  0  0  0  0  0  0999 V2000
   -3.5355    1.0378    1.9037 C   0  0  0  0  0  0  0  0  0  0  0  0
   -2.7345    0.7417    0.6735 C   0  0  0  0  0  0  0  0  0  0  0  0
   -3.1197    1.6258   -0.4919 C   0  0  0  0  0  0  0  0  0  0  0  0
   -4.5648    1.4063   -0.8682 C   0  0  0  0  0  0  0  0  0  0  0  0
   -4.7941   -0.0247   -1.2998 C   0  0  0  0  0  0  0  0  0  0  0  0
   -4.2906   -1.0275   -0.3167 C   0  0  0  0  0  0  0  0  0  0  0  0
   -2.9789   -0.6566    0.2832 C   0  0  0  0  0  0  0  0  0  0  0  0
   -2.0662   -1.5469    0.4599 N   0  0  0  0  0  0  0  0  0  0  0  0
   -0.8502   -1.1536    1.0265 N   0  0  0  0  0  0  0  0  0  0  0  0
    0.3659   -1.1070    0.2624 C   0  0  0  0  0  0  0  0  0  0  0  0
    1.4735   -0.8575    0.3616 N   0  0  0  0  0  0  0  0  0  0  0  0
    2.4378   -0.9029   -0.5607 C   0  0  0  0  0  0  0  0  0  0  0  0
    3.8312   -0.5470   -0.2740 C   0  0  0  0  0  0  0  0  0  0  0  0
    4.2527   -0.1365    0.9757 C   0  0  0  0  0  0  0  0  0  0  0  0
    5.5415    0.2012    1.2741 C   0  0  0  0  0  0  0  0  0  0  0  0
    6.4753    0.1222    0.2475 C   0  0  0  0  0  0  0  0  0  0  0  0
    7.8367    0.4763    0.5545 C   0  0  0  0  0  0  0  0  0  0  0  0
    8.9418    0.7844    0.8023 N   0  0  0  0  0  0  0  0  0  0  0  0
    6.0895   -0.2837   -1.0126 C   0  0  0  0  0  0  0  0  0  0  0  0
    4.7925   -0.6161   -1.2844 C   0  0  0  0  0  0  0  0  0  0  0  0
    2.0201   -1.3010   -1.7653 C   0  0  0  0  0  0  0  0  0  0  0  0
    0.3052   -1.5969   -1.5714 S   0  0  0  0  0  0  0  0  0  0  0  0
   -4.3617    0.2977    2.0633 H   0  0  0  0  0  0  0  0  0  0  0  0
   -4.0196    2.0446    1.8710 H   0  0  0  0  0  0  0  0  0  0  0  0
   -2.8862    0.9814    2.7795 H   0  0  0  0  0  0  0  0  0  0  0  0
   -1.6666    0.9307    0.8843 H   0  0  0  0  0  0  0  0  0  0  0  0
   -2.4794    1.3182   -1.3464 H   0  0  0  0  0  0  0  0  0  0  0  0
   -2.9706    2.6786   -0.2478 H   0  0  0  0  0  0  0  0  0  0  0  0
   -4.7820    2.0543   -1.7377 H   0  0  0  0  0  0  0  0  0  0  0  0
   -5.2177    1.7159   -0.0481 H   0  0  0  0  0  0  0  0  0  0  0  0
   -5.9116   -0.1464   -1.3876 H   0  0  0  0  0  0  0  0  0  0  0  0
   -4.3943   -0.1643   -2.3148 H   0  0  0  0  0  0  0  0  0  0  0  0
   -4.1751   -2.0086   -0.8438 H   0  0  0  0  0  0  0  0  0  0  0  0
   -5.0291   -1.1884    0.4919 H   0  0  0  0  0  0  0  0  0  0  0  0
   -0.7951   -0.8813    2.0289 H   0  0  0  0  0  0  0  0  0  0  0  0
    3.5080   -0.0808    1.7666 H   0  0  0  0  0  0  0  0  0  0  0  0
    5.7741    0.5102    2.2805 H   0  0  0  0  0  0  0  0  0  0  0  0
    6.8331   -0.3368   -1.7923 H   0  0  0  0  0  0  0  0  0  0  0  0
    4.5291   -0.9256   -2.2686 H   0  0  0  0  0  0  0  0  0  0  0  0
    2.6157   -1.4371   -2.7496 H   0  0  0  0  0  0  0  0  0  0  0  0
  1  2  1  0
  2  3  1  0
  3  4  1  0
  4  5  1  0
  5  6  1  0
  6  7  1  0
  7  8  2  3
  8  9  1  0
  9 10  1  0
 10 11  2  0
 11 12  1  0
 12 13  1  0
 13 14  2  0
 14 15  1  0
 15 16  2  0
 16 17  1  0
 17 18  3  0
 16 19  1  0
 19 20  2  0
 12 21  2  0
 21 22  1  0
  7  2  1  0
 22 10  1  0
 20 13  1  0
  1 23  1  0
  1 24  1  0
  1 25  1  0
  2 26  1  0
  3 27  1  0
  3 28  1  0
  4 29  1  0
  4 30  1  0
  5 31  1  0
  5 32  1  0
  6 33  1  0
  6 34  1  0
  9 35  1  0
 14 36  1  0
 15 37  1  0
 19 38  1  0
 20 39  1  0
 21 40  1  0
M  END
$$$$
