@<TRIPOS>MOLECULE
*****
 40 42 0 0 0
SMALL
GASTEIGER

@<TRIPOS>ATOM
      1 C          -3.5355    1.0378    1.9037 C.3     1  UNL1       -0.0572
      2 C          -2.7345    0.7417    0.6735 C.3     1  UNL1       -0.0039
      3 C          -3.1197    1.6258   -0.4919 C.3     1  UNL1       -0.0453
      4 C          -4.5648    1.4063   -0.8682 C.3     1  UNL1       -0.0521
      5 C          -4.7941   -0.0247   -1.2998 C.3     1  UNL1       -0.0479
      6 C          -4.2906   -1.0275   -0.3167 C.3     1  UNL1       -0.0125
      7 C          -2.9789   -0.6566    0.2832 C.2     1  UNL1        0.0397
      8 N          -2.0662   -1.5469    0.4599 N.2     1  UNL1       -0.1895
      9 N          -0.8502   -1.1536    1.0265 N.pl3   1  UNL1       -0.2153
     10 C           0.3659   -1.1070    0.2624 C.ar    1  UNL1        0.1783
     11 N           1.4735   -0.8575    0.3616 N.ar    1  UNL1       -0.2236
     12 C           2.4378   -0.9029   -0.5607 C.ar    1  UNL1        0.0803
     13 C           3.8312   -0.5470   -0.2740 C.ar    1  UNL1        0.0010
     14 C           4.2527   -0.1365    0.9757 C.ar    1  UNL1       -0.0513
     15 C           5.5415    0.2012    1.2741 C.ar    1  UNL1       -0.0437
     16 C           6.4753    0.1222    0.2475 C.ar    1  UNL1        0.0518
     17 C           7.8367    0.4763    0.5545 C.1     1  UNL1        0.0992
     18 N           8.9418    0.7844    0.8023 N.1     1  UNL1       -0.1909
     19 C           6.0895   -0.2837   -1.0126 C.ar    1  UNL1       -0.0437
     20 C           4.7925   -0.6161   -1.2844 C.ar    1  UNL1       -0.0513
     21 C           2.0201   -1.3010   -1.7653 C.ar    1  UNL1        0.0049
     22 S           0.3052   -1.5969   -1.5714 S.2     1  UNL1       -0.0586
     23 H          -4.3617    0.2977    2.0633 H       1  UNL1        0.0236
     24 H          -4.0196    2.0446    1.8710 H       1  UNL1        0.0236
     25 H          -2.8862    0.9814    2.7795 H       1  UNL1        0.0236
     26 H          -1.6666    0.9307    0.8843 H       1  UNL1        0.0358
     27 H          -2.4794    1.3182   -1.3464 H       1  UNL1        0.0271
     28 H          -2.9706    2.6786   -0.2478 H       1  UNL1        0.0271
     29 H          -4.7820    2.0543   -1.7377 H       1  UNL1        0.0266
     30 H          -5.2177    1.7159   -0.0481 H       1  UNL1        0.0266
     31 H          -5.9116   -0.1464   -1.3876 H       1  UNL1        0.0269
     32 H          -4.3943   -0.1643   -2.3148 H       1  UNL1        0.0269
     33 H          -4.1751   -2.0086   -0.8438 H       1  UNL1        0.0326
     34 H          -5.0291   -1.1884    0.4919 H       1  UNL1        0.0326
     35 H          -0.7951   -0.8813    2.0289 H       1  UNL1        0.1765
     36 H           3.5080   -0.0808    1.7666 H       1  UNL1        0.0624
     37 H           5.7741    0.5102    2.2805 H       1  UNL1        0.0631
     38 H           6.8331   -0.3368   -1.7923 H       1  UNL1        0.0631
     39 H           4.5291   -0.9256   -2.2686 H       1  UNL1        0.0624
     40 H           2.6157   -1.4371   -2.7496 H       1  UNL1        0.0716
@<TRIPOS>BOND
     1     1     2    1
     2     2     3    1
     3     3     4    1
     4     4     5    1
     5     5     6    1
     6     6     7    1
     7     7     8    2
     8     8     9    1
     9     9    10    1
    10    10    11   ar
    11    11    12   ar
    12    12    13    1
    13    13    14   ar
    14    14    15   ar
    15    15    16   ar
    16    16    17    1
    17    17    18    3
    18    16    19   ar
    19    19    20   ar
    20    12    21   ar
    21    21    22   ar
    22     7     2    1
    23    22    10   ar
    24    20    13   ar
    25     1    23    1
    26     1    24    1
    27     1    25    1
    28     2    26    1
    29     3    27    1
    30     3    28    1
    31     4    29    1
    32     4    30    1
    33     5    31    1
    34     5    32    1
    35     6    33    1
    36     6    34    1
    37     9    35    1
    38    14    36    1
    39    15    37    1
    40    19    38    1
    41    20    39    1
    42    21    40    1
