@<TRIPOS>MOLECULE
*****
 46 49 0 0 0
SMALL
GASTEIGER

@<TRIPOS>ATOM
      1 C           5.9565    0.7199    0.6887 C.3     1  UNL1        0.0302
      2 N           4.5823    1.1785    0.5641 N.ar    1  UNL1       -0.2741
      3 C           3.4997    0.3978    0.4808 C.ar    1  UNL1        0.0308
      4 C           2.4160    1.2599    0.3761 C.ar    1  UNL1        0.0185
      5 C           0.9816    0.8938    0.2568 C.3     1  UNL1        0.0870
      6 C           0.7365    0.3521   -1.1263 C.3     1  UNL1       -0.0158
      7 C          -0.3972   -0.6151   -1.1981 C.3     1  UNL1        0.0080
      8 C           0.1526   -1.9813   -1.5312 C.3     1  UNL1        0.0461
      9 C           0.8365   -2.7105   -0.4539 C.3     1  UNL1        0.1027
     10 F           1.2519   -3.9431   -0.9880 F       1  UNL1       -0.2479
     11 S          -1.3311   -2.9526   -2.0216 S.3     1  UNL1       -0.0848
     12 C          -2.3902   -2.7249   -0.6029 C.2     1  UNL1        0.1479
     13 N          -3.3436   -3.7355   -0.3287 N.pl3   1  UNL1       -0.3380
     14 N          -2.2258   -1.6831    0.0659 N.2     1  UNL1       -0.2495
     15 C          -1.3418   -0.5637   -0.0386 C.3     1  UNL1        0.1188
     16 C          -2.2668    0.6093   -0.1358 C.ar    1  UNL1        0.0178
     17 C          -2.3041    1.5179   -1.1514 C.ar    1  UNL1       -0.0507
     18 C          -3.1902    2.5937   -1.1432 C.ar    1  UNL1       -0.0259
     19 C          -4.0564    2.7618   -0.0953 C.ar    1  UNL1        0.1261
     20 F          -4.9202    3.8158   -0.0926 F       1  UNL1       -0.2054
     21 C          -4.0475    1.8724    0.9380 C.ar    1  UNL1        0.0091
     22 C          -3.1536    0.8112    0.9005 C.ar    1  UNL1        0.1317
     23 F          -3.2149   -0.0491    1.9569 F       1  UNL1       -0.2050
     24 C          -0.6350   -0.3952    1.2898 C.3     1  UNL1        0.0781
     25 O           0.7164   -0.1018    1.1780 O.3     1  UNL1       -0.3691
     26 C           2.9300    2.5475    0.4037 C.ar    1  UNL1        0.0550
     27 N           4.2513    2.4444    0.5191 N.ar    1  UNL1       -0.1796
     28 H           6.0781   -0.3287    0.3624 H       1  UNL1        0.0473
     29 H           6.2775    0.7766    1.7494 H       1  UNL1        0.0473
     30 H           6.5801    1.3874    0.0530 H       1  UNL1        0.0473
     31 H           3.4833   -0.6841    0.4935 H       1  UNL1        0.0830
     32 H           0.3826    1.7740    0.4824 H       1  UNL1        0.0647
     33 H           1.7042   -0.1542   -1.4246 H       1  UNL1        0.0297
     34 H           0.6775    1.2153   -1.8153 H       1  UNL1        0.0297
     35 H          -0.9921   -0.3593   -2.1076 H       1  UNL1        0.0341
     36 H           0.8041   -1.8327   -2.4240 H       1  UNL1        0.0445
     37 H           0.1733   -2.9600    0.3931 H       1  UNL1        0.0626
     38 H           1.7718   -2.2629   -0.0800 H       1  UNL1        0.0626
     39 H          -3.2921   -4.3885    0.4709 H       1  UNL1        0.1442
     40 H          -4.1591   -3.8343   -0.9754 H       1  UNL1        0.1442
     41 H          -1.6656    1.4545   -1.9920 H       1  UNL1        0.0623
     42 H          -3.2009    3.3002   -1.9592 H       1  UNL1        0.0646
     43 H          -4.7310    2.0024    1.7681 H       1  UNL1        0.0675
     44 H          -0.7051   -1.3064    1.9160 H       1  UNL1        0.0588
     45 H          -1.0517    0.4310    1.9041 H       1  UNL1        0.0588
     46 H           2.3723    3.4498    0.3439 H       1  UNL1        0.0851
@<TRIPOS>BOND
     1     1     2    1
     2     2     3   ar
     3     3     4   ar
     4     4     5    1
     5     5     6    1
     6     6     7    1
     7     7     8    1
     8     8     9    1
     9     9    10    1
    10     8    11    1
    11    11    12    1
    12    12    13    1
    13    12    14    2
    14    14    15    1
    15    15    16    1
    16    16    17   ar
    17    17    18   ar
    18    18    19   ar
    19    19    20    1
    20    19    21   ar
    21    21    22   ar
    22    22    23    1
    23    15    24    1
    24    24    25    1
    25     4    26   ar
    26    26    27   ar
    27    27     2   ar
    28    25     5    1
    29    15     7    1
    30    22    16   ar
    31     1    28    1
    32     1    29    1
    33     1    30    1
    34     3    31    1
    35     5    32    1
    36     6    33    1
    37     6    34    1
    38     7    35    1
    39     8    36    1
    40     9    37    1
    41     9    38    1
    42    13    39    1
    43    13    40    1
    44    17    41    1
    45    18    42    1
    46    21    43    1
    47    24    44    1
    48    24    45    1
    49    26    46    1
