
     RDKit          3D

 46 49  0  0  0  0  0  0  0  0999 V2000
    5.9565    0.7199    0.6887 C   0  0  0  0  0  0  0  0  0  0  0  0
    4.5823    1.1785    0.5641 N   0  0  0  0  0  0  0  0  0  0  0  0
    3.4997    0.3978    0.4808 C   0  0  0  0  0  0  0  0  0  0  0  0
    2.4160    1.2599    0.3761 C   0  0  0  0  0  0  0  0  0  0  0  0
    0.9816    0.8938    0.2568 C   0  0  1  0  0  0  0  0  0  0  0  0
    0.7365    0.3521   -1.1263 C   0  0  0  0  0  0  0  0  0  0  0  0
   -0.3972   -0.6151   -1.1981 C   0  0  1  0  0  0  0  0  0  0  0  0
    0.1526   -1.9813   -1.5312 C   0  0  1  0  0  0  0  0  0  0  0  0
    0.8365   -2.7105   -0.4539 C   0  0  0  0  0  0  0  0  0  0  0  0
    1.2519   -3.9431   -0.9880 F   0  0  0  0  0  0  0  0  0  0  0  0
   -1.3311   -2.9526   -2.0216 S   0  0  0  0  0  0  0  0  0  0  0  0
   -2.3902   -2.7249   -0.6029 C   0  0  0  0  0  0  0  0  0  0  0  0
   -3.3436   -3.7355   -0.3287 N   0  0  0  0  0  0  0  0  0  0  0  0
   -2.2258   -1.6831    0.0659 N   0  0  0  0  0  0  0  0  0  0  0  0
   -1.3418   -0.5637   -0.0386 C   0  0  2  0  0  0  0  0  0  0  0  0
   -2.2668    0.6093   -0.1358 C   0  0  0  0  0  0  0  0  0  0  0  0
   -2.3041    1.5179   -1.1514 C   0  0  0  0  0  0  0  0  0  0  0  0
   -3.1902    2.5937   -1.1432 C   0  0  0  0  0  0  0  0  0  0  0  0
   -4.0564    2.7618   -0.0953 C   0  0  0  0  0  0  0  0  0  0  0  0
   -4.9202    3.8158   -0.0926 F   0  0  0  0  0  0  0  0  0  0  0  0
   -4.0475    1.8724    0.9380 C   0  0  0  0  0  0  0  0  0  0  0  0
   -3.1536    0.8112    0.9005 C   0  0  0  0  0  0  0  0  0  0  0  0
   -3.2149   -0.0491    1.9569 F   0  0  0  0  0  0  0  0  0  0  0  0
   -0.6350   -0.3952    1.2898 C   0  0  0  0  0  0  0  0  0  0  0  0
    0.7164   -0.1018    1.1780 O   0  0  0  0  0  0  0  0  0  0  0  0
    2.9300    2.5475    0.4037 C   0  0  0  0  0  0  0  0  0  0  0  0
    4.2513    2.4444    0.5191 N   0  0  0  0  0  0  0  0  0  0  0  0
    6.0781   -0.3287    0.3624 H   0  0  0  0  0  0  0  0  0  0  0  0
    6.2775    0.7766    1.7494 H   0  0  0  0  0  0  0  0  0  0  0  0
    6.5801    1.3874    0.0530 H   0  0  0  0  0  0  0  0  0  0  0  0
    3.4833   -0.6841    0.4935 H   0  0  0  0  0  0  0  0  0  0  0  0
    0.3826    1.7740    0.4824 H   0  0  0  0  0  0  0  0  0  0  0  0
    1.7042   -0.1542   -1.4246 H   0  0  0  0  0  0  0  0  0  0  0  0
    0.6775    1.2153   -1.8153 H   0  0  0  0  0  0  0  0  0  0  0  0
   -0.9921   -0.3593   -2.1076 H   0  0  0  0  0  0  0  0  0  0  0  0
    0.8041   -1.8327   -2.4240 H   0  0  0  0  0  0  0  0  0  0  0  0
    0.1733   -2.9600    0.3931 H   0  0  0  0  0  0  0  0  0  0  0  0
    1.7718   -2.2629   -0.0800 H   0  0  0  0  0  0  0  0  0  0  0  0
   -3.2921   -4.3885    0.4709 H   0  0  0  0  0  0  0  0  0  0  0  0
   -4.1591   -3.8343   -0.9754 H   0  0  0  0  0  0  0  0  0  0  0  0
   -1.6656    1.4545   -1.9920 H   0  0  0  0  0  0  0  0  0  0  0  0
   -3.2009    3.3002   -1.9592 H   0  0  0  0  0  0  0  0  0  0  0  0
   -4.7310    2.0024    1.7681 H   0  0  0  0  0  0  0  0  0  0  0  0
   -0.7051   -1.3064    1.9160 H   0  0  0  0  0  0  0  0  0  0  0  0
   -1.0517    0.4310    1.9041 H   0  0  0  0  0  0  0  0  0  0  0  0
    2.3723    3.4498    0.3439 H   0  0  0  0  0  0  0  0  0  0  0  0
  1  2  1  0
  2  3  1  0
  3  4  2  0
  4  5  1  0
  5  6  1  0
  6  7  1  0
  7  8  1  0
  8  9  1  0
  9 10  1  0
  8 11  1  0
 11 12  1  0
 12 13  1  0
 12 14  2  0
 14 15  1  0
 15 16  1  6
 16 17  2  0
 17 18  1  0
 18 19  2  0
 19 20  1  0
 19 21  1  0
 21 22  2  0
 22 23  1  0
 15 24  1  0
 24 25  1  0
  4 26  1  0
 26 27  2  0
 27  2  1  0
 25  5  1  0
 15  7  1  0
 22 16  1  0
  1 28  1  0
  1 29  1  0
  1 30  1  0
  3 31  1  0
  5 32  1  1
  6 33  1  0
  6 34  1  0
  7 35  1  6
  8 36  1  6
  9 37  1  0
  9 38  1  0
 13 39  1  0
 13 40  1  0
 17 41  1  0
 18 42  1  0
 21 43  1  0
 24 44  1  0
 24 45  1  0
 26 46  1  0
M  END
$$$$
