@<TRIPOS>MOLECULE
*****
 39 41 0 0 0
SMALL
GASTEIGER

@<TRIPOS>ATOM
      1 O           8.7190   -0.8220   -1.1629 O.2     1  UNL1       -0.2489
      2 C           7.6000   -1.0697   -1.6696 C.2     1  UNL1        0.3282
      3 O           7.1692   -0.3699   -2.7758 O.3     1  UNL1       -0.4793
      4 C           6.7457   -2.1064   -1.0852 C.3     1  UNL1        0.1593
      5 N           5.9009   -1.4848   -0.0816 N.ar    1  UNL1       -0.1519
      6 N           6.1153   -1.3062    1.2099 N.ar    1  UNL1       -0.0452
      7 N           5.0706   -0.6847    1.7740 N.ar    1  UNL1       -0.1056
      8 C           4.1877   -0.4716    0.8164 C.ar    1  UNL1        0.2313
      9 C           2.8810    0.2110    1.0855 C.ar    1  UNL1        0.1758
     10 N           2.3543    1.2734    1.0762 N.ar    1  UNL1       -0.1346
     11 N           1.1220    1.5270    1.3880 N.ar    1  UNL1       -0.1030
     12 C           0.3625    0.6664    1.7321 C.ar    1  UNL1        0.2772
     13 O          -1.0296    0.4981    2.1521 O.3     1  UNL1       -0.4703
     14 C          -1.7881    1.6629    2.1932 C.3     1  UNL1        0.0948
     15 C          -1.8665    2.3378    0.8213 C.3     1  UNL1        0.0157
     16 C          -2.5017    1.4039   -0.1842 C.3     1  UNL1        0.0927
     17 O          -3.7906    1.0845    0.2536 O.3     1  UNL1       -0.4907
     18 C          -4.6640    0.2585   -0.4084 C.ar    1  UNL1        0.1371
     19 C          -4.3037   -0.3273   -1.5924 C.ar    1  UNL1        0.0164
     20 C          -5.1634   -1.1638   -2.2809 C.ar    1  UNL1        0.1269
     21 F          -4.8142   -1.7446   -3.4490 F       1  UNL1       -0.2054
     22 C          -6.3990   -1.3795   -1.7190 C.ar    1  UNL1       -0.0252
     23 C          -6.7737   -0.8017   -0.5371 C.ar    1  UNL1       -0.0415
     24 C          -5.9061    0.0158    0.1158 C.ar    1  UNL1        0.0596
     25 BR         -6.4075    0.8375    1.7737 Br      1  UNL1       -0.0465
     26 S           1.4254   -0.8483    1.6568 S.2     1  UNL1       -0.0047
     27 N           4.6867   -0.9538   -0.3047 N.ar    1  UNL1       -0.1277
     28 H           7.7092    0.3311   -3.2527 H       1  UNL1        0.2951
     29 H           7.3302   -2.9352   -0.6206 H       1  UNL1        0.0644
     30 H           6.0685   -2.5874   -1.8143 H       1  UNL1        0.0644
     31 H          -1.4049    2.4180    2.9151 H       1  UNL1        0.0698
     32 H          -2.8048    1.4018    2.5332 H       1  UNL1        0.0698
     33 H          -0.8288    2.5253    0.4612 H       1  UNL1        0.0331
     34 H          -2.3789    3.2967    0.8693 H       1  UNL1        0.0331
     35 H          -2.5765    1.9714   -1.1396 H       1  UNL1        0.0697
     36 H          -1.8473    0.5086   -0.2891 H       1  UNL1        0.0697
     37 H          -3.3289   -0.1737   -2.0618 H       1  UNL1        0.0683
     38 H          -7.1238   -2.0322   -2.2168 H       1  UNL1        0.0646
     39 H          -7.7461   -0.9668   -0.0874 H       1  UNL1        0.0631
@<TRIPOS>BOND
     1     1     2    2
     2     2     3    1
     3     2     4    1
     4     4     5    1
     5     5     6   ar
     6     6     7   ar
     7     7     8   ar
     8     8     9    1
     9     9    10   ar
    10    10    11   ar
    11    11    12   ar
    12    12    13    1
    13    13    14    1
    14    14    15    1
    15    15    16    1
    16    16    17    1
    17    17    18    1
    18    18    19   ar
    19    19    20   ar
    20    20    21    1
    21    20    22   ar
    22    22    23   ar
    23    23    24   ar
    24    24    25    1
    25    12    26   ar
    26     8    27   ar
    27    27     5   ar
    28    26     9   ar
    29    24    18   ar
    30     3    28    1
    31     4    29    1
    32     4    30    1
    33    14    31    1
    34    14    32    1
    35    15    33    1
    36    15    34    1
    37    16    35    1
    38    16    36    1
    39    19    37    1
    40    22    38    1
    41    23    39    1
