
     RDKit          3D

 39 41  0  0  0  0  0  0  0  0999 V2000
    8.7190   -0.8220   -1.1629 O   0  0  0  0  0  0  0  0  0  0  0  0
    7.6000   -1.0697   -1.6696 C   0  0  0  0  0  0  0  0  0  0  0  0
    7.1692   -0.3699   -2.7758 O   0  0  0  0  0  0  0  0  0  0  0  0
    6.7457   -2.1064   -1.0852 C   0  0  0  0  0  0  0  0  0  0  0  0
    5.9009   -1.4848   -0.0816 N   0  0  0  0  0  0  0  0  0  0  0  0
    6.1153   -1.3062    1.2099 N   0  0  0  0  0  0  0  0  0  0  0  0
    5.0706   -0.6847    1.7740 N   0  0  0  0  0  0  0  0  0  0  0  0
    4.1877   -0.4716    0.8164 C   0  0  0  0  0  0  0  0  0  0  0  0
    2.8810    0.2110    1.0855 C   0  0  0  0  0  0  0  0  0  0  0  0
    2.3543    1.2734    1.0762 N   0  0  0  0  0  0  0  0  0  0  0  0
    1.1220    1.5270    1.3880 N   0  0  0  0  0  0  0  0  0  0  0  0
    0.3625    0.6664    1.7321 C   0  0  0  0  0  0  0  0  0  0  0  0
   -1.0296    0.4981    2.1521 O   0  0  0  0  0  0  0  0  0  0  0  0
   -1.7881    1.6629    2.1932 C   0  0  0  0  0  0  0  0  0  0  0  0
   -1.8665    2.3378    0.8213 C   0  0  0  0  0  0  0  0  0  0  0  0
   -2.5017    1.4039   -0.1842 C   0  0  0  0  0  0  0  0  0  0  0  0
   -3.7906    1.0845    0.2536 O   0  0  0  0  0  0  0  0  0  0  0  0
   -4.6640    0.2585   -0.4084 C   0  0  0  0  0  0  0  0  0  0  0  0
   -4.3037   -0.3273   -1.5924 C   0  0  0  0  0  0  0  0  0  0  0  0
   -5.1634   -1.1638   -2.2809 C   0  0  0  0  0  0  0  0  0  0  0  0
   -4.8142   -1.7446   -3.4490 F   0  0  0  0  0  0  0  0  0  0  0  0
   -6.3990   -1.3795   -1.7190 C   0  0  0  0  0  0  0  0  0  0  0  0
   -6.7737   -0.8017   -0.5371 C   0  0  0  0  0  0  0  0  0  0  0  0
   -5.9061    0.0158    0.1158 C   0  0  0  0  0  0  0  0  0  0  0  0
   -6.4075    0.8375    1.7737 Br  0  0  0  0  0  0  0  0  0  0  0  0
    1.4254   -0.8483    1.6568 S   0  0  0  0  0  0  0  0  0  0  0  0
    4.6867   -0.9538   -0.3047 N   0  0  0  0  0  0  0  0  0  0  0  0
    7.7092    0.3311   -3.2527 H   0  0  0  0  0  0  0  0  0  0  0  0
    7.3302   -2.9352   -0.6206 H   0  0  0  0  0  0  0  0  0  0  0  0
    6.0685   -2.5874   -1.8143 H   0  0  0  0  0  0  0  0  0  0  0  0
   -1.4049    2.4180    2.9151 H   0  0  0  0  0  0  0  0  0  0  0  0
   -2.8048    1.4018    2.5332 H   0  0  0  0  0  0  0  0  0  0  0  0
   -0.8288    2.5253    0.4612 H   0  0  0  0  0  0  0  0  0  0  0  0
   -2.3789    3.2967    0.8693 H   0  0  0  0  0  0  0  0  0  0  0  0
   -2.5765    1.9714   -1.1396 H   0  0  0  0  0  0  0  0  0  0  0  0
   -1.8473    0.5086   -0.2891 H   0  0  0  0  0  0  0  0  0  0  0  0
   -3.3289   -0.1737   -2.0618 H   0  0  0  0  0  0  0  0  0  0  0  0
   -7.1238   -2.0322   -2.2168 H   0  0  0  0  0  0  0  0  0  0  0  0
   -7.7461   -0.9668   -0.0874 H   0  0  0  0  0  0  0  0  0  0  0  0
  1  2  2  0
  2  3  1  0
  2  4  1  0
  4  5  1  0
  5  6  1  0
  6  7  2  0
  7  8  1  0
  8  9  1  0
  9 10  2  0
 10 11  1  0
 11 12  2  0
 12 13  1  0
 13 14  1  0
 14 15  1  0
 15 16  1  0
 16 17  1  0
 17 18  1  0
 18 19  2  0
 19 20  1  0
 20 21  1  0
 20 22  2  0
 22 23  1  0
 23 24  2  0
 24 25  1  0
 12 26  1  0
  8 27  2  0
 27  5  1  0
 26  9  1  0
 24 18  1  0
  3 28  1  0
  4 29  1  0
  4 30  1  0
 14 31  1  0
 14 32  1  0
 15 33  1  0
 15 34  1  0
 16 35  1  0
 16 36  1  0
 19 37  1  0
 22 38  1  0
 23 39  1  0
M  END
$$$$
