@<TRIPOS>MOLECULE
*****
 68 72 0 0 0
SMALL
GASTEIGER

@<TRIPOS>ATOM
      1 C          -6.2212   -2.8998    2.5207 C.3     1  UNL1        0.0788
      2 O          -5.2510   -2.1070    1.9098 O.3     1  UNL1       -0.4944
      3 C          -5.4897   -1.2357    0.8671 C.ar    1  UNL1        0.1316
      4 C          -6.7742   -1.1310    0.3847 C.ar    1  UNL1       -0.0192
      5 C          -7.0679   -0.2622   -0.6710 C.ar    1  UNL1       -0.0576
      6 C          -6.0170    0.4677   -1.1887 C.ar    1  UNL1       -0.0500
      7 C          -4.7360    0.3901   -0.7375 C.ar    1  UNL1        0.0367
      8 C          -4.4733   -0.4861    0.3174 C.ar    1  UNL1        0.0748
      9 C          -3.0990   -0.5547    0.7857 C.2     1  UNL1        0.2016
     10 O          -2.8533   -1.3403    1.7347 O.2     1  UNL1       -0.2864
     11 C          -2.0183    0.2350    0.2099 C.ar    1  UNL1        0.0784
     12 C          -0.6973    0.1674    0.6629 C.ar    1  UNL1        0.1345
     13 O          -0.4323   -0.7034    1.7130 O.3     1  UNL1       -0.5057
     14 C           0.3053    0.9130    0.1156 C.ar    1  UNL1        0.0302
     15 C           0.0099    1.7683   -0.9245 C.ar    1  UNL1        0.0070
     16 C          -1.2725    1.8600   -1.3938 C.ar    1  UNL1        0.1322
     17 O          -1.6031    2.7044   -2.4323 O.3     1  UNL1       -0.5057
     18 C          -2.3040    1.0928   -0.8310 C.ar    1  UNL1        0.0782
     19 C          -3.6713    1.1923   -1.3318 C.2     1  UNL1        0.1982
     20 O          -3.9264    1.9679   -2.2719 O.2     1  UNL1       -0.2865
     21 C           1.1195    2.5709   -1.4920 C.3     1  UNL1        0.0123
     22 C           1.8243    3.1756   -0.2685 C.3     1  UNL1        0.1325
     23 O           2.8352    4.0481   -0.6900 O.3     1  UNL1       -0.3806
     24 C           0.8164    3.9427    0.4715 C.2     1  UNL1        0.1900
     25 O          -0.1910    3.4693    0.9704 O.2     1  UNL1       -0.2919
     26 C           0.9989    5.4096    0.6492 C.3     1  UNL1        0.1051
     27 O          -0.0348    6.0019    1.3696 O.3     1  UNL1       -0.3874
     28 C           2.4633    2.0789    0.4982 C.3     1  UNL1        0.0141
     29 C           1.7096    0.8047    0.6369 C.3     1  UNL1        0.0934
     30 O           2.2911   -0.2396   -0.1045 O.3     1  UNL1       -0.3432
     31 C           2.6936   -1.2885    0.6841 C.3     1  UNL1        0.1618
     32 C           2.1107   -2.6085    0.3527 C.3     1  UNL1        0.0161
     33 C           2.8015   -3.3989   -0.6975 C.3     1  UNL1        0.0382
     34 N           2.9671   -4.7694   -0.1945 N.3     1  UNL1       -0.3249
     35 C           4.1301   -2.9119   -1.1258 C.3     1  UNL1        0.0963
     36 O           5.1642   -3.7482   -0.6419 O.3     1  UNL1       -0.3877
     37 C           4.4668   -1.5196   -0.6533 C.3     1  UNL1        0.0861
     38 C           5.9692   -1.3374   -0.8575 C.3     1  UNL1       -0.0361
     39 O           4.1018   -1.4370    0.6705 O.3     1  UNL1       -0.3457
     40 H          -6.4010   -3.7779    1.8436 H       1  UNL1        0.0660
     41 H          -5.8148   -3.3101    3.4680 H       1  UNL1        0.0660
     42 H          -7.1884   -2.3733    2.6610 H       1  UNL1        0.0660
     43 H          -7.6139   -1.6914    0.7729 H       1  UNL1        0.0654
     44 H          -8.0674   -0.1596   -1.0699 H       1  UNL1        0.0619
     45 H          -6.2245    1.1484   -2.0095 H       1  UNL1        0.0625
     46 H          -0.5611   -1.6921    1.5859 H       1  UNL1        0.2922
     47 H          -0.9535    2.8376   -3.1778 H       1  UNL1        0.2922
     48 H           0.7699    3.3517   -2.1757 H       1  UNL1        0.0347
     49 H           1.8579    1.8794   -1.9645 H       1  UNL1        0.0347
     50 H           3.6669    3.9112   -0.1741 H       1  UNL1        0.2108
     51 H           1.9415    5.5969    1.2417 H       1  UNL1        0.0637
     52 H           1.0762    5.9506   -0.3111 H       1  UNL1        0.0637
     53 H          -0.4493    5.3843    2.0158 H       1  UNL1        0.2100
     54 H           2.7153    2.5049    1.5164 H       1  UNL1        0.0326
     55 H           3.4696    1.8965    0.0465 H       1  UNL1        0.0326
     56 H           1.7230    0.5057    1.7050 H       1  UNL1        0.0649
     57 H           2.4238   -1.0176    1.7478 H       1  UNL1        0.0910
     58 H           2.0106   -3.1886    1.3170 H       1  UNL1        0.0330
     59 H           1.0445   -2.4731    0.0036 H       1  UNL1        0.0330
     60 H           2.1754   -3.5266   -1.6300 H       1  UNL1        0.0486
     61 H           2.0054   -5.0838    0.0787 H       1  UNL1        0.1186
     62 H           3.5507   -4.7095    0.6705 H       1  UNL1        0.1186
     63 H           4.2687   -2.9128   -2.2351 H       1  UNL1        0.0635
     64 H           4.9538   -4.6582   -0.9249 H       1  UNL1        0.2100
     65 H           3.9272   -0.7344   -1.2117 H       1  UNL1        0.0620
     66 H           6.3675   -0.4884   -0.2802 H       1  UNL1        0.0255
     67 H           6.5098   -2.2877   -0.5998 H       1  UNL1        0.0255
     68 H           6.1711   -1.1633   -1.9270 H       1  UNL1        0.0255
@<TRIPOS>BOND
     1     1     2    1
     2     2     3    1
     3     3     4   ar
     4     4     5   ar
     5     5     6   ar
     6     6     7   ar
     7     7     8   ar
     8     8     9    1
     9     9    10    2
    10     9    11    1
    11    11    12   ar
    12    12    13    1
    13    12    14   ar
    14    14    15   ar
    15    15    16   ar
    16    16    17    1
    17    16    18   ar
    18    18    19    1
    19    19    20    2
    20    15    21    1
    21    21    22    1
    22    22    23    1
    23    22    24    1
    24    24    25    2
    25    24    26    1
    26    26    27    1
    27    22    28    1
    28    28    29    1
    29    29    30    1
    30    30    31    1
    31    31    32    1
    32    32    33    1
    33    33    34    1
    34    33    35    1
    35    35    36    1
    36    35    37    1
    37    37    38    1
    38    37    39    1
    39     8     3   ar
    40    18    11   ar
    41    39    31    1
    42    19     7    1
    43    29    14    1
    44     1    40    1
    45     1    41    1
    46     1    42    1
    47     4    43    1
    48     5    44    1
    49     6    45    1
    50    13    46    1
    51    17    47    1
    52    21    48    1
    53    21    49    1
    54    23    50    1
    55    26    51    1
    56    26    52    1
    57    27    53    1
    58    28    54    1
    59    28    55    1
    60    29    56    1
    61    31    57    1
    62    32    58    1
    63    32    59    1
    64    33    60    1
    65    34    61    1
    66    34    62    1
    67    35    63    1
    68    36    64    1
    69    37    65    1
    70    38    66    1
    71    38    67    1
    72    38    68    1
