
     RDKit          3D

 68 72  0  0  0  0  0  0  0  0999 V2000
   -6.2212   -2.8998    2.5207 C   0  0  0  0  0  0  0  0  0  0  0  0
   -5.2510   -2.1070    1.9098 O   0  0  0  0  0  0  0  0  0  0  0  0
   -5.4897   -1.2357    0.8671 C   0  0  0  0  0  0  0  0  0  0  0  0
   -6.7742   -1.1310    0.3847 C   0  0  0  0  0  0  0  0  0  0  0  0
   -7.0679   -0.2622   -0.6710 C   0  0  0  0  0  0  0  0  0  0  0  0
   -6.0170    0.4677   -1.1887 C   0  0  0  0  0  0  0  0  0  0  0  0
   -4.7360    0.3901   -0.7375 C   0  0  0  0  0  0  0  0  0  0  0  0
   -4.4733   -0.4861    0.3174 C   0  0  0  0  0  0  0  0  0  0  0  0
   -3.0990   -0.5547    0.7857 C   0  0  0  0  0  0  0  0  0  0  0  0
   -2.8533   -1.3403    1.7347 O   0  0  0  0  0  0  0  0  0  0  0  0
   -2.0183    0.2350    0.2099 C   0  0  0  0  0  0  0  0  0  0  0  0
   -0.6973    0.1674    0.6629 C   0  0  0  0  0  0  0  0  0  0  0  0
   -0.4323   -0.7034    1.7130 O   0  0  0  0  0  0  0  0  0  0  0  0
    0.3053    0.9130    0.1156 C   0  0  0  0  0  0  0  0  0  0  0  0
    0.0099    1.7683   -0.9245 C   0  0  0  0  0  0  0  0  0  0  0  0
   -1.2725    1.8600   -1.3938 C   0  0  0  0  0  0  0  0  0  0  0  0
   -1.6031    2.7044   -2.4323 O   0  0  0  0  0  0  0  0  0  0  0  0
   -2.3040    1.0928   -0.8310 C   0  0  0  0  0  0  0  0  0  0  0  0
   -3.6713    1.1923   -1.3318 C   0  0  0  0  0  0  0  0  0  0  0  0
   -3.9264    1.9679   -2.2719 O   0  0  0  0  0  0  0  0  0  0  0  0
    1.1195    2.5709   -1.4920 C   0  0  0  0  0  0  0  0  0  0  0  0
    1.8243    3.1756   -0.2685 C   0  0  1  0  0  0  0  0  0  0  0  0
    2.8352    4.0481   -0.6900 O   0  0  0  0  0  0  0  0  0  0  0  0
    0.8164    3.9427    0.4715 C   0  0  0  0  0  0  0  0  0  0  0  0
   -0.1910    3.4693    0.9704 O   0  0  0  0  0  0  0  0  0  0  0  0
    0.9989    5.4096    0.6492 C   0  0  0  0  0  0  0  0  0  0  0  0
   -0.0348    6.0019    1.3696 O   0  0  0  0  0  0  0  0  0  0  0  0
    2.4633    2.0789    0.4982 C   0  0  0  0  0  0  0  0  0  0  0  0
    1.7096    0.8047    0.6369 C   0  0  2  0  0  0  0  0  0  0  0  0
    2.2911   -0.2396   -0.1045 O   0  0  0  0  0  0  0  0  0  0  0  0
    2.6936   -1.2885    0.6841 C   0  0  1  0  0  0  0  0  0  0  0  0
    2.1107   -2.6085    0.3527 C   0  0  0  0  0  0  0  0  0  0  0  0
    2.8015   -3.3989   -0.6975 C   0  0  2  0  0  0  0  0  0  0  0  0
    2.9671   -4.7694   -0.1945 N   0  0  0  0  0  0  0  0  0  0  0  0
    4.1301   -2.9119   -1.1258 C   0  0  2  0  0  0  0  0  0  0  0  0
    5.1642   -3.7482   -0.6419 O   0  0  0  0  0  0  0  0  0  0  0  0
    4.4668   -1.5196   -0.6533 C   0  0  2  0  0  0  0  0  0  0  0  0
    5.9692   -1.3374   -0.8575 C   0  0  0  0  0  0  0  0  0  0  0  0
    4.1018   -1.4370    0.6705 O   0  0  0  0  0  0  0  0  0  0  0  0
   -6.4010   -3.7779    1.8436 H   0  0  0  0  0  0  0  0  0  0  0  0
   -5.8148   -3.3101    3.4680 H   0  0  0  0  0  0  0  0  0  0  0  0
   -7.1884   -2.3733    2.6610 H   0  0  0  0  0  0  0  0  0  0  0  0
   -7.6139   -1.6914    0.7729 H   0  0  0  0  0  0  0  0  0  0  0  0
   -8.0674   -0.1596   -1.0699 H   0  0  0  0  0  0  0  0  0  0  0  0
   -6.2245    1.1484   -2.0095 H   0  0  0  0  0  0  0  0  0  0  0  0
   -0.5611   -1.6921    1.5859 H   0  0  0  0  0  0  0  0  0  0  0  0
   -0.9535    2.8376   -3.1778 H   0  0  0  0  0  0  0  0  0  0  0  0
    0.7699    3.3517   -2.1757 H   0  0  0  0  0  0  0  0  0  0  0  0
    1.8579    1.8794   -1.9645 H   0  0  0  0  0  0  0  0  0  0  0  0
    3.6669    3.9112   -0.1741 H   0  0  0  0  0  0  0  0  0  0  0  0
    1.9415    5.5969    1.2417 H   0  0  0  0  0  0  0  0  0  0  0  0
    1.0762    5.9506   -0.3111 H   0  0  0  0  0  0  0  0  0  0  0  0
   -0.4493    5.3843    2.0158 H   0  0  0  0  0  0  0  0  0  0  0  0
    2.7153    2.5049    1.5164 H   0  0  0  0  0  0  0  0  0  0  0  0
    3.4696    1.8965    0.0465 H   0  0  0  0  0  0  0  0  0  0  0  0
    1.7230    0.5057    1.7050 H   0  0  0  0  0  0  0  0  0  0  0  0
    2.4238   -1.0176    1.7478 H   0  0  0  0  0  0  0  0  0  0  0  0
    2.0106   -3.1886    1.3170 H   0  0  0  0  0  0  0  0  0  0  0  0
    1.0445   -2.4731    0.0036 H   0  0  0  0  0  0  0  0  0  0  0  0
    2.1754   -3.5266   -1.6300 H   0  0  0  0  0  0  0  0  0  0  0  0
    2.0054   -5.0838    0.0787 H   0  0  0  0  0  0  0  0  0  0  0  0
    3.5507   -4.7095    0.6705 H   0  0  0  0  0  0  0  0  0  0  0  0
    4.2687   -2.9128   -2.2351 H   0  0  0  0  0  0  0  0  0  0  0  0
    4.9538   -4.6582   -0.9249 H   0  0  0  0  0  0  0  0  0  0  0  0
    3.9272   -0.7344   -1.2117 H   0  0  0  0  0  0  0  0  0  0  0  0
    6.3675   -0.4884   -0.2802 H   0  0  0  0  0  0  0  0  0  0  0  0
    6.5098   -2.2877   -0.5998 H   0  0  0  0  0  0  0  0  0  0  0  0
    6.1711   -1.1633   -1.9270 H   0  0  0  0  0  0  0  0  0  0  0  0
  1  2  1  0
  2  3  1  0
  3  4  2  0
  4  5  1  0
  5  6  2  0
  6  7  1  0
  7  8  2  0
  8  9  1  0
  9 10  2  0
  9 11  1  0
 11 12  2  0
 12 13  1  0
 12 14  1  0
 14 15  2  0
 15 16  1  0
 16 17  1  0
 16 18  2  0
 18 19  1  0
 19 20  2  0
 15 21  1  0
 21 22  1  0
 22 23  1  6
 22 24  1  0
 24 25  2  0
 24 26  1  0
 26 27  1  0
 22 28  1  0
 28 29  1  0
 29 30  1  0
 30 31  1  0
 31 32  1  0
 32 33  1  0
 33 34  1  0
 33 35  1  0
 35 36  1  0
 35 37  1  0
 37 38  1  0
 37 39  1  0
  8  3  1  0
 18 11  1  0
 39 31  1  0
 19  7  1  0
 29 14  1  0
  1 40  1  0
  1 41  1  0
  1 42  1  0
  4 43  1  0
  5 44  1  0
  6 45  1  0
 13 46  1  0
 17 47  1  0
 21 48  1  0
 21 49  1  0
 23 50  1  0
 26 51  1  0
 26 52  1  0
 27 53  1  0
 28 54  1  0
 28 55  1  0
 29 56  1  1
 31 57  1  1
 32 58  1  0
 32 59  1  0
 33 60  1  6
 34 61  1  0
 34 62  1  0
 35 63  1  6
 36 64  1  0
 37 65  1  6
 38 66  1  0
 38 67  1  0
 38 68  1  0
M  END
$$$$
