@<TRIPOS>MOLECULE
*****
 41 42 0 0 0
SMALL
GASTEIGER

@<TRIPOS>ATOM
      1 C          -5.6590    1.6600    0.5954 C.3     1  UNL1       -0.0587
      2 C          -5.4521    0.2659    0.0961 C.3     1  UNL1       -0.0215
      3 C          -5.6957    0.2408   -1.3950 C.3     1  UNL1       -0.0587
      4 C          -4.0191   -0.0931    0.3791 C.ar    1  UNL1       -0.0448
      5 C          -3.0727    0.7710   -0.1629 C.ar    1  UNL1       -0.0580
      6 C          -1.7315    0.5267    0.0413 C.ar    1  UNL1       -0.0570
      7 C          -1.3013   -0.5788    0.7866 C.ar    1  UNL1       -0.0320
      8 C           0.1428   -0.7495    0.9452 C.3     1  UNL1        0.0387
      9 N           0.7689   -1.5416   -0.0809 N.3     1  UNL1       -0.2360
     10 N           2.1515   -1.5924    0.2426 N.am    1  UNL1       -0.2466
     11 C           2.7957   -0.4978   -0.3843 C.2     1  UNL1        0.2576
     12 O           2.0295    0.2404   -1.0575 O.2     1  UNL1       -0.2689
     13 C           4.2181   -0.1812   -0.3081 C.ar    1  UNL1        0.0382
     14 C           4.6181    0.9409   -1.0051 C.ar    1  UNL1       -0.0461
     15 C           5.9561    1.3367   -1.0016 C.ar    1  UNL1       -0.0195
     16 C           6.8480    0.5718   -0.2837 C.ar    1  UNL1        0.1169
     17 O           8.1964    0.8682   -0.2088 O.3     1  UNL1       -0.5068
     18 C           6.4122   -0.5466    0.4034 C.ar    1  UNL1       -0.0195
     19 C           5.0910   -0.9468    0.4064 C.ar    1  UNL1       -0.0461
     20 C          -2.2586   -1.4191    1.3124 C.ar    1  UNL1       -0.0570
     21 C          -3.6027   -1.1842    1.1144 C.ar    1  UNL1       -0.0580
     22 H          -5.1040    1.8416    1.5382 H       1  UNL1        0.0235
     23 H          -6.7289    1.8369    0.7299 H       1  UNL1        0.0235
     24 H          -5.2690    2.3445   -0.2063 H       1  UNL1        0.0235
     25 H          -6.1217   -0.4865    0.5728 H       1  UNL1        0.0343
     26 H          -4.8037    0.5245   -1.9931 H       1  UNL1        0.0235
     27 H          -6.0211   -0.7947   -1.6596 H       1  UNL1        0.0235
     28 H          -6.4965    0.9724   -1.6386 H       1  UNL1        0.0235
     29 H          -3.3840    1.6467   -0.7523 H       1  UNL1        0.0620
     30 H          -1.0437    1.2349   -0.4057 H       1  UNL1        0.0621
     31 H           0.6504    0.2580    0.9220 H       1  UNL1        0.0490
     32 H           0.4090   -1.2300    1.9180 H       1  UNL1        0.0490
     33 H           0.3736   -2.4968   -0.0659 H       1  UNL1        0.1446
     34 H           2.7710   -2.2366    0.8198 H       1  UNL1        0.1693
     35 H           3.9370    1.5757   -1.5887 H       1  UNL1        0.0626
     36 H           6.2885    2.2109   -1.5403 H       1  UNL1        0.0654
     37 H           8.5495    1.7999   -0.2868 H       1  UNL1        0.2921
     38 H           7.1052   -1.1691    0.9808 H       1  UNL1        0.0654
     39 H           4.7657   -1.8309    0.9535 H       1  UNL1        0.0626
     40 H          -1.9359   -2.2753    1.8893 H       1  UNL1        0.0621
     41 H          -4.3771   -1.8172    1.5088 H       1  UNL1        0.0620
@<TRIPOS>BOND
     1     1     2    1
     2     2     3    1
     3     2     4    1
     4     4     5   ar
     5     5     6   ar
     6     6     7   ar
     7     7     8    1
     8     8     9    1
     9     9    10    1
    10    10    11   am
    11    11    12    2
    12    11    13    1
    13    13    14   ar
    14    14    15   ar
    15    15    16   ar
    16    16    17    1
    17    16    18   ar
    18    18    19   ar
    19     7    20   ar
    20    20    21   ar
    21    21     4   ar
    22    19    13   ar
    23     1    22    1
    24     1    23    1
    25     1    24    1
    26     2    25    1
    27     3    26    1
    28     3    27    1
    29     3    28    1
    30     5    29    1
    31     6    30    1
    32     8    31    1
    33     8    32    1
    34     9    33    1
    35    10    34    1
    36    14    35    1
    37    15    36    1
    38    17    37    1
    39    18    38    1
    40    19    39    1
    41    20    40    1
    42    21    41    1
