@<TRIPOS>MOLECULE
*****
 62 64 0 0 0
SMALL
GASTEIGER

@<TRIPOS>ATOM
      1 C           1.2199   -2.5818    0.9290 C.3     1  UNL1        0.1022
      2 C           1.6884   -3.3375   -0.2773 C.3     1  UNL1       -0.0243
      3 C           1.1822   -2.5752   -1.4650 C.3     1  UNL1       -0.0350
      4 C           0.2829   -1.5185   -0.8564 C.3     1  UNL1        0.0156
      5 N          -0.0370   -1.9989    0.4963 N.am    1  UNL1       -0.2889
      6 C          -1.1636   -2.0344    1.4032 C.2     1  UNL1        0.2301
      7 O          -1.1109   -2.5414    2.5610 O.2     1  UNL1       -0.2742
      8 C          -2.5647   -1.5689    1.3301 C.3     1  UNL1        0.0736
      9 N          -2.9005   -0.9391    0.0571 N.3     1  UNL1       -0.3054
     10 C          -4.3058   -0.4783    0.0892 C.3     1  UNL1        0.0081
     11 C          -4.5180    0.5078    1.1666 C.3     1  UNL1       -0.0375
     12 C          -5.5389    1.5581    0.9668 C.3     1  UNL1       -0.0516
     13 C          -6.7005    1.1211    0.0981 C.3     1  UNL1       -0.0530
     14 C          -6.3998    1.6505   -1.2879 C.3     1  UNL1       -0.0530
     15 C          -4.9456    1.2979   -1.6017 C.3     1  UNL1       -0.0516
     16 C          -4.7953   -0.1509   -1.2684 C.3     1  UNL1       -0.0375
     17 C           2.1776   -1.6282    1.4848 C.2     1  UNL1        0.2338
     18 O           3.2545   -2.1955    1.8018 O.2     1  UNL1       -0.2738
     19 N           2.0412   -0.2320    1.6938 N.am    1  UNL1       -0.3097
     20 C           3.0126    0.6745    2.2447 C.3     1  UNL1        0.0369
     21 C           4.0527    0.9850    1.2515 C.ar    1  UNL1       -0.0303
     22 C           3.9369    2.0244    0.3599 C.ar    1  UNL1       -0.0563
     23 C           4.8594    2.3798   -0.5884 C.ar    1  UNL1       -0.0466
     24 C           6.0272    1.6308   -0.6710 C.ar    1  UNL1        0.0647
     25 C           6.1920    0.5766    0.2015 C.ar    1  UNL1       -0.0466
     26 C           5.2365    0.2733    1.1233 C.ar    1  UNL1       -0.0563
     27 C           7.0403    1.9677   -1.6605 C.2     1  UNL1        0.3081
     28 N           7.7917    0.8643   -2.1491 N.pl3   1  UNL1       -0.2466
     29 N           7.3213    3.1170   -2.1273 N.2     1  UNL1       -0.0994
     30 H           1.0732   -3.3650    1.7349 H       1  UNL1        0.0597
     31 H           2.7602   -3.5272   -0.2965 H       1  UNL1        0.0288
     32 H           1.1963   -4.3506   -0.2666 H       1  UNL1        0.0288
     33 H           2.0095   -2.1323   -2.0772 H       1  UNL1        0.0281
     34 H           0.6514   -3.2619   -2.1551 H       1  UNL1        0.0281
     35 H          -0.6048   -1.4704   -1.5156 H       1  UNL1        0.0465
     36 H           0.7251   -0.5232   -0.8697 H       1  UNL1        0.0465
     37 H          -2.8522   -0.8630    2.1398 H       1  UNL1        0.0520
     38 H          -3.2604   -2.4540    1.3837 H       1  UNL1        0.0520
     39 H          -2.8240   -1.6539   -0.7290 H       1  UNL1        0.1226
     40 H          -4.8619   -1.4078    0.4186 H       1  UNL1        0.0460
     41 H          -3.5335    1.0401    1.3267 H       1  UNL1        0.0280
     42 H          -4.6973    0.0188    2.1651 H       1  UNL1        0.0280
     43 H          -5.9699    1.8341    1.9510 H       1  UNL1        0.0266
     44 H          -5.1065    2.5331    0.5938 H       1  UNL1        0.0266
     45 H          -6.7967    0.0305    0.1341 H       1  UNL1        0.0265
     46 H          -7.6706    1.5484    0.4263 H       1  UNL1        0.0265
     47 H          -6.6160    2.7157   -1.3465 H       1  UNL1        0.0265
     48 H          -7.0270    1.0611   -1.9897 H       1  UNL1        0.0265
     49 H          -4.2190    1.9695   -1.1537 H       1  UNL1        0.0266
     50 H          -4.8594    1.4274   -2.7048 H       1  UNL1        0.0266
     51 H          -4.0441   -0.5585   -2.0078 H       1  UNL1        0.0280
     52 H          -5.7288   -0.6856   -1.5235 H       1  UNL1        0.0280
     53 H           1.0928    0.1284    1.3931 H       1  UNL1        0.1491
     54 H           2.5035    1.6258    2.5001 H       1  UNL1        0.0512
     55 H           3.4750    0.2523    3.1717 H       1  UNL1        0.0512
     56 H           3.0519    2.6683    0.3520 H       1  UNL1        0.0621
     57 H           4.7709    3.1895   -1.2844 H       1  UNL1        0.0626
     58 H           7.1165    0.0198    0.1026 H       1  UNL1        0.0626
     59 H           5.4386   -0.5558    1.7654 H       1  UNL1        0.0621
     60 H           8.4176    0.1054   -2.4685 H       1  UNL1        0.2884
     61 H           7.2047    0.1655   -2.6214 H       1  UNL1        0.2884
     62 H           6.8479    3.9993   -1.8545 H       1  UNL1        0.3633
@<TRIPOS>BOND
     1     1     2    1
     2     2     3    1
     3     3     4    1
     4     4     5    1
     5     5     6   am
     6     6     7    2
     7     6     8    1
     8     8     9    1
     9     9    10    1
    10    10    11    1
    11    11    12    1
    12    12    13    1
    13    13    14    1
    14    14    15    1
    15    15    16    1
    16     1    17    1
    17    17    18    2
    18    17    19   am
    19    19    20    1
    20    20    21    1
    21    21    22   ar
    22    22    23   ar
    23    23    24   ar
    24    24    25   ar
    25    25    26   ar
    26    24    27    1
    27    27    28    1
    28    27    29    2
    29     5     1    1
    30    16    10    1
    31    26    21   ar
    32     1    30    1
    33     2    31    1
    34     2    32    1
    35     3    33    1
    36     3    34    1
    37     4    35    1
    38     4    36    1
    39     8    37    1
    40     8    38    1
    41     9    39    1
    42    10    40    1
    43    11    41    1
    44    11    42    1
    45    12    43    1
    46    12    44    1
    47    13    45    1
    48    13    46    1
    49    14    47    1
    50    14    48    1
    51    15    49    1
    52    15    50    1
    53    16    51    1
    54    16    52    1
    55    19    53    1
    56    20    54    1
    57    20    55    1
    58    22    56    1
    59    23    57    1
    60    25    58    1
    61    26    59    1
    62    28    60    1
    63    28    61    1
    64    29    62    1
