
     RDKit          3D

 62 64  0  0  0  0  0  0  0  0999 V2000
    1.2199   -2.5818    0.9290 C   0  0  2  0  0  0  0  0  0  0  0  0
    1.6884   -3.3375   -0.2773 C   0  0  0  0  0  0  0  0  0  0  0  0
    1.1822   -2.5752   -1.4650 C   0  0  0  0  0  0  0  0  0  0  0  0
    0.2829   -1.5185   -0.8564 C   0  0  0  0  0  0  0  0  0  0  0  0
   -0.0370   -1.9989    0.4963 N   0  0  0  0  0  0  0  0  0  0  0  0
   -1.1636   -2.0344    1.4032 C   0  0  0  0  0  0  0  0  0  0  0  0
   -1.1109   -2.5414    2.5610 O   0  0  0  0  0  0  0  0  0  0  0  0
   -2.5647   -1.5689    1.3301 C   0  0  0  0  0  0  0  0  0  0  0  0
   -2.9005   -0.9391    0.0571 N   0  0  0  0  0  0  0  0  0  0  0  0
   -4.3058   -0.4783    0.0892 C   0  0  0  0  0  0  0  0  0  0  0  0
   -4.5180    0.5078    1.1666 C   0  0  0  0  0  0  0  0  0  0  0  0
   -5.5389    1.5581    0.9668 C   0  0  0  0  0  0  0  0  0  0  0  0
   -6.7005    1.1211    0.0981 C   0  0  0  0  0  0  0  0  0  0  0  0
   -6.3998    1.6505   -1.2879 C   0  0  0  0  0  0  0  0  0  0  0  0
   -4.9456    1.2979   -1.6017 C   0  0  0  0  0  0  0  0  0  0  0  0
   -4.7953   -0.1509   -1.2684 C   0  0  0  0  0  0  0  0  0  0  0  0
    2.1776   -1.6282    1.4848 C   0  0  0  0  0  0  0  0  0  0  0  0
    3.2545   -2.1955    1.8018 O   0  0  0  0  0  0  0  0  0  0  0  0
    2.0412   -0.2320    1.6938 N   0  0  0  0  0  0  0  0  0  0  0  0
    3.0126    0.6745    2.2447 C   0  0  0  0  0  0  0  0  0  0  0  0
    4.0527    0.9850    1.2515 C   0  0  0  0  0  0  0  0  0  0  0  0
    3.9369    2.0244    0.3599 C   0  0  0  0  0  0  0  0  0  0  0  0
    4.8594    2.3798   -0.5884 C   0  0  0  0  0  0  0  0  0  0  0  0
    6.0272    1.6308   -0.6710 C   0  0  0  0  0  0  0  0  0  0  0  0
    6.1920    0.5766    0.2015 C   0  0  0  0  0  0  0  0  0  0  0  0
    5.2365    0.2733    1.1233 C   0  0  0  0  0  0  0  0  0  0  0  0
    7.0403    1.9677   -1.6605 C   0  0  0  0  0  0  0  0  0  0  0  0
    7.7917    0.8643   -2.1491 N   0  0  0  0  0  0  0  0  0  0  0  0
    7.3213    3.1170   -2.1273 N   0  0  0  0  0  0  0  0  0  0  0  0
    1.0732   -3.3650    1.7349 H   0  0  0  0  0  0  0  0  0  0  0  0
    2.7602   -3.5272   -0.2965 H   0  0  0  0  0  0  0  0  0  0  0  0
    1.1963   -4.3506   -0.2666 H   0  0  0  0  0  0  0  0  0  0  0  0
    2.0095   -2.1323   -2.0772 H   0  0  0  0  0  0  0  0  0  0  0  0
    0.6514   -3.2619   -2.1551 H   0  0  0  0  0  0  0  0  0  0  0  0
   -0.6048   -1.4704   -1.5156 H   0  0  0  0  0  0  0  0  0  0  0  0
    0.7251   -0.5232   -0.8697 H   0  0  0  0  0  0  0  0  0  0  0  0
   -2.8522   -0.8630    2.1398 H   0  0  0  0  0  0  0  0  0  0  0  0
   -3.2604   -2.4540    1.3837 H   0  0  0  0  0  0  0  0  0  0  0  0
   -2.8240   -1.6539   -0.7290 H   0  0  0  0  0  0  0  0  0  0  0  0
   -4.8619   -1.4078    0.4186 H   0  0  0  0  0  0  0  0  0  0  0  0
   -3.5335    1.0401    1.3267 H   0  0  0  0  0  0  0  0  0  0  0  0
   -4.6973    0.0188    2.1651 H   0  0  0  0  0  0  0  0  0  0  0  0
   -5.9699    1.8341    1.9510 H   0  0  0  0  0  0  0  0  0  0  0  0
   -5.1065    2.5331    0.5938 H   0  0  0  0  0  0  0  0  0  0  0  0
   -6.7967    0.0305    0.1341 H   0  0  0  0  0  0  0  0  0  0  0  0
   -7.6706    1.5484    0.4263 H   0  0  0  0  0  0  0  0  0  0  0  0
   -6.6160    2.7157   -1.3465 H   0  0  0  0  0  0  0  0  0  0  0  0
   -7.0270    1.0611   -1.9897 H   0  0  0  0  0  0  0  0  0  0  0  0
   -4.2190    1.9695   -1.1537 H   0  0  0  0  0  0  0  0  0  0  0  0
   -4.8594    1.4274   -2.7048 H   0  0  0  0  0  0  0  0  0  0  0  0
   -4.0441   -0.5585   -2.0078 H   0  0  0  0  0  0  0  0  0  0  0  0
   -5.7288   -0.6856   -1.5235 H   0  0  0  0  0  0  0  0  0  0  0  0
    1.0928    0.1284    1.3931 H   0  0  0  0  0  0  0  0  0  0  0  0
    2.5035    1.6258    2.5001 H   0  0  0  0  0  0  0  0  0  0  0  0
    3.4750    0.2523    3.1717 H   0  0  0  0  0  0  0  0  0  0  0  0
    3.0519    2.6683    0.3520 H   0  0  0  0  0  0  0  0  0  0  0  0
    4.7709    3.1895   -1.2844 H   0  0  0  0  0  0  0  0  0  0  0  0
    7.1165    0.0198    0.1026 H   0  0  0  0  0  0  0  0  0  0  0  0
    5.4386   -0.5558    1.7654 H   0  0  0  0  0  0  0  0  0  0  0  0
    8.4176    0.1054   -2.4685 H   0  0  0  0  0  0  0  0  0  0  0  0
    7.2047    0.1655   -2.6214 H   0  0  0  0  0  0  0  0  0  0  0  0
    6.8479    3.9993   -1.8545 H   0  0  0  0  0  0  0  0  0  0  0  0
  1  2  1  0
  2  3  1  0
  3  4  1  0
  4  5  1  0
  5  6  1  0
  6  7  2  0
  6  8  1  0
  8  9  1  0
  9 10  1  0
 10 11  1  0
 11 12  1  0
 12 13  1  0
 13 14  1  0
 14 15  1  0
 15 16  1  0
  1 17  1  0
 17 18  2  0
 17 19  1  0
 19 20  1  0
 20 21  1  0
 21 22  2  0
 22 23  1  0
 23 24  2  0
 24 25  1  0
 25 26  2  0
 24 27  1  0
 27 28  1  0
 27 29  2  3
  5  1  1  0
 16 10  1  0
 26 21  1  0
  1 30  1  1
  2 31  1  0
  2 32  1  0
  3 33  1  0
  3 34  1  0
  4 35  1  0
  4 36  1  0
  8 37  1  0
  8 38  1  0
  9 39  1  0
 10 40  1  0
 11 41  1  0
 11 42  1  0
 12 43  1  0
 12 44  1  0
 13 45  1  0
 13 46  1  0
 14 47  1  0
 14 48  1  0
 15 49  1  0
 15 50  1  0
 16 51  1  0
 16 52  1  0
 19 53  1  0
 20 54  1  0
 20 55  1  0
 22 56  1  0
 23 57  1  0
 25 58  1  0
 26 59  1  0
 28 60  1  0
 28 61  1  0
 29 62  1  0
M  END
$$$$
