
     RDKit          3D

 46 49  0  0  0  0  0  0  0  0999 V2000
   -6.1570   -1.2007    0.0455 C   0  0  0  0  0  0  0  0  0  0  0  0
   -5.5440   -1.5560   -1.1777 O   0  0  0  0  0  0  0  0  0  0  0  0
   -4.3793   -0.9177   -1.5648 C   0  0  0  0  0  0  0  0  0  0  0  0
   -3.7823   -1.2690   -2.7803 C   0  0  0  0  0  0  0  0  0  0  0  0
   -2.6182   -0.5999   -3.1234 C   0  0  0  0  0  0  0  0  0  0  0  0
   -2.0710    0.3672   -2.3074 C   0  0  0  0  0  0  0  0  0  0  0  0
   -2.6537    0.7179   -1.1079 C   0  0  0  0  0  0  0  0  0  0  0  0
   -2.0910    1.7538   -0.2327 C   0  0  0  0  0  0  0  0  0  0  0  0
   -0.9743    1.3442    0.5651 N   0  0  0  0  0  0  0  0  0  0  0  0
    0.2329    1.5280    0.0501 N   0  0  0  0  0  0  0  0  0  0  0  0
    1.3762    1.2205    0.6543 C   0  0  0  0  0  0  0  0  0  0  0  0
    2.6545    1.4414    0.0852 N   0  0  0  0  0  0  0  0  0  0  0  0
    3.3423    0.4307   -0.6081 C   0  0  0  0  0  0  0  0  0  0  0  0
    4.5701    0.5239   -1.2533 C   0  0  0  0  0  0  0  0  0  0  0  0
    4.8591   -0.7112   -1.7839 C   0  0  0  0  0  0  0  0  0  0  0  0
    6.0799   -1.1009   -2.5730 C   0  0  0  0  0  0  0  0  0  0  0  0
    3.8286   -1.5041   -1.4582 N   0  0  0  0  0  0  0  0  0  0  0  0
    2.9297   -0.8296   -0.7624 N   0  0  0  0  0  0  0  0  0  0  0  0
    1.2736    0.6619    1.9257 C   0  0  0  0  0  0  0  0  0  0  0  0
    2.4331    0.3274    2.5892 C   0  0  0  0  0  0  0  0  0  0  0  0
    2.3246   -0.2251    3.8478 C   0  0  0  0  0  0  0  0  0  0  0  0
    1.0618   -0.4323    4.4187 C   0  0  0  0  0  0  0  0  0  0  0  0
   -0.0891   -0.0900    3.7363 C   0  0  0  0  0  0  0  0  0  0  0  0
    0.0218    0.4665    2.4692 C   0  0  0  0  0  0  0  0  0  0  0  0
   -1.1226    0.8100    1.7859 C   0  0  0  0  0  0  0  0  0  0  0  0
   -2.2820    0.6277    2.2939 O   0  0  0  0  0  0  0  0  0  0  0  0
   -3.8117    0.0522   -0.7669 C   0  0  0  0  0  0  0  0  0  0  0  0
   -7.0299   -1.8918    0.2386 H   0  0  0  0  0  0  0  0  0  0  0  0
   -6.5180   -0.1405   -0.0403 H   0  0  0  0  0  0  0  0  0  0  0  0
   -5.3884   -1.2911    0.8381 H   0  0  0  0  0  0  0  0  0  0  0  0
   -4.1940   -2.0220   -3.4324 H   0  0  0  0  0  0  0  0  0  0  0  0
   -2.1006   -0.8248   -4.0555 H   0  0  0  0  0  0  0  0  0  0  0  0
   -1.1503    0.8641   -2.6227 H   0  0  0  0  0  0  0  0  0  0  0  0
   -1.8791    2.6422   -0.8770 H   0  0  0  0  0  0  0  0  0  0  0  0
   -2.8922    2.1323    0.4716 H   0  0  0  0  0  0  0  0  0  0  0  0
    3.1228    2.3770    0.1704 H   0  0  0  0  0  0  0  0  0  0  0  0
    5.1753    1.4012   -1.3227 H   0  0  0  0  0  0  0  0  0  0  0  0
    6.9493   -0.9218   -1.8894 H   0  0  0  0  0  0  0  0  0  0  0  0
    6.0156   -2.1354   -2.9003 H   0  0  0  0  0  0  0  0  0  0  0  0
    6.1289   -0.3554   -3.4205 H   0  0  0  0  0  0  0  0  0  0  0  0
    2.0152   -1.2030   -0.3732 H   0  0  0  0  0  0  0  0  0  0  0  0
    3.3790    0.5024    2.1125 H   0  0  0  0  0  0  0  0  0  0  0  0
    3.2202   -0.4850    4.3628 H   0  0  0  0  0  0  0  0  0  0  0  0
    1.0494   -0.8692    5.4091 H   0  0  0  0  0  0  0  0  0  0  0  0
   -1.0478   -0.2506    4.1789 H   0  0  0  0  0  0  0  0  0  0  0  0
   -4.2678    0.3366    0.1851 H   0  0  0  0  0  0  0  0  0  0  0  0
  1  2  1  0
  2  3  1  0
  3  4  2  0
  4  5  1  0
  5  6  2  0
  6  7  1  0
  7  8  1  0
  8  9  1  0
  9 10  1  0
 10 11  2  0
 11 12  1  0
 12 13  1  0
 13 14  2  0
 14 15  1  0
 15 16  1  0
 15 17  2  0
 17 18  1  0
 11 19  1  0
 19 20  2  0
 20 21  1  0
 21 22  2  0
 22 23  1  0
 23 24  2  0
 24 25  1  0
 25 26  2  0
  7 27  2  0
 27  3  1  0
 25  9  1  0
 18 13  1  0
 24 19  1  0
  1 28  1  0
  1 29  1  0
  1 30  1  0
  4 31  1  0
  5 32  1  0
  6 33  1  0
  8 34  1  0
  8 35  1  0
 12 36  1  0
 14 37  1  0
 16 38  1  0
 16 39  1  0
 16 40  1  0
 18 41  1  0
 20 42  1  0
 21 43  1  0
 22 44  1  0
 23 45  1  0
 27 46  1  0
M  END
$$$$
