@<TRIPOS>MOLECULE
*****
 46 49 0 0 0
SMALL
GASTEIGER

@<TRIPOS>ATOM
      1 C          -6.1570   -1.2007    0.0455 C.3     1  UNL1        0.0788
      2 O          -5.5440   -1.5560   -1.1777 O.3     1  UNL1       -0.4951
      3 C          -4.3793   -0.9177   -1.5648 C.ar    1  UNL1        0.1204
      4 C          -3.7823   -1.2690   -2.7803 C.ar    1  UNL1       -0.0199
      5 C          -2.6182   -0.5999   -3.1234 C.ar    1  UNL1       -0.0580
      6 C          -2.0710    0.3672   -2.3074 C.ar    1  UNL1       -0.0566
      7 C          -2.6537    0.7179   -1.1079 C.ar    1  UNL1       -0.0225
      8 C          -2.0910    1.7538   -0.2327 C.3     1  UNL1        0.0705
      9 N          -0.9743    1.3442    0.5651 N.ar    1  UNL1       -0.2228
     10 N           0.2329    1.5280    0.0501 N.ar    1  UNL1       -0.1520
     11 C           1.3762    1.2205    0.6543 C.ar    1  UNL1        0.1525
     12 N           2.6545    1.4414    0.0852 N.pl3   1  UNL1       -0.2829
     13 C           3.3423    0.4307   -0.6081 C.ar    1  UNL1        0.1196
     14 C           4.5701    0.5239   -1.2533 C.ar    1  UNL1        0.0006
     15 C           4.8591   -0.7112   -1.7839 C.ar    1  UNL1        0.0616
     16 C           6.0799   -1.1009   -2.5730 C.3     1  UNL1       -0.0206
     17 N           3.8286   -1.5041   -1.4582 N.ar    1  UNL1       -0.1775
     18 N           2.9297   -0.8296   -0.7624 N.ar    1  UNL1       -0.2637
     19 C           1.2736    0.6619    1.9257 C.ar    1  UNL1        0.0291
     20 C           2.4331    0.3274    2.5892 C.ar    1  UNL1       -0.0505
     21 C           2.3246   -0.2251    3.8478 C.ar    1  UNL1       -0.0611
     22 C           1.0618   -0.4323    4.4187 C.ar    1  UNL1       -0.0610
     23 C          -0.0891   -0.0900    3.7363 C.ar    1  UNL1       -0.0487
     24 C           0.0218    0.4665    2.4692 C.ar    1  UNL1        0.0514
     25 C          -1.1226    0.8100    1.7859 C.ar    1  UNL1        0.2754
     26 O          -2.2820    0.6277    2.2939 O.2     1  UNL1       -0.2655
     27 C          -3.8117    0.0522   -0.7669 C.ar    1  UNL1       -0.0150
     28 H          -7.0299   -1.8918    0.2386 H       1  UNL1        0.0660
     29 H          -6.5180   -0.1405   -0.0403 H       1  UNL1        0.0660
     30 H          -5.3884   -1.2911    0.8381 H       1  UNL1        0.0660
     31 H          -4.1940   -2.0220   -3.4324 H       1  UNL1        0.0654
     32 H          -2.1006   -0.8248   -4.0555 H       1  UNL1        0.0619
     33 H          -1.1503    0.8641   -2.6227 H       1  UNL1        0.0621
     34 H          -1.8791    2.6422   -0.8770 H       1  UNL1        0.0560
     35 H          -2.8922    2.1323    0.4716 H       1  UNL1        0.0560
     36 H           3.1228    2.3770    0.1704 H       1  UNL1        0.1550
     37 H           5.1753    1.4012   -1.3227 H       1  UNL1        0.0670
     38 H           6.9493   -0.9218   -1.8894 H       1  UNL1        0.0293
     39 H           6.0156   -2.1354   -2.9003 H       1  UNL1        0.0293
     40 H           6.1289   -0.3554   -3.4205 H       1  UNL1        0.0293
     41 H           2.0152   -1.2030   -0.3732 H       1  UNL1        0.1903
     42 H           3.3790    0.5024    2.1125 H       1  UNL1        0.0625
     43 H           3.2202   -0.4850    4.3628 H       1  UNL1        0.0618
     44 H           1.0494   -0.8692    5.4091 H       1  UNL1        0.0618
     45 H          -1.0478   -0.2506    4.1789 H       1  UNL1        0.0625
     46 H          -4.2678    0.3366    0.1851 H       1  UNL1        0.0657
@<TRIPOS>BOND
     1     1     2    1
     2     2     3    1
     3     3     4   ar
     4     4     5   ar
     5     5     6   ar
     6     6     7   ar
     7     7     8    1
     8     8     9    1
     9     9    10   ar
    10    10    11   ar
    11    11    12    1
    12    12    13    1
    13    13    14   ar
    14    14    15   ar
    15    15    16    1
    16    15    17   ar
    17    17    18   ar
    18    11    19   ar
    19    19    20   ar
    20    20    21   ar
    21    21    22   ar
    22    22    23   ar
    23    23    24   ar
    24    24    25   ar
    25    25    26    2
    26     7    27   ar
    27    27     3   ar
    28    25     9   ar
    29    18    13   ar
    30    24    19   ar
    31     1    28    1
    32     1    29    1
    33     1    30    1
    34     4    31    1
    35     5    32    1
    36     6    33    1
    37     8    34    1
    38     8    35    1
    39    12    36    1
    40    14    37    1
    41    16    38    1
    42    16    39    1
    43    16    40    1
    44    18    41    1
    45    20    42    1
    46    21    43    1
    47    22    44    1
    48    23    45    1
    49    27    46    1
