
     RDKit          3D

 32 34  0  0  0  0  0  0  0  0999 V2000
    4.5794    1.5104    0.6002 C   0  0  0  0  0  0  0  0  0  0  0  0
    3.4799    0.5348    0.3566 C   0  0  0  0  0  0  0  0  0  0  0  0
    3.6415   -0.7104   -0.1948 C   0  0  0  0  0  0  0  0  0  0  0  0
    2.3667   -1.2671   -0.2325 C   0  0  0  0  0  0  0  0  0  0  0  0
    2.0571   -2.6195   -0.7577 C   0  0  0  0  0  0  0  0  0  0  0  0
    1.4617   -0.3497    0.2951 C   0  0  0  0  0  0  0  0  0  0  0  0
    0.0435   -0.6072    0.4550 C   0  0  0  0  0  0  0  0  0  0  0  0
   -0.8819    0.2049   -0.0257 C   0  0  0  0  0  0  0  0  0  0  0  0
   -0.6913    1.4403   -0.7709 C   0  0  0  0  0  0  0  0  0  0  0  0
    0.4025    1.9303   -1.0996 O   0  0  0  0  0  0  0  0  0  0  0  0
   -2.0079    1.9498   -1.0358 N   0  0  0  0  0  0  0  0  0  0  0  0
   -2.9698    1.0697   -0.4802 C   0  0  0  0  0  0  0  0  0  0  0  0
   -4.3615    1.1189   -0.4638 C   0  0  0  0  0  0  0  0  0  0  0  0
   -5.1161    0.1405    0.1481 C   0  0  0  0  0  0  0  0  0  0  0  0
   -4.4488   -0.8957    0.7483 C   0  0  0  0  0  0  0  0  0  0  0  0
   -3.0690   -0.9829    0.7549 C   0  0  0  0  0  0  0  0  0  0  0  0
   -2.3452    0.0088    0.1360 C   0  0  0  0  0  0  0  0  0  0  0  0
    2.1745    0.7252    0.6402 N   0  0  0  0  0  0  0  0  0  0  0  0
    4.1686    2.3575    1.2189 H   0  0  0  0  0  0  0  0  0  0  0  0
    4.8957    1.9852   -0.3579 H   0  0  0  0  0  0  0  0  0  0  0  0
    5.4498    1.0557    1.0821 H   0  0  0  0  0  0  0  0  0  0  0  0
    4.5683   -1.1523   -0.5250 H   0  0  0  0  0  0  0  0  0  0  0  0
    1.7121   -2.5849   -1.8266 H   0  0  0  0  0  0  0  0  0  0  0  0
    1.3222   -3.1747   -0.1149 H   0  0  0  0  0  0  0  0  0  0  0  0
    2.9800   -3.2414   -0.7583 H   0  0  0  0  0  0  0  0  0  0  0  0
   -0.3207   -1.5028    0.9895 H   0  0  0  0  0  0  0  0  0  0  0  0
   -2.2072    2.8366   -1.5606 H   0  0  0  0  0  0  0  0  0  0  0  0
   -4.8938    1.9332   -0.9371 H   0  0  0  0  0  0  0  0  0  0  0  0
   -6.2008    0.1669    0.1689 H   0  0  0  0  0  0  0  0  0  0  0  0
   -5.0624   -1.6716    1.2347 H   0  0  0  0  0  0  0  0  0  0  0  0
   -2.5586   -1.8058    1.2302 H   0  0  0  0  0  0  0  0  0  0  0  0
    1.8315    1.5971    1.0827 H   0  0  0  0  0  0  0  0  0  0  0  0
  1  2  1  0
  2  3  2  0
  3  4  1  0
  4  5  1  0
  4  6  2  0
  6  7  1  0
  7  8  2  0
  8  9  1  0
  9 10  2  0
  9 11  1  0
 11 12  1  0
 12 13  2  0
 13 14  1  0
 14 15  2  0
 15 16  1  0
 16 17  2  0
  6 18  1  0
 18  2  1  0
 17  8  1  0
 17 12  1  0
  1 19  1  0
  1 20  1  0
  1 21  1  0
  3 22  1  0
  5 23  1  0
  5 24  1  0
  5 25  1  0
  7 26  1  0
 11 27  1  0
 13 28  1  0
 14 29  1  0
 15 30  1  0
 16 31  1  0
 18 32  1  0
M  END
$$$$
