@<TRIPOS>MOLECULE
*****
 32 34 0 0 0
SMALL
GASTEIGER

@<TRIPOS>ATOM
      1 C           4.5794    1.5104    0.6002 C.3     1  UNL1       -0.0244
      2 C           3.4799    0.5348    0.3566 C.ar    1  UNL1        0.0135
      3 C           3.6415   -0.7104   -0.1948 C.ar    1  UNL1       -0.0379
      4 C           2.3667   -1.2671   -0.2325 C.ar    1  UNL1       -0.0255
      5 C           2.0571   -2.6195   -0.7577 C.3     1  UNL1       -0.0377
      6 C           1.4617   -0.3497    0.2951 C.ar    1  UNL1        0.0431
      7 C           0.0435   -0.6072    0.4550 C.2     1  UNL1       -0.0254
      8 C          -0.8819    0.2049   -0.0257 C.2     1  UNL1        0.0479
      9 C          -0.6913    1.4403   -0.7709 C.2     1  UNL1        0.2490
     10 O           0.4025    1.9303   -1.0996 O.2     1  UNL1       -0.2698
     11 N          -2.0079    1.9498   -1.0358 N.am    1  UNL1       -0.2809
     12 C          -2.9698    1.0697   -0.4802 C.ar    1  UNL1        0.0416
     13 C          -4.3615    1.1189   -0.4638 C.ar    1  UNL1       -0.0399
     14 C          -5.1161    0.1405    0.1481 C.ar    1  UNL1       -0.0600
     15 C          -4.4488   -0.8957    0.7483 C.ar    1  UNL1       -0.0611
     16 C          -3.0690   -0.9829    0.7549 C.ar    1  UNL1       -0.0521
     17 C          -2.3452    0.0088    0.1360 C.ar    1  UNL1        0.0084
     18 N           2.1745    0.7252    0.6402 N.ar    1  UNL1       -0.3584
     19 H           4.1686    2.3575    1.2189 H       1  UNL1        0.0292
     20 H           4.8957    1.9852   -0.3579 H       1  UNL1        0.0292
     21 H           5.4498    1.0557    1.0821 H       1  UNL1        0.0292
     22 H           4.5683   -1.1523   -0.5250 H       1  UNL1        0.0638
     23 H           1.7121   -2.5849   -1.8266 H       1  UNL1        0.0278
     24 H           1.3222   -3.1747   -0.1149 H       1  UNL1        0.0278
     25 H           2.9800   -3.2414   -0.7583 H       1  UNL1        0.0278
     26 H          -0.3207   -1.5028    0.9895 H       1  UNL1        0.0646
     27 H          -2.2072    2.8366   -1.5606 H       1  UNL1        0.1552
     28 H          -4.8938    1.9332   -0.9371 H       1  UNL1        0.0636
     29 H          -6.2008    0.1669    0.1689 H       1  UNL1        0.0618
     30 H          -5.0624   -1.6716    1.2347 H       1  UNL1        0.0618
     31 H          -2.5586   -1.8058    1.2302 H       1  UNL1        0.0624
     32 H           1.8315    1.5971    1.0827 H       1  UNL1        0.1656
@<TRIPOS>BOND
     1     1     2    1
     2     2     3   ar
     3     3     4   ar
     4     4     5    1
     5     4     6   ar
     6     6     7    1
     7     7     8    2
     8     8     9    1
     9     9    10    2
    10     9    11   am
    11    11    12    1
    12    12    13   ar
    13    13    14   ar
    14    14    15   ar
    15    15    16   ar
    16    16    17   ar
    17     6    18   ar
    18    18     2   ar
    19    17     8    1
    20    17    12   ar
    21     1    19    1
    22     1    20    1
    23     1    21    1
    24     3    22    1
    25     5    23    1
    26     5    24    1
    27     5    25    1
    28     7    26    1
    29    11    27    1
    30    13    28    1
    31    14    29    1
    32    15    30    1
    33    16    31    1
    34    18    32    1
