@<TRIPOS>MOLECULE
*****
 16 15 0 0 0
SMALL
GASTEIGER

@<TRIPOS>ATOM
      1 C           1.1100    0.8804    0.6906 C.3     1  UNL1       -0.0365
      2 C           0.7490    0.2373   -0.6145 C.3     1  UNL1        0.0780
      3 O           1.8379   -0.5112   -1.0504 O.3     1  UNL1       -0.3895
      4 C          -0.4777   -0.6193   -0.4185 C.3     1  UNL1        0.0780
      5 C          -1.6188    0.2609   -0.0312 C.3     1  UNL1       -0.0365
      6 O          -0.1379   -1.5728    0.5439 O.3     1  UNL1       -0.3895
      7 H           0.2548    0.8234    1.4121 H       1  UNL1        0.0255
      8 H           1.4119    1.9374    0.5627 H       1  UNL1        0.0255
      9 H           1.9194    0.2737    1.1783 H       1  UNL1        0.0255
     10 H           0.5410    1.0463   -1.3476 H       1  UNL1        0.0616
     11 H           1.5640   -1.4720   -1.0131 H       1  UNL1        0.2099
     12 H          -0.6929   -1.1528   -1.3766 H       1  UNL1        0.0616
     13 H          -2.0957   -0.1622    0.8769 H       1  UNL1        0.0255
     14 H          -1.2831    1.2967    0.1589 H       1  UNL1        0.0255
     15 H          -2.3297    0.3100   -0.8811 H       1  UNL1        0.0255
     16 H          -0.7522   -1.5757    1.3097 H       1  UNL1        0.2099
@<TRIPOS>BOND
     1     1     2    1
     2     2     3    1
     3     2     4    1
     4     4     5    1
     5     4     6    1
     6     1     7    1
     7     1     8    1
     8     1     9    1
     9     2    10    1
    10     3    11    1
    11     4    12    1
    12     5    13    1
    13     5    14    1
    14     5    15    1
    15     6    16    1
