@<TRIPOS>MOLECULE
*****
 69 71 0 0 0
SMALL
GASTEIGER

@<TRIPOS>ATOM
      1 C           6.8220    1.1707   -0.4692 C.3     1  UNL1       -0.0130
      2 N           6.1101    0.8199    0.7151 N.3     1  UNL1       -0.3069
      3 C           6.5278    1.5670    1.8593 C.3     1  UNL1       -0.0130
      4 C           5.9946   -0.5999    0.9329 C.3     1  UNL1        0.0141
      5 C           5.0964   -1.2515   -0.0599 C.3     1  UNL1        0.0275
      6 N           3.7449   -0.7689   -0.0495 N.am    1  UNL1       -0.2987
      7 C           2.8757   -1.4605    0.8807 C.3     1  UNL1        0.0305
      8 C           1.4172   -1.4973    0.3563 C.3     1  UNL1        0.0308
      9 N           0.8234   -0.2080    0.4429 N.am    1  UNL1       -0.2955
     10 C          -0.5307    0.0183    0.4408 C.2     1  UNL1        0.2490
     11 O          -0.9139    1.2550    0.5713 O.2     1  UNL1       -0.2699
     12 C          -1.5996   -0.9873    0.3114 C.ar    1  UNL1        0.0657
     13 C          -1.5077   -2.2344   -0.1759 C.ar    1  UNL1       -0.0370
     14 C          -2.5838   -3.0366   -0.2844 C.ar    1  UNL1       -0.0023
     15 C          -2.7478   -4.4159   -0.7734 C.3     1  UNL1       -0.0064
     16 C          -3.0400   -4.3331   -2.2741 C.3     1  UNL1       -0.0556
     17 C          -1.4936   -5.2013   -0.4951 C.3     1  UNL1       -0.0556
     18 C          -3.9137   -5.0619   -0.0891 C.3     1  UNL1       -0.0556
     19 S          -3.9200   -2.0006    0.3454 S.2     1  UNL1       -0.0771
     20 C          -2.8981   -0.5936    0.6923 C.ar    1  UNL1        0.0853
     21 N          -3.3478    0.6380    1.2456 N.am    1  UNL1       -0.2629
     22 C          -3.7905    1.7176    0.3713 C.2     1  UNL1        0.3085
     23 O          -3.7571    1.5135   -0.8631 O.2     1  UNL1       -0.2521
     24 N          -4.2331    2.9321    0.9290 N.am    1  UNL1       -0.2678
     25 C          -4.6779    4.0338    0.1873 C.ar    1  UNL1        0.0546
     26 C          -4.7558    4.1227   -1.1691 C.ar    1  UNL1       -0.0389
     27 C          -5.2124    5.2621   -1.8313 C.ar    1  UNL1       -0.0585
     28 C          -5.6021    6.3445   -1.0994 C.ar    1  UNL1       -0.0419
     29 C          -5.5260    6.2619    0.2772 C.ar    1  UNL1        0.0610
     30 CL         -6.0352    7.6726    1.2090 Cl      1  UNL1       -0.0820
     31 C          -5.0846    5.1616    0.9308 C.ar    1  UNL1        0.0804
     32 CL         -5.0244    5.1520    2.6842 Cl      1  UNL1       -0.0801
     33 C           1.6095    1.0379    0.5395 C.3     1  UNL1        0.0233
     34 C           2.3370    1.3274   -0.7601 C.3     1  UNL1        0.0399
     35 C           3.4077    0.2846   -0.8938 C.2     1  UNL1        0.2171
     36 O           4.0891    0.4020   -1.9357 O.2     1  UNL1       -0.2755
     37 H           6.9737    0.3120   -1.1705 H       1  UNL1        0.0391
     38 H           7.7872    1.7001   -0.2808 H       1  UNL1        0.0391
     39 H           6.1887    1.9253   -1.0203 H       1  UNL1        0.0391
     40 H           7.5926    1.3826    2.0936 H       1  UNL1        0.0391
     41 H           5.8707    1.3425    2.7186 H       1  UNL1        0.0391
     42 H           6.3583    2.6507    1.6194 H       1  UNL1        0.0391
     43 H           5.7266   -0.8278    1.9858 H       1  UNL1        0.0442
     44 H           7.0508   -0.9936    0.8357 H       1  UNL1        0.0442
     45 H           5.5687   -1.1742   -1.0822 H       1  UNL1        0.0477
     46 H           5.1354   -2.3605    0.1614 H       1  UNL1        0.0477
     47 H           3.1938   -2.5205    0.9072 H       1  UNL1        0.0480
     48 H           2.8921   -1.0565    1.8912 H       1  UNL1        0.0480
     49 H           0.9595   -2.2619    1.0023 H       1  UNL1        0.0480
     50 H           1.5087   -1.8415   -0.6814 H       1  UNL1        0.0480
     51 H          -0.5366   -2.6746   -0.5509 H       1  UNL1        0.0634
     52 H          -3.9414   -3.7329   -2.4187 H       1  UNL1        0.0238
     53 H          -3.0877   -5.3541   -2.6891 H       1  UNL1        0.0238
     54 H          -2.1622   -3.8332   -2.7575 H       1  UNL1        0.0238
     55 H          -0.9466   -4.7458    0.3461 H       1  UNL1        0.0238
     56 H          -1.7276   -6.2760   -0.2614 H       1  UNL1        0.0238
     57 H          -0.8288   -5.1976   -1.3773 H       1  UNL1        0.0238
     58 H          -3.6072   -5.6358    0.7846 H       1  UNL1        0.0238
     59 H          -4.5911   -4.2424    0.2690 H       1  UNL1        0.0238
     60 H          -4.4938   -5.6828   -0.8031 H       1  UNL1        0.0238
     61 H          -3.3751    0.8043    2.2545 H       1  UNL1        0.1569
     62 H          -4.2120    2.9749    2.0009 H       1  UNL1        0.1564
     63 H          -4.4550    3.2846   -1.7736 H       1  UNL1        0.0637
     64 H          -5.2403    5.2461   -2.8947 H       1  UNL1        0.0619
     65 H          -5.9608    7.2414   -1.6050 H       1  UNL1        0.0633
     66 H           0.9468    1.8857    0.7794 H       1  UNL1        0.0469
     67 H           2.3616    0.9701    1.3366 H       1  UNL1        0.0469
     68 H           1.6481    1.3122   -1.6367 H       1  UNL1        0.0374
     69 H           2.7433    2.3352   -0.6827 H       1  UNL1        0.0374
@<TRIPOS>BOND
     1     1     2    1
     2     2     3    1
     3     2     4    1
     4     4     5    1
     5     5     6    1
     6     6     7    1
     7     7     8    1
     8     8     9    1
     9     9    10   am
    10    10    11    2
    11    10    12    1
    12    12    13   ar
    13    13    14   ar
    14    14    15    1
    15    15    16    1
    16    15    17    1
    17    15    18    1
    18    14    19   ar
    19    19    20   ar
    20    20    21    1
    21    21    22   am
    22    22    23    2
    23    22    24   am
    24    24    25    1
    25    25    26   ar
    26    26    27   ar
    27    27    28   ar
    28    28    29   ar
    29    29    30    1
    30    29    31   ar
    31    31    32    1
    32     9    33    1
    33    33    34    1
    34    34    35    1
    35    35    36    2
    36    35     6   am
    37    20    12   ar
    38    31    25   ar
    39     1    37    1
    40     1    38    1
    41     1    39    1
    42     3    40    1
    43     3    41    1
    44     3    42    1
    45     4    43    1
    46     4    44    1
    47     5    45    1
    48     5    46    1
    49     7    47    1
    50     7    48    1
    51     8    49    1
    52     8    50    1
    53    13    51    1
    54    16    52    1
    55    16    53    1
    56    16    54    1
    57    17    55    1
    58    17    56    1
    59    17    57    1
    60    18    58    1
    61    18    59    1
    62    18    60    1
    63    21    61    1
    64    24    62    1
    65    26    63    1
    66    27    64    1
    67    28    65    1
    68    33    66    1
    69    33    67    1
    70    34    68    1
    71    34    69    1
