
     RDKit          3D

 69 71  0  0  0  0  0  0  0  0999 V2000
    6.8220    1.1707   -0.4692 C   0  0  0  0  0  0  0  0  0  0  0  0
    6.1101    0.8199    0.7151 N   0  0  0  0  0  0  0  0  0  0  0  0
    6.5278    1.5670    1.8593 C   0  0  0  0  0  0  0  0  0  0  0  0
    5.9946   -0.5999    0.9329 C   0  0  0  0  0  0  0  0  0  0  0  0
    5.0964   -1.2515   -0.0599 C   0  0  0  0  0  0  0  0  0  0  0  0
    3.7449   -0.7689   -0.0495 N   0  0  0  0  0  0  0  0  0  0  0  0
    2.8757   -1.4605    0.8807 C   0  0  0  0  0  0  0  0  0  0  0  0
    1.4172   -1.4973    0.3563 C   0  0  0  0  0  0  0  0  0  0  0  0
    0.8234   -0.2080    0.4429 N   0  0  0  0  0  0  0  0  0  0  0  0
   -0.5307    0.0183    0.4408 C   0  0  0  0  0  0  0  0  0  0  0  0
   -0.9139    1.2550    0.5713 O   0  0  0  0  0  0  0  0  0  0  0  0
   -1.5996   -0.9873    0.3114 C   0  0  0  0  0  0  0  0  0  0  0  0
   -1.5077   -2.2344   -0.1759 C   0  0  0  0  0  0  0  0  0  0  0  0
   -2.5838   -3.0366   -0.2844 C   0  0  0  0  0  0  0  0  0  0  0  0
   -2.7478   -4.4159   -0.7734 C   0  0  0  0  0  0  0  0  0  0  0  0
   -3.0400   -4.3331   -2.2741 C   0  0  0  0  0  0  0  0  0  0  0  0
   -1.4936   -5.2013   -0.4951 C   0  0  0  0  0  0  0  0  0  0  0  0
   -3.9137   -5.0619   -0.0891 C   0  0  0  0  0  0  0  0  0  0  0  0
   -3.9200   -2.0006    0.3454 S   0  0  0  0  0  0  0  0  0  0  0  0
   -2.8981   -0.5936    0.6923 C   0  0  0  0  0  0  0  0  0  0  0  0
   -3.3478    0.6380    1.2456 N   0  0  0  0  0  0  0  0  0  0  0  0
   -3.7905    1.7176    0.3713 C   0  0  0  0  0  0  0  0  0  0  0  0
   -3.7571    1.5135   -0.8631 O   0  0  0  0  0  0  0  0  0  0  0  0
   -4.2331    2.9321    0.9290 N   0  0  0  0  0  0  0  0  0  0  0  0
   -4.6779    4.0338    0.1873 C   0  0  0  0  0  0  0  0  0  0  0  0
   -4.7558    4.1227   -1.1691 C   0  0  0  0  0  0  0  0  0  0  0  0
   -5.2124    5.2621   -1.8313 C   0  0  0  0  0  0  0  0  0  0  0  0
   -5.6021    6.3445   -1.0994 C   0  0  0  0  0  0  0  0  0  0  0  0
   -5.5260    6.2619    0.2772 C   0  0  0  0  0  0  0  0  0  0  0  0
   -6.0352    7.6726    1.2090 Cl  0  0  0  0  0  0  0  0  0  0  0  0
   -5.0846    5.1616    0.9308 C   0  0  0  0  0  0  0  0  0  0  0  0
   -5.0244    5.1520    2.6842 Cl  0  0  0  0  0  0  0  0  0  0  0  0
    1.6095    1.0379    0.5395 C   0  0  0  0  0  0  0  0  0  0  0  0
    2.3370    1.3274   -0.7601 C   0  0  0  0  0  0  0  0  0  0  0  0
    3.4077    0.2846   -0.8938 C   0  0  0  0  0  0  0  0  0  0  0  0
    4.0891    0.4020   -1.9357 O   0  0  0  0  0  0  0  0  0  0  0  0
    6.9737    0.3120   -1.1705 H   0  0  0  0  0  0  0  0  0  0  0  0
    7.7872    1.7001   -0.2808 H   0  0  0  0  0  0  0  0  0  0  0  0
    6.1887    1.9253   -1.0203 H   0  0  0  0  0  0  0  0  0  0  0  0
    7.5926    1.3826    2.0936 H   0  0  0  0  0  0  0  0  0  0  0  0
    5.8707    1.3425    2.7186 H   0  0  0  0  0  0  0  0  0  0  0  0
    6.3583    2.6507    1.6194 H   0  0  0  0  0  0  0  0  0  0  0  0
    5.7266   -0.8278    1.9858 H   0  0  0  0  0  0  0  0  0  0  0  0
    7.0508   -0.9936    0.8357 H   0  0  0  0  0  0  0  0  0  0  0  0
    5.5687   -1.1742   -1.0822 H   0  0  0  0  0  0  0  0  0  0  0  0
    5.1354   -2.3605    0.1614 H   0  0  0  0  0  0  0  0  0  0  0  0
    3.1938   -2.5205    0.9072 H   0  0  0  0  0  0  0  0  0  0  0  0
    2.8921   -1.0565    1.8912 H   0  0  0  0  0  0  0  0  0  0  0  0
    0.9595   -2.2619    1.0023 H   0  0  0  0  0  0  0  0  0  0  0  0
    1.5087   -1.8415   -0.6814 H   0  0  0  0  0  0  0  0  0  0  0  0
   -0.5366   -2.6746   -0.5509 H   0  0  0  0  0  0  0  0  0  0  0  0
   -3.9414   -3.7329   -2.4187 H   0  0  0  0  0  0  0  0  0  0  0  0
   -3.0877   -5.3541   -2.6891 H   0  0  0  0  0  0  0  0  0  0  0  0
   -2.1622   -3.8332   -2.7575 H   0  0  0  0  0  0  0  0  0  0  0  0
   -0.9466   -4.7458    0.3461 H   0  0  0  0  0  0  0  0  0  0  0  0
   -1.7276   -6.2760   -0.2614 H   0  0  0  0  0  0  0  0  0  0  0  0
   -0.8288   -5.1976   -1.3773 H   0  0  0  0  0  0  0  0  0  0  0  0
   -3.6072   -5.6358    0.7846 H   0  0  0  0  0  0  0  0  0  0  0  0
   -4.5911   -4.2424    0.2690 H   0  0  0  0  0  0  0  0  0  0  0  0
   -4.4938   -5.6828   -0.8031 H   0  0  0  0  0  0  0  0  0  0  0  0
   -3.3751    0.8043    2.2545 H   0  0  0  0  0  0  0  0  0  0  0  0
   -4.2120    2.9749    2.0009 H   0  0  0  0  0  0  0  0  0  0  0  0
   -4.4550    3.2846   -1.7736 H   0  0  0  0  0  0  0  0  0  0  0  0
   -5.2403    5.2461   -2.8947 H   0  0  0  0  0  0  0  0  0  0  0  0
   -5.9608    7.2414   -1.6050 H   0  0  0  0  0  0  0  0  0  0  0  0
    0.9468    1.8857    0.7794 H   0  0  0  0  0  0  0  0  0  0  0  0
    2.3616    0.9701    1.3366 H   0  0  0  0  0  0  0  0  0  0  0  0
    1.6481    1.3122   -1.6367 H   0  0  0  0  0  0  0  0  0  0  0  0
    2.7433    2.3352   -0.6827 H   0  0  0  0  0  0  0  0  0  0  0  0
  1  2  1  0
  2  3  1  0
  2  4  1  0
  4  5  1  0
  5  6  1  0
  6  7  1  0
  7  8  1  0
  8  9  1  0
  9 10  1  0
 10 11  2  0
 10 12  1  0
 12 13  1  0
 13 14  2  0
 14 15  1  0
 15 16  1  0
 15 17  1  0
 15 18  1  0
 14 19  1  0
 19 20  1  0
 20 21  1  0
 21 22  1  0
 22 23  2  0
 22 24  1  0
 24 25  1  0
 25 26  2  0
 26 27  1  0
 27 28  2  0
 28 29  1  0
 29 30  1  0
 29 31  2  0
 31 32  1  0
  9 33  1  0
 33 34  1  0
 34 35  1  0
 35 36  2  0
 35  6  1  0
 20 12  2  0
 31 25  1  0
  1 37  1  0
  1 38  1  0
  1 39  1  0
  3 40  1  0
  3 41  1  0
  3 42  1  0
  4 43  1  0
  4 44  1  0
  5 45  1  0
  5 46  1  0
  7 47  1  0
  7 48  1  0
  8 49  1  0
  8 50  1  0
 13 51  1  0
 16 52  1  0
 16 53  1  0
 16 54  1  0
 17 55  1  0
 17 56  1  0
 17 57  1  0
 18 58  1  0
 18 59  1  0
 18 60  1  0
 21 61  1  0
 24 62  1  0
 26 63  1  0
 27 64  1  0
 28 65  1  0
 33 66  1  0
 33 67  1  0
 34 68  1  0
 34 69  1  0
M  END
$$$$
