@<TRIPOS>MOLECULE
*****
 38 40 0 0 0
SMALL
GASTEIGER

@<TRIPOS>ATOM
      1 C           5.6539   -1.3244    1.6557 C.3     1  UNL1        0.0788
      2 O           4.2915   -1.5186    2.0118 O.3     1  UNL1       -0.4951
      3 C           3.3296   -0.6509    1.5379 C.ar    1  UNL1        0.1201
      4 C           3.5989    0.4258    0.7178 C.ar    1  UNL1       -0.0196
      5 C           2.5472    1.2120    0.3169 C.ar    1  UNL1       -0.0534
      6 C           1.2208    0.9878    0.6890 C.ar    1  UNL1       -0.0275
      7 C           0.1437    1.9155    0.1939 C.3     1  UNL1        0.0483
      8 N          -0.3777    1.5160   -1.0783 N.ar    1  UNL1       -0.3423
      9 C           0.1062    1.8771   -2.2713 C.ar    1  UNL1        0.0061
     10 C          -0.6538    1.2856   -3.2456 C.ar    1  UNL1       -0.0364
     11 C          -1.6303    0.5417   -2.6165 C.ar    1  UNL1       -0.0001
     12 C          -2.6675   -0.2555   -3.0505 C.ar    1  UNL1       -0.0519
     13 C          -3.5059   -0.8882   -2.1655 C.ar    1  UNL1       -0.0489
     14 C          -3.2933   -0.7128   -0.8145 C.ar    1  UNL1        0.0407
     15 C          -4.1903   -1.3899    0.1113 C.2     1  UNL1        0.2666
     16 O          -5.1251   -2.1082   -0.3734 O.2     1  UNL1       -0.2681
     17 N          -4.0384   -1.2614    1.5121 N.am    1  UNL1       -0.1935
     18 O          -4.9101   -1.9202    2.3063 O.3     1  UNL1       -0.2949
     19 C          -2.2675    0.0758   -0.3573 C.ar    1  UNL1       -0.0254
     20 C          -1.4318    0.7059   -1.2584 C.ar    1  UNL1        0.0501
     21 C           0.9741   -0.0904    1.5067 C.ar    1  UNL1       -0.0534
     22 C           2.0175   -0.9060    1.9301 C.ar    1  UNL1       -0.0196
     23 H           6.2149   -2.2174    1.9947 H       1  UNL1        0.0660
     24 H           5.6854   -1.2299    0.5484 H       1  UNL1        0.0660
     25 H           6.0097   -0.4077    2.1720 H       1  UNL1        0.0660
     26 H           4.6279    0.5875    0.4381 H       1  UNL1        0.0654
     27 H           2.7738    2.0530   -0.3262 H       1  UNL1        0.0622
     28 H           0.6357    2.9113    0.0672 H       1  UNL1        0.0541
     29 H          -0.6471    2.0506    0.9394 H       1  UNL1        0.0541
     30 H           0.9549    2.5275   -2.3978 H       1  UNL1        0.0809
     31 H          -0.5596    1.3485   -4.3198 H       1  UNL1        0.0639
     32 H          -2.8159   -0.3792   -4.1345 H       1  UNL1        0.0624
     33 H          -4.3278   -1.5203   -2.5336 H       1  UNL1        0.0625
     34 H          -3.2968   -0.6912    1.9481 H       1  UNL1        0.1825
     35 H          -4.6760   -1.8000    3.2632 H       1  UNL1        0.2414
     36 H          -2.0804    0.2337    0.6991 H       1  UNL1        0.0646
     37 H          -0.0560   -0.2949    1.8201 H       1  UNL1        0.0622
     38 H           1.7654   -1.7278    2.5634 H       1  UNL1        0.0654
@<TRIPOS>BOND
     1     1     2    1
     2     2     3    1
     3     3     4   ar
     4     4     5   ar
     5     5     6   ar
     6     6     7    1
     7     7     8    1
     8     8     9   ar
     9     9    10   ar
    10    10    11   ar
    11    11    12   ar
    12    12    13   ar
    13    13    14   ar
    14    14    15    1
    15    15    16    2
    16    15    17   am
    17    17    18    1
    18    14    19   ar
    19    19    20   ar
    20     6    21   ar
    21    21    22   ar
    22    22     3   ar
    23    20     8   ar
    24    20    11   ar
    25     1    23    1
    26     1    24    1
    27     1    25    1
    28     4    26    1
    29     5    27    1
    30     7    28    1
    31     7    29    1
    32     9    30    1
    33    10    31    1
    34    12    32    1
    35    13    33    1
    36    17    34    1
    37    18    35    1
    38    19    36    1
    39    21    37    1
    40    22    38    1
