@<TRIPOS>MOLECULE
*****
 46 49 0 0 0
SMALL
GASTEIGER

@<TRIPOS>ATOM
      1 C          -0.1527   -4.6892   -2.9912 C.3     1  UNL1        0.0788
      2 O          -1.1724   -3.8131   -2.6072 O.3     1  UNL1       -0.4950
      3 C          -0.9503   -2.7816   -1.7175 C.ar    1  UNL1        0.1229
      4 C           0.2756   -2.4896   -1.1113 C.ar    1  UNL1        0.0092
      5 C           0.4272   -1.4408   -0.2283 C.ar    1  UNL1        0.1153
      6 C          -0.6589   -0.6476    0.0735 C.ar    1  UNL1        0.1650
      7 O          -0.2503    0.2461    0.9107 O.2     1  UNL1       -0.4229
      8 C           1.0206    0.1331    1.2075 C.ar    1  UNL1        0.3083
      9 N           1.7165    0.9879    2.1007 N.pl3   1  UNL1       -0.1687
     10 S           3.3688    0.7953    2.4466 S.O2    1  UNL1        0.0771
     11 O           3.8224    1.6684    3.5796 O.2     1  UNL1       -0.1498
     12 O           3.5490   -0.6326    2.9416 O.2     1  UNL1       -0.1498
     13 C           4.4057    0.9661    1.0694 C.ar    1  UNL1        0.1282
     14 C           3.9012    1.2232   -0.1912 C.ar    1  UNL1       -0.0153
     15 C           4.8399    1.3317   -1.1921 C.ar    1  UNL1        0.0429
     16 CL          4.1961    1.6546   -2.8017 Cl      1  UNL1       -0.0835
     17 C           6.2064    1.2207   -1.1136 C.ar    1  UNL1       -0.0419
     18 C           6.6668    0.9607    0.1835 C.ar    1  UNL1       -0.0401
     19 C           5.7785    0.8422    1.2189 C.ar    1  UNL1        0.0676
     20 CL          6.4253    0.5138    2.8357 Cl      1  UNL1       -0.0815
     21 N           1.4404   -0.9261    0.4905 N.ar    1  UNL1       -0.1941
     22 C          -1.9032   -0.8890   -0.4982 C.ar    1  UNL1        0.0315
     23 C          -1.9891   -1.9481   -1.3691 C.ar    1  UNL1       -0.0085
     24 C          -2.9898    0.0029   -0.1212 C.ar    1  UNL1        0.0042
     25 C          -3.1981    0.3377    1.2204 C.ar    1  UNL1        0.0392
     26 N          -4.1713    1.1579    1.6321 N.ar    1  UNL1       -0.2207
     27 C          -5.0334    1.7326    0.8044 C.ar    1  UNL1        0.2144
     28 O          -6.1119    2.6011    0.9420 O.3     1  UNL1       -0.4796
     29 C          -6.4883    3.0625    2.2411 C.3     1  UNL1        0.0804
     30 C          -4.8706    1.4332   -0.5353 C.ar    1  UNL1        0.0005
     31 C          -3.8731    0.5856   -1.0136 C.ar    1  UNL1       -0.0474
     32 H           0.3213   -4.3566   -3.9520 H       1  UNL1        0.0660
     33 H           0.6527   -4.8411   -2.2736 H       1  UNL1        0.0660
     34 H          -0.5814   -5.6974   -3.2509 H       1  UNL1        0.0660
     35 H           1.1138   -3.1038   -1.3464 H       1  UNL1        0.0677
     36 H           1.2304    1.7628    2.5734 H       1  UNL1        0.1783
     37 H           2.8594    1.3270   -0.3638 H       1  UNL1        0.0652
     38 H           6.8432    1.3252   -1.9746 H       1  UNL1        0.0633
     39 H           7.7544    0.8659    0.2941 H       1  UNL1        0.0633
     40 H          -2.9575   -2.1397   -1.8156 H       1  UNL1        0.0661
     41 H          -2.5722   -0.0566    2.0093 H       1  UNL1        0.0837
     42 H          -5.8322    3.9166    2.5298 H       1  UNL1        0.0660
     43 H          -7.5125    3.4650    2.2387 H       1  UNL1        0.0660
     44 H          -6.3832    2.2229    2.9424 H       1  UNL1        0.0660
     45 H          -5.4623    1.7912   -1.3890 H       1  UNL1        0.0671
     46 H          -3.7011    0.3190   -2.0411 H       1  UNL1        0.0626
@<TRIPOS>BOND
     1     1     2    1
     2     2     3    1
     3     3     4   ar
     4     4     5   ar
     5     5     6   ar
     6     6     7   ar
     7     7     8   ar
     8     8     9    1
     9     9    10    1
    10    10    11    2
    11    10    12    2
    12    10    13    1
    13    13    14   ar
    14    14    15   ar
    15    15    16    1
    16    15    17   ar
    17    17    18   ar
    18    18    19   ar
    19    19    20    1
    20     8    21   ar
    21     6    22   ar
    22    22    23   ar
    23    22    24    1
    24    24    25   ar
    25    25    26   ar
    26    26    27   ar
    27    27    28    1
    28    28    29    1
    29    27    30   ar
    30    30    31   ar
    31    23     3   ar
    32    31    24   ar
    33    21     5   ar
    34    19    13   ar
    35     1    32    1
    36     1    33    1
    37     1    34    1
    38     4    35    1
    39     9    36    1
    40    14    37    1
    41    17    38    1
    42    18    39    1
    43    23    40    1
    44    25    41    1
    45    29    42    1
    46    29    43    1
    47    29    44    1
    48    30    45    1
    49    31    46    1
