@<TRIPOS>MOLECULE
*****
 50 54 0 0 0
SMALL
GASTEIGER

@<TRIPOS>ATOM
      1 C           7.1236   -2.3102   -0.6606 C.3     1  UNL1       -0.0221
      2 C           6.2760   -1.1545   -0.2238 C.ar    1  UNL1        0.0456
      3 C           6.8941   -0.0797    0.3698 C.ar    1  UNL1        0.0209
      4 C           6.1188    0.9814    0.7713 C.ar    1  UNL1        0.2170
      5 O           6.7405    2.0617    1.3680 O.3     1  UNL1       -0.4923
      6 N           4.8018    0.9329    0.5729 N.ar    1  UNL1       -0.1816
      7 N           3.8665    1.8052    0.8632 N.ar    1  UNL1       -0.1653
      8 C           2.6373    1.3590    0.4873 C.ar    1  UNL1        0.0840
      9 C           2.8493    0.1272   -0.0704 C.ar    1  UNL1        0.0350
     10 C           4.1915   -0.1292   -0.0137 C.ar    1  UNL1        0.1641
     11 N           4.9470   -1.1752   -0.4106 N.ar    1  UNL1       -0.2324
     12 C           1.5374   -0.4182   -0.5034 C.3     1  UNL1        0.0301
     13 N           0.5778    0.3878    0.2582 N.3     1  UNL1       -0.2871
     14 C          -0.6296    0.4364   -0.5412 C.3     1  UNL1        0.0360
     15 C          -1.1769   -0.9441   -0.7799 C.3     1  UNL1        0.0641
     16 O          -2.5402   -0.8730   -1.1183 O.3     1  UNL1       -0.3688
     17 C          -3.2320   -0.6661    0.0640 C.3     1  UNL1        0.1015
     18 C          -4.6895   -0.4882   -0.1993 C.ar    1  UNL1        0.0207
     19 C          -5.1580    0.1412   -1.3499 C.ar    1  UNL1       -0.0152
     20 C          -6.5083    0.2996   -1.5819 C.ar    1  UNL1        0.1589
     21 F          -6.9515    0.9133   -2.7044 F       1  UNL1       -0.2025
     22 C          -7.4502   -0.1581   -0.6852 C.ar    1  UNL1        0.1611
     23 F          -8.7878   -0.0072   -0.9038 F       1  UNL1       -0.2024
     24 C          -6.9943   -0.7825    0.4568 C.ar    1  UNL1        0.0120
     25 C          -5.6441   -0.9403    0.6875 C.ar    1  UNL1        0.1320
     26 F          -5.2047   -1.5585    1.8187 F       1  UNL1       -0.2050
     27 C          -2.7358    0.5398    0.8258 C.3     1  UNL1        0.0371
     28 N          -2.2456    0.1167    2.1327 N.3     1  UNL1       -0.3248
     29 C          -1.7035    1.2871    0.0426 C.3     1  UNL1       -0.0172
     30 C           1.1853    1.6648    0.4382 C.3     1  UNL1        0.0440
     31 H           8.0161   -2.4347   -0.0135 H       1  UNL1        0.0293
     32 H           6.4619   -3.2197   -0.5921 H       1  UNL1        0.0293
     33 H           7.3803   -2.2102   -1.7234 H       1  UNL1        0.0293
     34 H           7.9848   -0.0589    0.5249 H       1  UNL1        0.0689
     35 H           6.6059    2.1476    2.3831 H       1  UNL1        0.2937
     36 H           1.3951   -1.4687   -0.2546 H       1  UNL1        0.0478
     37 H           1.4243   -0.2789   -1.5807 H       1  UNL1        0.0478
     38 H          -0.3275    0.8396   -1.5422 H       1  UNL1        0.0486
     39 H          -0.6729   -1.4467   -1.6200 H       1  UNL1        0.0576
     40 H          -1.1224   -1.5899    0.1182 H       1  UNL1        0.0576
     41 H          -3.1284   -1.5794    0.6839 H       1  UNL1        0.0663
     42 H          -4.4093    0.4995   -2.0524 H       1  UNL1        0.0651
     43 H          -7.7344   -1.1506    1.1770 H       1  UNL1        0.0676
     44 H          -3.5742    1.2645    1.0290 H       1  UNL1        0.0488
     45 H          -3.0933   -0.0251    2.7341 H       1  UNL1        0.1186
     46 H          -1.6954    0.9319    2.5197 H       1  UNL1        0.1186
     47 H          -1.3270    2.1106    0.6810 H       1  UNL1        0.0297
     48 H          -2.2392    1.7927   -0.8043 H       1  UNL1        0.0297
     49 H           1.0259    2.3668   -0.4030 H       1  UNL1        0.0492
     50 H           0.9349    2.1404    1.4231 H       1  UNL1        0.0492
@<TRIPOS>BOND
     1     1     2    1
     2     2     3   ar
     3     3     4   ar
     4     4     5    1
     5     4     6   ar
     6     6     7   ar
     7     7     8   ar
     8     8     9   ar
     9     9    10   ar
    10    10    11   ar
    11     9    12    1
    12    12    13    1
    13    13    14    1
    14    14    15    1
    15    15    16    1
    16    16    17    1
    17    17    18    1
    18    18    19   ar
    19    19    20   ar
    20    20    21    1
    21    20    22   ar
    22    22    23    1
    23    22    24   ar
    24    24    25   ar
    25    25    26    1
    26    17    27    1
    27    27    28    1
    28    27    29    1
    29    13    30    1
    30    11     2   ar
    31    29    14    1
    32    10     6   ar
    33    25    18   ar
    34    30     8    1
    35     1    31    1
    36     1    32    1
    37     1    33    1
    38     3    34    1
    39     5    35    1
    40    12    36    1
    41    12    37    1
    42    14    38    1
    43    15    39    1
    44    15    40    1
    45    17    41    1
    46    19    42    1
    47    24    43    1
    48    27    44    1
    49    28    45    1
    50    28    46    1
    51    29    47    1
    52    29    48    1
    53    30    49    1
    54    30    50    1
