
     RDKit          3D

 50 54  0  0  0  0  0  0  0  0999 V2000
    7.1236   -2.3102   -0.6606 C   0  0  0  0  0  0  0  0  0  0  0  0
    6.2760   -1.1545   -0.2238 C   0  0  0  0  0  0  0  0  0  0  0  0
    6.8941   -0.0797    0.3698 C   0  0  0  0  0  0  0  0  0  0  0  0
    6.1188    0.9814    0.7713 C   0  0  0  0  0  0  0  0  0  0  0  0
    6.7405    2.0617    1.3680 O   0  0  0  0  0  0  0  0  0  0  0  0
    4.8018    0.9329    0.5729 N   0  0  0  0  0  0  0  0  0  0  0  0
    3.8665    1.8052    0.8632 N   0  0  0  0  0  0  0  0  0  0  0  0
    2.6373    1.3590    0.4873 C   0  0  0  0  0  0  0  0  0  0  0  0
    2.8493    0.1272   -0.0704 C   0  0  0  0  0  0  0  0  0  0  0  0
    4.1915   -0.1292   -0.0137 C   0  0  0  0  0  0  0  0  0  0  0  0
    4.9470   -1.1752   -0.4106 N   0  0  0  0  0  0  0  0  0  0  0  0
    1.5374   -0.4182   -0.5034 C   0  0  0  0  0  0  0  0  0  0  0  0
    0.5778    0.3878    0.2582 N   0  0  0  0  0  0  0  0  0  0  0  0
   -0.6296    0.4364   -0.5412 C   0  0  1  0  0  0  0  0  0  0  0  0
   -1.1769   -0.9441   -0.7799 C   0  0  0  0  0  0  0  0  0  0  0  0
   -2.5402   -0.8730   -1.1183 O   0  0  0  0  0  0  0  0  0  0  0  0
   -3.2320   -0.6661    0.0640 C   0  0  2  0  0  0  0  0  0  0  0  0
   -4.6895   -0.4882   -0.1993 C   0  0  0  0  0  0  0  0  0  0  0  0
   -5.1580    0.1412   -1.3499 C   0  0  0  0  0  0  0  0  0  0  0  0
   -6.5083    0.2996   -1.5819 C   0  0  0  0  0  0  0  0  0  0  0  0
   -6.9515    0.9133   -2.7044 F   0  0  0  0  0  0  0  0  0  0  0  0
   -7.4502   -0.1581   -0.6852 C   0  0  0  0  0  0  0  0  0  0  0  0
   -8.7878   -0.0072   -0.9038 F   0  0  0  0  0  0  0  0  0  0  0  0
   -6.9943   -0.7825    0.4568 C   0  0  0  0  0  0  0  0  0  0  0  0
   -5.6441   -0.9403    0.6875 C   0  0  0  0  0  0  0  0  0  0  0  0
   -5.2047   -1.5585    1.8187 F   0  0  0  0  0  0  0  0  0  0  0  0
   -2.7358    0.5398    0.8258 C   0  0  1  0  0  0  0  0  0  0  0  0
   -2.2456    0.1167    2.1327 N   0  0  0  0  0  0  0  0  0  0  0  0
   -1.7035    1.2871    0.0426 C   0  0  0  0  0  0  0  0  0  0  0  0
    1.1853    1.6648    0.4382 C   0  0  0  0  0  0  0  0  0  0  0  0
    8.0161   -2.4347   -0.0135 H   0  0  0  0  0  0  0  0  0  0  0  0
    6.4619   -3.2197   -0.5921 H   0  0  0  0  0  0  0  0  0  0  0  0
    7.3803   -2.2102   -1.7234 H   0  0  0  0  0  0  0  0  0  0  0  0
    7.9848   -0.0589    0.5249 H   0  0  0  0  0  0  0  0  0  0  0  0
    6.6059    2.1476    2.3831 H   0  0  0  0  0  0  0  0  0  0  0  0
    1.3951   -1.4687   -0.2546 H   0  0  0  0  0  0  0  0  0  0  0  0
    1.4243   -0.2789   -1.5807 H   0  0  0  0  0  0  0  0  0  0  0  0
   -0.3275    0.8396   -1.5422 H   0  0  0  0  0  0  0  0  0  0  0  0
   -0.6729   -1.4467   -1.6200 H   0  0  0  0  0  0  0  0  0  0  0  0
   -1.1224   -1.5899    0.1182 H   0  0  0  0  0  0  0  0  0  0  0  0
   -3.1284   -1.5794    0.6839 H   0  0  0  0  0  0  0  0  0  0  0  0
   -4.4093    0.4995   -2.0524 H   0  0  0  0  0  0  0  0  0  0  0  0
   -7.7344   -1.1506    1.1770 H   0  0  0  0  0  0  0  0  0  0  0  0
   -3.5742    1.2645    1.0290 H   0  0  0  0  0  0  0  0  0  0  0  0
   -3.0933   -0.0251    2.7341 H   0  0  0  0  0  0  0  0  0  0  0  0
   -1.6954    0.9319    2.5197 H   0  0  0  0  0  0  0  0  0  0  0  0
   -1.3270    2.1106    0.6810 H   0  0  0  0  0  0  0  0  0  0  0  0
   -2.2392    1.7927   -0.8043 H   0  0  0  0  0  0  0  0  0  0  0  0
    1.0259    2.3668   -0.4030 H   0  0  0  0  0  0  0  0  0  0  0  0
    0.9349    2.1404    1.4231 H   0  0  0  0  0  0  0  0  0  0  0  0
  1  2  1  0
  2  3  1  0
  3  4  2  0
  4  5  1  0
  4  6  1  0
  6  7  1  0
  7  8  2  0
  8  9  1  0
  9 10  2  0
 10 11  1  0
  9 12  1  0
 12 13  1  0
 13 14  1  0
 14 15  1  0
 15 16  1  0
 16 17  1  0
 17 18  1  0
 18 19  2  0
 19 20  1  0
 20 21  1  0
 20 22  2  0
 22 23  1  0
 22 24  1  0
 24 25  2  0
 25 26  1  0
 17 27  1  0
 27 28  1  0
 27 29  1  0
 13 30  1  0
 11  2  2  0
 29 14  1  0
 10  6  1  0
 25 18  1  0
 30  8  1  0
  1 31  1  0
  1 32  1  0
  1 33  1  0
  3 34  1  0
  5 35  1  0
 12 36  1  0
 12 37  1  0
 14 38  1  6
 15 39  1  0
 15 40  1  0
 17 41  1  1
 19 42  1  0
 24 43  1  0
 27 44  1  1
 28 45  1  0
 28 46  1  0
 29 47  1  0
 29 48  1  0
 30 49  1  0
 30 50  1  0
M  END
$$$$
