@<TRIPOS>MOLECULE
*****
 40 41 0 0 0
SMALL
GASTEIGER

@<TRIPOS>ATOM
      1 C           0.5168   -1.6482    2.2488 C.3     1  UNL1       -0.0612
      2 C           0.1599   -0.2346    1.8604 C.3     1  UNL1       -0.0297
      3 C           0.5054    0.0447    0.4405 C.2     1  UNL1       -0.0368
      4 C          -0.4395    0.3804   -0.3903 C.2     1  UNL1       -0.0368
      5 C          -0.0628    0.6618   -1.8026 C.3     1  UNL1       -0.0297
      6 C          -0.7940   -0.3190   -2.6792 C.3     1  UNL1       -0.0612
      7 C          -1.8842    0.4659   -0.0613 C.ar    1  UNL1       -0.0214
      8 C          -2.5398    1.6110   -0.4385 C.ar    1  UNL1       -0.0509
      9 C          -3.8800    1.7457   -0.1985 C.ar    1  UNL1       -0.0196
     10 C          -4.6181    0.7585    0.4198 C.ar    1  UNL1        0.1169
     11 O          -5.9747    0.9222    0.6500 O.3     1  UNL1       -0.5068
     12 C          -3.9186   -0.3740    0.7814 C.ar    1  UNL1       -0.0196
     13 C          -2.5775   -0.5345    0.5532 C.ar    1  UNL1       -0.0509
     14 C           1.9101   -0.1362    0.0777 C.ar    1  UNL1       -0.0214
     15 C           2.8228    0.5301    0.8860 C.ar    1  UNL1       -0.0509
     16 C           4.1799    0.4203    0.6646 C.ar    1  UNL1       -0.0196
     17 C           4.6041   -0.3689   -0.3806 C.ar    1  UNL1        0.1169
     18 O           5.9842   -0.4931   -0.6229 O.3     1  UNL1       -0.5068
     19 C           3.7050   -1.0337   -1.1871 C.ar    1  UNL1       -0.0196
     20 C           2.3634   -0.9000   -0.9351 C.ar    1  UNL1       -0.0509
     21 H           1.5549   -1.7111    2.6641 H       1  UNL1        0.0233
     22 H          -0.1505   -2.0398    3.0305 H       1  UNL1        0.0233
     23 H           0.5504   -2.3171    1.3495 H       1  UNL1        0.0233
     24 H           0.8126    0.4109    2.5371 H       1  UNL1        0.0311
     25 H          -0.8613    0.0785    2.1449 H       1  UNL1        0.0311
     26 H           0.9916    0.7855   -1.9934 H       1  UNL1        0.0311
     27 H          -0.5155    1.6734   -2.0799 H       1  UNL1        0.0311
     28 H          -0.5197   -1.3637   -2.5486 H       1  UNL1        0.0233
     29 H          -1.8933   -0.2479   -2.4913 H       1  UNL1        0.0233
     30 H          -0.6060   -0.0636   -3.7599 H       1  UNL1        0.0233
     31 H          -2.0055    2.4175   -0.9257 H       1  UNL1        0.0625
     32 H          -4.4160    2.6656   -0.4986 H       1  UNL1        0.0654
     33 H          -6.2185    1.6817    1.3015 H       1  UNL1        0.2921
     34 H          -4.4752   -1.1759    1.2727 H       1  UNL1        0.0654
     35 H          -2.0477   -1.4560    0.8436 H       1  UNL1        0.0625
     36 H           2.4792    1.1628    1.7162 H       1  UNL1        0.0625
     37 H           4.9047    0.9481    1.3044 H       1  UNL1        0.0654
     38 H           6.6276    0.1425   -0.1749 H       1  UNL1        0.2921
     39 H           4.0746   -1.6628   -2.0217 H       1  UNL1        0.0654
     40 H           1.6513   -1.4268   -1.5567 H       1  UNL1        0.0625
@<TRIPOS>BOND
     1     1     2    1
     2     2     3    1
     3     3     4    2
     4     4     5    1
     5     5     6    1
     6     4     7    1
     7     7     8   ar
     8     8     9   ar
     9     9    10   ar
    10    10    11    1
    11    10    12   ar
    12    12    13   ar
    13     3    14    1
    14    14    15   ar
    15    15    16   ar
    16    16    17   ar
    17    17    18    1
    18    17    19   ar
    19    19    20   ar
    20    13     7   ar
    21    20    14   ar
    22     1    21    1
    23     1    22    1
    24     1    23    1
    25     2    24    1
    26     2    25    1
    27     5    26    1
    28     5    27    1
    29     6    28    1
    30     6    29    1
    31     6    30    1
    32     8    31    1
    33     9    32    1
    34    11    33    1
    35    12    34    1
    36    13    35    1
    37    15    36    1
    38    16    37    1
    39    18    38    1
    40    19    39    1
    41    20    40    1
