
     RDKit          3D

 40 41  0  0  0  0  0  0  0  0999 V2000
    0.5168   -1.6482    2.2488 C   0  0  0  0  0  0  0  0  0  0  0  0
    0.1599   -0.2346    1.8604 C   0  0  0  0  0  0  0  0  0  0  0  0
    0.5054    0.0447    0.4405 C   0  0  0  0  0  0  0  0  0  0  0  0
   -0.4395    0.3804   -0.3903 C   0  0  0  0  0  0  0  0  0  0  0  0
   -0.0628    0.6618   -1.8026 C   0  0  0  0  0  0  0  0  0  0  0  0
   -0.7940   -0.3190   -2.6792 C   0  0  0  0  0  0  0  0  0  0  0  0
   -1.8842    0.4659   -0.0613 C   0  0  0  0  0  0  0  0  0  0  0  0
   -2.5398    1.6110   -0.4385 C   0  0  0  0  0  0  0  0  0  0  0  0
   -3.8800    1.7457   -0.1985 C   0  0  0  0  0  0  0  0  0  0  0  0
   -4.6181    0.7585    0.4198 C   0  0  0  0  0  0  0  0  0  0  0  0
   -5.9747    0.9222    0.6500 O   0  0  0  0  0  0  0  0  0  0  0  0
   -3.9186   -0.3740    0.7814 C   0  0  0  0  0  0  0  0  0  0  0  0
   -2.5775   -0.5345    0.5532 C   0  0  0  0  0  0  0  0  0  0  0  0
    1.9101   -0.1362    0.0777 C   0  0  0  0  0  0  0  0  0  0  0  0
    2.8228    0.5301    0.8860 C   0  0  0  0  0  0  0  0  0  0  0  0
    4.1799    0.4203    0.6646 C   0  0  0  0  0  0  0  0  0  0  0  0
    4.6041   -0.3689   -0.3806 C   0  0  0  0  0  0  0  0  0  0  0  0
    5.9842   -0.4931   -0.6229 O   0  0  0  0  0  0  0  0  0  0  0  0
    3.7050   -1.0337   -1.1871 C   0  0  0  0  0  0  0  0  0  0  0  0
    2.3634   -0.9000   -0.9351 C   0  0  0  0  0  0  0  0  0  0  0  0
    1.5549   -1.7111    2.6641 H   0  0  0  0  0  0  0  0  0  0  0  0
   -0.1505   -2.0398    3.0305 H   0  0  0  0  0  0  0  0  0  0  0  0
    0.5504   -2.3171    1.3495 H   0  0  0  0  0  0  0  0  0  0  0  0
    0.8126    0.4109    2.5371 H   0  0  0  0  0  0  0  0  0  0  0  0
   -0.8613    0.0785    2.1449 H   0  0  0  0  0  0  0  0  0  0  0  0
    0.9916    0.7855   -1.9934 H   0  0  0  0  0  0  0  0  0  0  0  0
   -0.5155    1.6734   -2.0799 H   0  0  0  0  0  0  0  0  0  0  0  0
   -0.5197   -1.3637   -2.5486 H   0  0  0  0  0  0  0  0  0  0  0  0
   -1.8933   -0.2479   -2.4913 H   0  0  0  0  0  0  0  0  0  0  0  0
   -0.6060   -0.0636   -3.7599 H   0  0  0  0  0  0  0  0  0  0  0  0
   -2.0055    2.4175   -0.9257 H   0  0  0  0  0  0  0  0  0  0  0  0
   -4.4160    2.6656   -0.4986 H   0  0  0  0  0  0  0  0  0  0  0  0
   -6.2185    1.6817    1.3015 H   0  0  0  0  0  0  0  0  0  0  0  0
   -4.4752   -1.1759    1.2727 H   0  0  0  0  0  0  0  0  0  0  0  0
   -2.0477   -1.4560    0.8436 H   0  0  0  0  0  0  0  0  0  0  0  0
    2.4792    1.1628    1.7162 H   0  0  0  0  0  0  0  0  0  0  0  0
    4.9047    0.9481    1.3044 H   0  0  0  0  0  0  0  0  0  0  0  0
    6.6276    0.1425   -0.1749 H   0  0  0  0  0  0  0  0  0  0  0  0
    4.0746   -1.6628   -2.0217 H   0  0  0  0  0  0  0  0  0  0  0  0
    1.6513   -1.4268   -1.5567 H   0  0  0  0  0  0  0  0  0  0  0  0
  1  2  1  0
  2  3  1  0
  3  4  2  0
  4  5  1  0
  5  6  1  0
  4  7  1  0
  7  8  2  0
  8  9  1  0
  9 10  2  0
 10 11  1  0
 10 12  1  0
 12 13  2  0
  3 14  1  0
 14 15  2  0
 15 16  1  0
 16 17  2  0
 17 18  1  0
 17 19  1  0
 19 20  2  0
 13  7  1  0
 20 14  1  0
  1 21  1  0
  1 22  1  0
  1 23  1  0
  2 24  1  0
  2 25  1  0
  5 26  1  0
  5 27  1  0
  6 28  1  0
  6 29  1  0
  6 30  1  0
  8 31  1  0
  9 32  1  0
 11 33  1  0
 12 34  1  0
 13 35  1  0
 15 36  1  0
 16 37  1  0
 18 38  1  0
 19 39  1  0
 20 40  1  0
M  END
$$$$
