
     RDKit          3D

 54 58  0  0  0  0  0  0  0  0999 V2000
   -3.1982    0.4099    2.5005 C   0  0  0  0  0  0  0  0  0  0  0  0
   -2.4592   -0.5872    1.6197 C   0  0  0  0  0  0  0  0  0  0  0  0
   -1.7942    0.0159    0.5318 N   0  0  0  0  0  0  0  0  0  0  0  0
   -0.5390    0.4682    0.6990 C   0  0  0  0  0  0  0  0  0  0  0  0
   -0.0197    0.3221    1.8284 O   0  0  0  0  0  0  0  0  0  0  0  0
    0.1969    1.0727   -0.2830 C   0  0  0  0  0  0  0  0  0  0  0  0
    1.5695    1.5547   -0.0602 C   0  0  0  0  0  0  0  0  0  0  0  0
    2.6755    0.7688   -0.2712 C   0  0  0  0  0  0  0  0  0  0  0  0
    3.9607    1.2197   -0.0627 C   0  0  0  0  0  0  0  0  0  0  0  0
    5.1299    0.3822   -0.2880 C   0  0  0  0  0  0  0  0  0  0  0  0
    6.2692    0.8780   -0.0713 O   0  0  0  0  0  0  0  0  0  0  0  0
    5.0876   -0.9481   -0.7322 N   0  0  0  0  0  0  0  0  0  0  0  0
    6.2808   -1.7597   -0.9478 C   0  0  0  0  0  0  0  0  0  0  0  0
    6.3047   -2.8534   -1.9182 C   0  0  0  0  0  0  0  0  0  0  0  0
    6.2448   -3.1562   -0.4363 C   0  0  0  0  0  0  0  0  0  0  0  0
    4.0906    2.5188    0.3752 C   0  0  0  0  0  0  0  0  0  0  0  0
    3.0354    3.3631    0.6078 C   0  0  0  0  0  0  0  0  0  0  0  0
    3.2121    4.6373    1.0396 F   0  0  0  0  0  0  0  0  0  0  0  0
    1.7648    2.8481    0.3788 C   0  0  0  0  0  0  0  0  0  0  0  0
    0.5941    3.7439    0.6233 C   0  0  0  0  0  0  0  0  0  0  0  0
   -0.4016    1.2175   -1.5101 C   0  0  0  0  0  0  0  0  0  0  0  0
   -1.6881    0.7518   -1.6767 C   0  0  0  0  0  0  0  0  0  0  0  0
   -2.4809    0.7705   -2.7674 N   0  0  0  0  0  0  0  0  0  0  0  0
   -3.6131    0.2087   -2.4434 N   0  0  0  0  0  0  0  0  0  0  0  0
   -3.5671   -0.1782   -1.1467 C   0  0  0  0  0  0  0  0  0  0  0  0
   -4.6521   -0.8369   -0.4899 C   0  0  0  0  0  0  0  0  0  0  0  0
   -5.5997   -0.1382    0.2204 C   0  0  0  0  0  0  0  0  0  0  0  0
   -5.4551    1.2055    0.3013 F   0  0  0  0  0  0  0  0  0  0  0  0
   -6.6696   -0.7229    0.8358 C   0  0  0  0  0  0  0  0  0  0  0  0
   -6.7894   -2.0997    0.7264 C   0  0  0  0  0  0  0  0  0  0  0  0
   -5.8583   -2.8474    0.0200 C   0  0  0  0  0  0  0  0  0  0  0  0
   -4.7946   -2.2301   -0.5869 C   0  0  0  0  0  0  0  0  0  0  0  0
   -3.6365   -3.1737   -1.4675 Cl  0  0  0  0  0  0  0  0  0  0  0  0
   -2.3737    0.1510   -0.6434 N   0  0  0  0  0  0  0  0  0  0  0  0
   -3.3668    1.3697    1.9722 H   0  0  0  0  0  0  0  0  0  0  0  0
   -2.7114    0.5549    3.4879 H   0  0  0  0  0  0  0  0  0  0  0  0
   -4.1953   -0.0050    2.7343 H   0  0  0  0  0  0  0  0  0  0  0  0
   -1.6657   -1.0117    2.3336 H   0  0  0  0  0  0  0  0  0  0  0  0
   -3.1267   -1.4136    1.4613 H   0  0  0  0  0  0  0  0  0  0  0  0
    2.5278   -0.2414   -0.6138 H   0  0  0  0  0  0  0  0  0  0  0  0
    4.1728   -1.3929   -0.9217 H   0  0  0  0  0  0  0  0  0  0  0  0
    7.2153   -1.2076   -0.7218 H   0  0  0  0  0  0  0  0  0  0  0  0
    5.4214   -3.0871   -2.5471 H   0  0  0  0  0  0  0  0  0  0  0  0
    7.2827   -3.1024   -2.3993 H   0  0  0  0  0  0  0  0  0  0  0  0
    5.3245   -3.6470   -0.1113 H   0  0  0  0  0  0  0  0  0  0  0  0
    7.1641   -3.5771    0.0546 H   0  0  0  0  0  0  0  0  0  0  0  0
    5.1065    2.8958    0.5468 H   0  0  0  0  0  0  0  0  0  0  0  0
    0.8098    4.3020    1.5644 H   0  0  0  0  0  0  0  0  0  0  0  0
   -0.2964    3.1231    0.8325 H   0  0  0  0  0  0  0  0  0  0  0  0
    0.4462    4.4645   -0.1969 H   0  0  0  0  0  0  0  0  0  0  0  0
    0.1472    1.6864   -2.2985 H   0  0  0  0  0  0  0  0  0  0  0  0
   -7.4237   -0.1784    1.3997 H   0  0  0  0  0  0  0  0  0  0  0  0
   -7.6269   -2.5928    1.2034 H   0  0  0  0  0  0  0  0  0  0  0  0
   -6.0322   -3.9160   -0.0125 H   0  0  0  0  0  0  0  0  0  0  0  0
  1  2  1  0
  2  3  1  0
  3  4  1  0
  4  5  2  0
  4  6  1  0
  6  7  1  0
  7  8  2  0
  8  9  1  0
  9 10  1  0
 10 11  2  0
 10 12  1  0
 12 13  1  0
 13 14  1  0
 14 15  1  0
  9 16  2  0
 16 17  1  0
 17 18  1  0
 17 19  2  0
 19 20  1  0
  6 21  2  0
 21 22  1  0
 22 23  2  0
 23 24  1  0
 24 25  2  0
 25 26  1  0
 26 27  2  0
 27 28  1  0
 27 29  1  0
 29 30  2  0
 30 31  1  0
 31 32  2  0
 32 33  1  0
 25 34  1  0
 34  3  1  0
 19  7  1  0
 34 22  1  0
 15 13  1  0
 32 26  1  0
  1 35  1  0
  1 36  1  0
  1 37  1  0
  2 38  1  0
  2 39  1  0
  8 40  1  0
 12 41  1  0
 13 42  1  0
 14 43  1  0
 14 44  1  0
 15 45  1  0
 15 46  1  0
 16 47  1  0
 20 48  1  0
 20 49  1  0
 20 50  1  0
 21 51  1  0
 29 52  1  0
 30 53  1  0
 31 54  1  0
M  END
$$$$
