@<TRIPOS>MOLECULE
*****
 54 58 0 0 0
SMALL
GASTEIGER

@<TRIPOS>ATOM
      1 C          -3.1982    0.4099    2.5005 C.3     1  UNL1       -0.0454
      2 C          -2.4592   -0.5872    1.6197 C.3     1  UNL1        0.0411
      3 N          -1.7942    0.0159    0.5318 N.ar    1  UNL1       -0.2419
      4 C          -0.5390    0.4682    0.6990 C.ar    1  UNL1        0.2740
      5 O          -0.0197    0.3221    1.8284 O.2     1  UNL1       -0.2656
      6 C           0.1969    1.0727   -0.2830 C.ar    1  UNL1        0.0519
      7 C           1.5695    1.5547   -0.0602 C.ar    1  UNL1       -0.0062
      8 C           2.6755    0.7688   -0.2712 C.ar    1  UNL1       -0.0413
      9 C           3.9607    1.2197   -0.0627 C.ar    1  UNL1        0.0400
     10 C           5.1299    0.3822   -0.2880 C.2     1  UNL1        0.2444
     11 O           6.2692    0.8780   -0.0713 O.2     1  UNL1       -0.2702
     12 N           5.0876   -0.9481   -0.7322 N.am    1  UNL1       -0.3085
     13 C           6.2808   -1.7597   -0.9478 C.3     1  UNL1        0.0235
     14 C           6.3047   -2.8534   -1.9182 C.3     1  UNL1       -0.0328
     15 C           6.2448   -3.1562   -0.4363 C.3     1  UNL1       -0.0328
     16 C           4.0906    2.5188    0.3752 C.ar    1  UNL1       -0.0140
     17 C           3.0354    3.3631    0.6078 C.ar    1  UNL1        0.1276
     18 F           3.2121    4.6373    1.0396 F       1  UNL1       -0.2052
     19 C           1.7648    2.8481    0.3788 C.ar    1  UNL1       -0.0074
     20 C           0.5941    3.7439    0.6233 C.3     1  UNL1       -0.0364
     21 C          -0.4016    1.2175   -1.5101 C.ar    1  UNL1       -0.0027
     22 C          -1.6881    0.7518   -1.6767 C.ar    1  UNL1        0.1772
     23 N          -2.4809    0.7705   -2.7674 N.ar    1  UNL1       -0.1276
     24 N          -3.6131    0.2087   -2.4434 N.ar    1  UNL1       -0.1269
     25 C          -3.5671   -0.1782   -1.1467 C.ar    1  UNL1        0.1877
     26 C          -4.6521   -0.8369   -0.4899 C.ar    1  UNL1        0.0743
     27 C          -5.5997   -0.1382    0.2204 C.ar    1  UNL1        0.1355
     28 F          -5.4551    1.2055    0.3013 F       1  UNL1       -0.2047
     29 C          -6.6696   -0.7229    0.8358 C.ar    1  UNL1       -0.0257
     30 C          -6.7894   -2.0997    0.7264 C.ar    1  UNL1       -0.0576
     31 C          -5.8583   -2.8474    0.0200 C.ar    1  UNL1       -0.0425
     32 C          -4.7946   -2.2301   -0.5869 C.ar    1  UNL1        0.0545
     33 CL         -3.6365   -3.1737   -1.4675 Cl      1  UNL1       -0.0827
     34 N          -2.3737    0.1510   -0.6434 N.ar    1  UNL1       -0.2096
     35 H          -3.3668    1.3697    1.9722 H       1  UNL1        0.0247
     36 H          -2.7114    0.5549    3.4879 H       1  UNL1        0.0247
     37 H          -4.1953   -0.0050    2.7343 H       1  UNL1        0.0247
     38 H          -1.6657   -1.0117    2.3336 H       1  UNL1        0.0507
     39 H          -3.1267   -1.4136    1.4613 H       1  UNL1        0.0507
     40 H           2.5278   -0.2414   -0.6138 H       1  UNL1        0.0631
     41 H           4.1728   -1.3929   -0.9217 H       1  UNL1        0.1493
     42 H           7.2153   -1.2076   -0.7218 H       1  UNL1        0.0498
     43 H           5.4214   -3.0871   -2.5471 H       1  UNL1        0.0284
     44 H           7.2827   -3.1024   -2.3993 H       1  UNL1        0.0284
     45 H           5.3245   -3.6470   -0.1113 H       1  UNL1        0.0284
     46 H           7.1641   -3.5771    0.0546 H       1  UNL1        0.0284
     47 H           5.1065    2.8958    0.5468 H       1  UNL1        0.0654
     48 H           0.8098    4.3020    1.5644 H       1  UNL1        0.0279
     49 H          -0.2964    3.1231    0.8325 H       1  UNL1        0.0279
     50 H           0.4462    4.4645   -0.1969 H       1  UNL1        0.0279
     51 H           0.1472    1.6864   -2.2985 H       1  UNL1        0.0663
     52 H          -7.4237   -0.1784    1.3997 H       1  UNL1        0.0646
     53 H          -7.6269   -2.5928    1.2034 H       1  UNL1        0.0619
     54 H          -6.0322   -3.9160   -0.0125 H       1  UNL1        0.0632
@<TRIPOS>BOND
     1     1     2    1
     2     2     3    1
     3     3     4   ar
     4     4     5    2
     5     4     6   ar
     6     6     7    1
     7     7     8   ar
     8     8     9   ar
     9     9    10    1
    10    10    11    2
    11    10    12   am
    12    12    13    1
    13    13    14    1
    14    14    15    1
    15     9    16   ar
    16    16    17   ar
    17    17    18    1
    18    17    19   ar
    19    19    20    1
    20     6    21   ar
    21    21    22   ar
    22    22    23   ar
    23    23    24   ar
    24    24    25   ar
    25    25    26    1
    26    26    27   ar
    27    27    28    1
    28    27    29   ar
    29    29    30   ar
    30    30    31   ar
    31    31    32   ar
    32    32    33    1
    33    25    34   ar
    34    34     3   ar
    35    19     7   ar
    36    34    22   ar
    37    15    13    1
    38    32    26   ar
    39     1    35    1
    40     1    36    1
    41     1    37    1
    42     2    38    1
    43     2    39    1
    44     8    40    1
    45    12    41    1
    46    13    42    1
    47    14    43    1
    48    14    44    1
    49    15    45    1
    50    15    46    1
    51    16    47    1
    52    20    48    1
    53    20    49    1
    54    20    50    1
    55    21    51    1
    56    29    52    1
    57    30    53    1
    58    31    54    1
