@<TRIPOS>MOLECULE
*****
 37 40 0 0 0
SMALL
GASTEIGER

@<TRIPOS>ATOM
      1 F           5.1904    2.6997    0.1625 F       1  UNL1       -0.2055
      2 C           4.2492    1.7184    0.0641 C.ar    1  UNL1        0.1234
      3 C           4.0938    0.7854    1.0799 C.ar    1  UNL1       -0.0258
      4 C           3.1469   -0.2135    0.9971 C.ar    1  UNL1       -0.0498
      5 C           2.3370   -0.2739   -0.1369 C.ar    1  UNL1        0.0026
      6 C           1.3387   -1.3189   -0.2340 C.ar    1  UNL1        0.0967
      7 N           1.5958   -2.6328   -0.2414 N.ar    1  UNL1       -0.2351
      8 C           0.4119   -3.2936   -0.3447 C.ar    1  UNL1        0.0972
      9 N          -0.5739   -2.3918   -0.4010 N.ar    1  UNL1       -0.3242
     10 C          -2.0024   -2.6690   -0.5153 C.3     1  UNL1        0.0852
     11 C          -2.6376   -2.8016    0.8428 C.3     1  UNL1        0.2569
     12 F          -3.9917   -3.0633    0.6200 F       1  UNL1       -0.2073
     13 F          -2.1287   -3.9013    1.5055 F       1  UNL1       -0.2073
     14 C          -0.0198   -1.1867   -0.3343 C.ar    1  UNL1        0.0767
     15 C          -0.7361    0.0728   -0.3634 C.ar    1  UNL1        0.0056
     16 C          -1.0864    0.7285   -1.5189 C.ar    1  UNL1       -0.0342
     17 C          -1.7685    1.9261   -1.4528 C.ar    1  UNL1        0.0321
     18 N          -2.1110    2.4881   -0.2793 N.ar    1  UNL1       -0.2204
     19 N          -2.7602    3.6191    0.0414 N.ar    1  UNL1       -0.1536
     20 C          -2.8447    3.7223    1.3792 C.ar    1  UNL1        0.1390
     21 N          -2.2312    2.6267    1.8591 N.ar    1  UNL1       -0.2149
     22 C          -1.7700    1.8498    0.8512 C.ar    1  UNL1        0.1563
     23 C          -1.0860    0.6474    0.8306 C.ar    1  UNL1       -0.0082
     24 C           2.5105    0.6706   -1.1409 C.ar    1  UNL1       -0.0498
     25 C           3.4532    1.6629   -1.0552 C.ar    1  UNL1       -0.0258
     26 H           4.7565    0.8789    1.9485 H       1  UNL1        0.0646
     27 H           3.0281   -0.9492    1.8037 H       1  UNL1        0.0625
     28 H           0.3504   -4.3727   -0.3713 H       1  UNL1        0.1029
     29 H          -2.5143   -1.8656   -1.0891 H       1  UNL1        0.0548
     30 H          -2.1887   -3.6094   -1.0713 H       1  UNL1        0.0548
     31 H          -2.4994   -1.8956    1.4654 H       1  UNL1        0.1037
     32 H          -0.8047    0.2655   -2.4540 H       1  UNL1        0.0639
     33 H          -2.0321    2.4219   -2.3732 H       1  UNL1        0.0831
     34 H          -3.2949    4.4936    1.9896 H       1  UNL1        0.1066
     35 H          -0.8318    0.1680    1.7834 H       1  UNL1        0.0661
     36 H           1.8596    0.5827   -1.9999 H       1  UNL1        0.0625
     37 H           3.5920    2.4105   -1.8471 H       1  UNL1        0.0646
@<TRIPOS>BOND
     1     1     2    1
     2     2     3   ar
     3     3     4   ar
     4     4     5   ar
     5     5     6    1
     6     6     7   ar
     7     7     8   ar
     8     8     9   ar
     9     9    10    1
    10    10    11    1
    11    11    12    1
    12    11    13    1
    13     9    14   ar
    14    14    15    1
    15    15    16   ar
    16    16    17   ar
    17    17    18   ar
    18    18    19   ar
    19    19    20   ar
    20    20    21   ar
    21    21    22   ar
    22    22    23   ar
    23     5    24   ar
    24    24    25   ar
    25    25     2   ar
    26    14     6   ar
    27    23    15   ar
    28    22    18   ar
    29     3    26    1
    30     4    27    1
    31     8    28    1
    32    10    29    1
    33    10    30    1
    34    11    31    1
    35    16    32    1
    36    17    33    1
    37    20    34    1
    38    23    35    1
    39    24    36    1
    40    25    37    1
