@<TRIPOS>MOLECULE
*****
 37 39 0 0 0
SMALL
GASTEIGER

@<TRIPOS>ATOM
      1 O          -4.5674    2.7617   -1.0954 O.2     1  UNL1       -0.2451
      2 C          -4.9731    1.8677   -0.3329 C.2     1  UNL1        0.3369
      3 O          -6.1869    2.0447    0.3038 O.3     1  UNL1       -0.4771
      4 C          -4.1610    0.6696   -0.1360 C.ar    1  UNL1        0.0607
      5 C          -4.6460   -0.2980    0.7172 C.ar    1  UNL1       -0.0477
      6 C          -3.8874   -1.4320    0.9096 C.ar    1  UNL1       -0.0591
      7 C          -2.6700   -1.5787    0.2533 C.ar    1  UNL1       -0.0353
      8 C          -2.1759   -0.6162   -0.6024 C.ar    1  UNL1        0.1063
      9 S          -0.6469   -0.8170   -1.4158 S.O2    1  UNL1        0.0612
     10 O          -0.4350   -2.2980   -1.6285 O.2     1  UNL1       -0.1528
     11 O          -0.7506   -0.1802   -2.7688 O.2     1  UNL1       -0.1528
     12 N           0.6738   -0.1761   -0.5133 N.3     1  UNL1       -0.1720
     13 C           0.8510   -0.8100    0.7453 C.3     1  UNL1        0.0248
     14 C           2.2191   -1.3659    1.0114 C.3     1  UNL1       -0.0129
     15 C           3.2189   -0.3453    0.6172 C.ar    1  UNL1       -0.0416
     16 C           4.3091   -0.0124    1.3932 C.ar    1  UNL1       -0.0582
     17 C           5.1905    0.9488    0.9504 C.ar    1  UNL1       -0.0615
     18 C           4.9704    1.5727   -0.2751 C.ar    1  UNL1       -0.0614
     19 C           3.8866    1.2555   -1.0677 C.ar    1  UNL1       -0.0570
     20 C           3.0212    0.2865   -0.5939 C.ar    1  UNL1       -0.0285
     21 C           1.8247   -0.1290   -1.3678 C.3     1  UNL1        0.0458
     22 C          -2.9523    0.5164   -0.7831 C.ar    1  UNL1       -0.0214
     23 H          -6.5297    2.9795    0.5729 H       1  UNL1        0.2954
     24 H          -5.5998   -0.1580    1.2169 H       1  UNL1        0.0626
     25 H          -4.2820   -2.1812    1.5818 H       1  UNL1        0.0618
     26 H          -2.0915   -2.4602    0.4090 H       1  UNL1        0.0637
     27 H           0.0818   -1.6087    0.9506 H       1  UNL1        0.0447
     28 H           0.6589   -0.0490    1.5578 H       1  UNL1        0.0447
     29 H           2.3216   -2.2999    0.4011 H       1  UNL1        0.0326
     30 H           2.2796   -1.6299    2.0835 H       1  UNL1        0.0326
     31 H           4.5002   -0.4793    2.3415 H       1  UNL1        0.0620
     32 H           6.0552    1.2543    1.5018 H       1  UNL1        0.0618
     33 H           5.6726    2.3351   -0.6228 H       1  UNL1        0.0618
     34 H           3.7180    1.7495   -2.0314 H       1  UNL1        0.0621
     35 H           1.6503    0.5674   -2.1894 H       1  UNL1        0.0493
     36 H           2.0230   -1.1484   -1.8106 H       1  UNL1        0.0493
     37 H          -2.5709    1.2640   -1.4464 H       1  UNL1        0.0645
@<TRIPOS>BOND
     1     1     2    2
     2     2     3    1
     3     2     4    1
     4     4     5   ar
     5     5     6   ar
     6     6     7   ar
     7     7     8   ar
     8     8     9    1
     9     9    10    2
    10     9    11    2
    11     9    12    1
    12    12    13    1
    13    13    14    1
    14    14    15    1
    15    15    16   ar
    16    16    17   ar
    17    17    18   ar
    18    18    19   ar
    19    19    20   ar
    20    20    21    1
    21     8    22   ar
    22    22     4   ar
    23    21    12    1
    24    20    15   ar
    25     3    23    1
    26     5    24    1
    27     6    25    1
    28     7    26    1
    29    13    27    1
    30    13    28    1
    31    14    29    1
    32    14    30    1
    33    16    31    1
    34    17    32    1
    35    18    33    1
    36    19    34    1
    37    21    35    1
    38    21    36    1
    39    22    37    1
