
     RDKit          3D

 37 39  0  0  0  0  0  0  0  0999 V2000
   -4.5674    2.7617   -1.0954 O   0  0  0  0  0  0  0  0  0  0  0  0
   -4.9731    1.8677   -0.3329 C   0  0  0  0  0  0  0  0  0  0  0  0
   -6.1869    2.0447    0.3038 O   0  0  0  0  0  0  0  0  0  0  0  0
   -4.1610    0.6696   -0.1360 C   0  0  0  0  0  0  0  0  0  0  0  0
   -4.6460   -0.2980    0.7172 C   0  0  0  0  0  0  0  0  0  0  0  0
   -3.8874   -1.4320    0.9096 C   0  0  0  0  0  0  0  0  0  0  0  0
   -2.6700   -1.5787    0.2533 C   0  0  0  0  0  0  0  0  0  0  0  0
   -2.1759   -0.6162   -0.6024 C   0  0  0  0  0  0  0  0  0  0  0  0
   -0.6469   -0.8170   -1.4158 S   0  0  0  0  0  6  0  0  0  0  0  0
   -0.4350   -2.2980   -1.6285 O   0  0  0  0  0  0  0  0  0  0  0  0
   -0.7506   -0.1802   -2.7688 O   0  0  0  0  0  0  0  0  0  0  0  0
    0.6738   -0.1761   -0.5133 N   0  0  0  0  0  0  0  0  0  0  0  0
    0.8510   -0.8100    0.7453 C   0  0  0  0  0  0  0  0  0  0  0  0
    2.2191   -1.3659    1.0114 C   0  0  0  0  0  0  0  0  0  0  0  0
    3.2189   -0.3453    0.6172 C   0  0  0  0  0  0  0  0  0  0  0  0
    4.3091   -0.0124    1.3932 C   0  0  0  0  0  0  0  0  0  0  0  0
    5.1905    0.9488    0.9504 C   0  0  0  0  0  0  0  0  0  0  0  0
    4.9704    1.5727   -0.2751 C   0  0  0  0  0  0  0  0  0  0  0  0
    3.8866    1.2555   -1.0677 C   0  0  0  0  0  0  0  0  0  0  0  0
    3.0212    0.2865   -0.5939 C   0  0  0  0  0  0  0  0  0  0  0  0
    1.8247   -0.1290   -1.3678 C   0  0  0  0  0  0  0  0  0  0  0  0
   -2.9523    0.5164   -0.7831 C   0  0  0  0  0  0  0  0  0  0  0  0
   -6.5297    2.9795    0.5729 H   0  0  0  0  0  0  0  0  0  0  0  0
   -5.5998   -0.1580    1.2169 H   0  0  0  0  0  0  0  0  0  0  0  0
   -4.2820   -2.1812    1.5818 H   0  0  0  0  0  0  0  0  0  0  0  0
   -2.0915   -2.4602    0.4090 H   0  0  0  0  0  0  0  0  0  0  0  0
    0.0818   -1.6087    0.9506 H   0  0  0  0  0  0  0  0  0  0  0  0
    0.6589   -0.0490    1.5578 H   0  0  0  0  0  0  0  0  0  0  0  0
    2.3216   -2.2999    0.4011 H   0  0  0  0  0  0  0  0  0  0  0  0
    2.2796   -1.6299    2.0835 H   0  0  0  0  0  0  0  0  0  0  0  0
    4.5002   -0.4793    2.3415 H   0  0  0  0  0  0  0  0  0  0  0  0
    6.0552    1.2543    1.5018 H   0  0  0  0  0  0  0  0  0  0  0  0
    5.6726    2.3351   -0.6228 H   0  0  0  0  0  0  0  0  0  0  0  0
    3.7180    1.7495   -2.0314 H   0  0  0  0  0  0  0  0  0  0  0  0
    1.6503    0.5674   -2.1894 H   0  0  0  0  0  0  0  0  0  0  0  0
    2.0230   -1.1484   -1.8106 H   0  0  0  0  0  0  0  0  0  0  0  0
   -2.5709    1.2640   -1.4464 H   0  0  0  0  0  0  0  0  0  0  0  0
  1  2  2  0
  2  3  1  0
  2  4  1  0
  4  5  2  0
  5  6  1  0
  6  7  2  0
  7  8  1  0
  8  9  1  0
  9 10  2  0
  9 11  2  0
  9 12  1  0
 12 13  1  0
 13 14  1  0
 14 15  1  0
 15 16  2  0
 16 17  1  0
 17 18  2  0
 18 19  1  0
 19 20  2  0
 20 21  1  0
  8 22  2  0
 22  4  1  0
 21 12  1  0
 20 15  1  0
  3 23  1  0
  5 24  1  0
  6 25  1  0
  7 26  1  0
 13 27  1  0
 13 28  1  0
 14 29  1  0
 14 30  1  0
 16 31  1  0
 17 32  1  0
 18 33  1  0
 19 34  1  0
 21 35  1  0
 21 36  1  0
 22 37  1  0
M  END
$$$$
