@<TRIPOS>MOLECULE
*****
 56 60 0 0 0
SMALL
GASTEIGER

@<TRIPOS>ATOM
      1 C          -3.6547   -1.4463    3.3385 C.3     1  UNL1       -0.0134
      2 S          -3.1860   -0.3750    1.9421 S.3     1  UNL1       -0.1268
      3 C          -3.9063   -0.9599    0.4276 C.ar    1  UNL1        0.0288
      4 C          -4.7125   -2.1045    0.4313 C.ar    1  UNL1       -0.0465
      5 C          -5.3137   -2.5749   -0.7186 C.ar    1  UNL1       -0.0606
      6 C          -5.1185   -1.9036   -1.9048 C.ar    1  UNL1       -0.0599
      7 C          -4.3242   -0.7779   -1.9047 C.ar    1  UNL1       -0.0394
      8 C          -3.7182   -0.3017   -0.7552 C.ar    1  UNL1        0.0460
      9 N          -2.9290    0.8693   -0.7895 N.pl3   1  UNL1       -0.2967
     10 C          -1.5354    0.8959   -0.5157 C.ar    1  UNL1        0.1544
     11 N          -0.8660    2.0647   -0.3632 N.ar    1  UNL1       -0.1970
     12 C           0.4515    2.1441   -0.1280 C.ar    1  UNL1        0.2203
     13 N           1.1079    3.3904    0.0232 N.pl3   1  UNL1       -0.2972
     14 C           0.3939    4.6548   -0.0670 C.3     1  UNL1        0.0274
     15 C           1.0710    5.5789    0.9492 C.3     1  UNL1        0.0118
     16 N           2.3716    5.9286    0.4447 N.3     1  UNL1       -0.3130
     17 C           3.0884    4.8224   -0.1367 C.3     1  UNL1        0.0118
     18 C           2.5280    3.4820    0.2749 C.3     1  UNL1        0.0274
     19 N           1.1687    1.0100   -0.0343 N.ar    1  UNL1       -0.2092
     20 C           0.5878   -0.2090   -0.1731 C.ar    1  UNL1        0.1357
     21 C           1.3658   -1.3410   -0.0799 C.ar    1  UNL1        0.1484
     22 N           2.7560   -1.2571    0.1706 N.pl3   1  UNL1       -0.3270
     23 C           3.5465   -2.4489    0.2644 C.3     1  UNL1        0.0133
     24 C           3.5134   -3.2820   -1.0088 C.3     1  UNL1       -0.0255
     25 C           4.3467   -4.5488   -0.9236 C.3     1  UNL1       -0.0485
     26 C           2.8718   -4.6304   -0.9183 C.3     1  UNL1       -0.0485
     27 N           0.7403   -2.5206   -0.2377 N.ar    1  UNL1       -0.2187
     28 C          -0.5853   -2.5833   -0.4753 C.ar    1  UNL1        0.1190
     29 N          -1.3291   -1.4732   -0.5628 N.ar    1  UNL1       -0.2303
     30 C          -0.7732   -0.2495   -0.4152 C.ar    1  UNL1        0.1343
     31 H          -3.0011   -2.3237    3.4228 H       1  UNL1        0.0344
     32 H          -4.7162   -1.7929    3.2492 H       1  UNL1        0.0344
     33 H          -3.6246   -0.8101    4.2532 H       1  UNL1        0.0344
     34 H          -4.8688   -2.6360    1.3618 H       1  UNL1        0.0629
     35 H          -5.9416   -3.4807   -0.6723 H       1  UNL1        0.0618
     36 H          -5.5798   -2.2537   -2.8180 H       1  UNL1        0.0618
     37 H          -4.1424   -0.2162   -2.8152 H       1  UNL1        0.0636
     38 H          -3.3752    1.8049   -1.0321 H       1  UNL1        0.1537
     39 H           0.3813    5.0787   -1.0691 H       1  UNL1        0.0477
     40 H          -0.6576    4.4360    0.2298 H       1  UNL1        0.0477
     41 H           0.4431    6.4946    0.9927 H       1  UNL1        0.0439
     42 H           1.1040    5.0326    1.9147 H       1  UNL1        0.0439
     43 H           2.9290    6.4885    1.0958 H       1  UNL1        0.1220
     44 H           4.1413    4.8555    0.2109 H       1  UNL1        0.0439
     45 H           3.0986    4.9211   -1.2318 H       1  UNL1        0.0439
     46 H           3.0888    2.7071   -0.2877 H       1  UNL1        0.0477
     47 H           2.7067    3.2928    1.3481 H       1  UNL1        0.0477
     48 H           3.1852   -0.3194    0.2836 H       1  UNL1        0.1475
     49 H           3.2310   -3.0957    1.1278 H       1  UNL1        0.0464
     50 H           4.6223   -2.2286    0.4517 H       1  UNL1        0.0464
     51 H           3.4835   -2.7452   -1.9696 H       1  UNL1        0.0316
     52 H           4.9275   -4.8515   -1.8394 H       1  UNL1        0.0269
     53 H           4.9024   -4.7595    0.0075 H       1  UNL1        0.0269
     54 H           2.3809   -4.9020    0.0430 H       1  UNL1        0.0269
     55 H           2.3213   -4.9572   -1.8225 H       1  UNL1        0.0269
     56 H          -0.9964   -3.5937   -0.5889 H       1  UNL1        0.1048
@<TRIPOS>BOND
     1     1     2    1
     2     2     3    1
     3     3     4   ar
     4     4     5   ar
     5     5     6   ar
     6     6     7   ar
     7     7     8   ar
     8     8     9    1
     9     9    10    1
    10    10    11   ar
    11    11    12   ar
    12    12    13    1
    13    13    14    1
    14    14    15    1
    15    15    16    1
    16    16    17    1
    17    17    18    1
    18    12    19   ar
    19    19    20   ar
    20    20    21   ar
    21    21    22    1
    22    22    23    1
    23    23    24    1
    24    24    25    1
    25    25    26    1
    26    21    27   ar
    27    27    28   ar
    28    28    29   ar
    29    29    30   ar
    30     8     3   ar
    31    30    10   ar
    32    18    13    1
    33    30    20   ar
    34    26    24    1
    35     1    31    1
    36     1    32    1
    37     1    33    1
    38     4    34    1
    39     5    35    1
    40     6    36    1
    41     7    37    1
    42     9    38    1
    43    14    39    1
    44    14    40    1
    45    15    41    1
    46    15    42    1
    47    16    43    1
    48    17    44    1
    49    17    45    1
    50    18    46    1
    51    18    47    1
    52    22    48    1
    53    23    49    1
    54    23    50    1
    55    24    51    1
    56    25    52    1
    57    25    53    1
    58    26    54    1
    59    26    55    1
    60    28    56    1
