
     RDKit          3D

 56 60  0  0  0  0  0  0  0  0999 V2000
   -3.6547   -1.4463    3.3385 C   0  0  0  0  0  0  0  0  0  0  0  0
   -3.1860   -0.3750    1.9421 S   0  0  0  0  0  0  0  0  0  0  0  0
   -3.9063   -0.9599    0.4276 C   0  0  0  0  0  0  0  0  0  0  0  0
   -4.7125   -2.1045    0.4313 C   0  0  0  0  0  0  0  0  0  0  0  0
   -5.3137   -2.5749   -0.7186 C   0  0  0  0  0  0  0  0  0  0  0  0
   -5.1185   -1.9036   -1.9048 C   0  0  0  0  0  0  0  0  0  0  0  0
   -4.3242   -0.7779   -1.9047 C   0  0  0  0  0  0  0  0  0  0  0  0
   -3.7182   -0.3017   -0.7552 C   0  0  0  0  0  0  0  0  0  0  0  0
   -2.9290    0.8693   -0.7895 N   0  0  0  0  0  0  0  0  0  0  0  0
   -1.5354    0.8959   -0.5157 C   0  0  0  0  0  0  0  0  0  0  0  0
   -0.8660    2.0647   -0.3632 N   0  0  0  0  0  0  0  0  0  0  0  0
    0.4515    2.1441   -0.1280 C   0  0  0  0  0  0  0  0  0  0  0  0
    1.1079    3.3904    0.0232 N   0  0  0  0  0  0  0  0  0  0  0  0
    0.3939    4.6548   -0.0670 C   0  0  0  0  0  0  0  0  0  0  0  0
    1.0710    5.5789    0.9492 C   0  0  0  0  0  0  0  0  0  0  0  0
    2.3716    5.9286    0.4447 N   0  0  0  0  0  0  0  0  0  0  0  0
    3.0884    4.8224   -0.1367 C   0  0  0  0  0  0  0  0  0  0  0  0
    2.5280    3.4820    0.2749 C   0  0  0  0  0  0  0  0  0  0  0  0
    1.1687    1.0100   -0.0343 N   0  0  0  0  0  0  0  0  0  0  0  0
    0.5878   -0.2090   -0.1731 C   0  0  0  0  0  0  0  0  0  0  0  0
    1.3658   -1.3410   -0.0799 C   0  0  0  0  0  0  0  0  0  0  0  0
    2.7560   -1.2571    0.1706 N   0  0  0  0  0  0  0  0  0  0  0  0
    3.5465   -2.4489    0.2644 C   0  0  0  0  0  0  0  0  0  0  0  0
    3.5134   -3.2820   -1.0088 C   0  0  0  0  0  0  0  0  0  0  0  0
    4.3467   -4.5488   -0.9236 C   0  0  0  0  0  0  0  0  0  0  0  0
    2.8718   -4.6304   -0.9183 C   0  0  0  0  0  0  0  0  0  0  0  0
    0.7403   -2.5206   -0.2377 N   0  0  0  0  0  0  0  0  0  0  0  0
   -0.5853   -2.5833   -0.4753 C   0  0  0  0  0  0  0  0  0  0  0  0
   -1.3291   -1.4732   -0.5628 N   0  0  0  0  0  0  0  0  0  0  0  0
   -0.7732   -0.2495   -0.4152 C   0  0  0  0  0  0  0  0  0  0  0  0
   -3.0011   -2.3237    3.4228 H   0  0  0  0  0  0  0  0  0  0  0  0
   -4.7162   -1.7929    3.2492 H   0  0  0  0  0  0  0  0  0  0  0  0
   -3.6246   -0.8101    4.2532 H   0  0  0  0  0  0  0  0  0  0  0  0
   -4.8688   -2.6360    1.3618 H   0  0  0  0  0  0  0  0  0  0  0  0
   -5.9416   -3.4807   -0.6723 H   0  0  0  0  0  0  0  0  0  0  0  0
   -5.5798   -2.2537   -2.8180 H   0  0  0  0  0  0  0  0  0  0  0  0
   -4.1424   -0.2162   -2.8152 H   0  0  0  0  0  0  0  0  0  0  0  0
   -3.3752    1.8049   -1.0321 H   0  0  0  0  0  0  0  0  0  0  0  0
    0.3813    5.0787   -1.0691 H   0  0  0  0  0  0  0  0  0  0  0  0
   -0.6576    4.4360    0.2298 H   0  0  0  0  0  0  0  0  0  0  0  0
    0.4431    6.4946    0.9927 H   0  0  0  0  0  0  0  0  0  0  0  0
    1.1040    5.0326    1.9147 H   0  0  0  0  0  0  0  0  0  0  0  0
    2.9290    6.4885    1.0958 H   0  0  0  0  0  0  0  0  0  0  0  0
    4.1413    4.8555    0.2109 H   0  0  0  0  0  0  0  0  0  0  0  0
    3.0986    4.9211   -1.2318 H   0  0  0  0  0  0  0  0  0  0  0  0
    3.0888    2.7071   -0.2877 H   0  0  0  0  0  0  0  0  0  0  0  0
    2.7067    3.2928    1.3481 H   0  0  0  0  0  0  0  0  0  0  0  0
    3.1852   -0.3194    0.2836 H   0  0  0  0  0  0  0  0  0  0  0  0
    3.2310   -3.0957    1.1278 H   0  0  0  0  0  0  0  0  0  0  0  0
    4.6223   -2.2286    0.4517 H   0  0  0  0  0  0  0  0  0  0  0  0
    3.4835   -2.7452   -1.9696 H   0  0  0  0  0  0  0  0  0  0  0  0
    4.9275   -4.8515   -1.8394 H   0  0  0  0  0  0  0  0  0  0  0  0
    4.9024   -4.7595    0.0075 H   0  0  0  0  0  0  0  0  0  0  0  0
    2.3809   -4.9020    0.0430 H   0  0  0  0  0  0  0  0  0  0  0  0
    2.3213   -4.9572   -1.8225 H   0  0  0  0  0  0  0  0  0  0  0  0
   -0.9964   -3.5937   -0.5889 H   0  0  0  0  0  0  0  0  0  0  0  0
  1  2  1  0
  2  3  1  0
  3  4  2  0
  4  5  1  0
  5  6  2  0
  6  7  1  0
  7  8  2  0
  8  9  1  0
  9 10  1  0
 10 11  2  0
 11 12  1  0
 12 13  1  0
 13 14  1  0
 14 15  1  0
 15 16  1  0
 16 17  1  0
 17 18  1  0
 12 19  2  0
 19 20  1  0
 20 21  2  0
 21 22  1  0
 22 23  1  0
 23 24  1  0
 24 25  1  0
 25 26  1  0
 21 27  1  0
 27 28  2  0
 28 29  1  0
 29 30  2  0
  8  3  1  0
 30 10  1  0
 18 13  1  0
 30 20  1  0
 26 24  1  0
  1 31  1  0
  1 32  1  0
  1 33  1  0
  4 34  1  0
  5 35  1  0
  6 36  1  0
  7 37  1  0
  9 38  1  0
 14 39  1  0
 14 40  1  0
 15 41  1  0
 15 42  1  0
 16 43  1  0
 17 44  1  0
 17 45  1  0
 18 46  1  0
 18 47  1  0
 22 48  1  0
 23 49  1  0
 23 50  1  0
 24 51  1  0
 25 52  1  0
 25 53  1  0
 26 54  1  0
 26 55  1  0
 28 56  1  0
M  END
$$$$
