@<TRIPOS>MOLECULE
*****
 30 30 0 0 0
SMALL
GASTEIGER

@<TRIPOS>ATOM
      1 N          -5.2584   -1.7773    0.0273 N.pl3   1  UNL1       -0.3580
      2 C          -4.1063   -0.9977    0.3175 C.ar    1  UNL1        0.0247
      3 C          -3.4330   -1.2164    1.5207 C.ar    1  UNL1       -0.0392
      4 C          -2.3157   -0.4493    1.7853 C.ar    1  UNL1       -0.0333
      5 C          -1.8770    0.5149    0.8728 C.ar    1  UNL1        0.1087
      6 C          -2.5339    0.7402   -0.3194 C.ar    1  UNL1       -0.0333
      7 C          -3.6490   -0.0333   -0.5712 C.ar    1  UNL1       -0.0392
      8 S          -0.4531    1.3596    1.4138 S.O2    1  UNL1        0.0756
      9 O          -0.5419    2.7681    0.8476 O.2     1  UNL1       -0.1499
     10 O          -0.4298    1.5287    2.9069 O.2     1  UNL1       -0.1499
     11 N           0.9916    0.5792    0.9010 N.am    1  UNL1       -0.1693
     12 C           1.7413    0.7715   -0.2913 C.2     1  UNL1        0.3189
     13 O           1.3253    1.6261   -1.1207 O.2     1  UNL1       -0.2512
     14 N           2.9135    0.0254   -0.5321 N.am    1  UNL1       -0.2974
     15 C           3.6357    0.2675   -1.7692 C.3     1  UNL1        0.0219
     16 C           4.8421   -0.6535   -1.7795 C.3     1  UNL1        0.0063
     17 S           5.8536   -0.2420   -0.3304 S.3     1  UNL1       -0.1767
     18 H          -6.1171   -1.4282   -0.4352 H       1  UNL1        0.1423
     19 H          -5.3249   -2.7919    0.2671 H       1  UNL1        0.1423
     20 H          -3.8053   -1.9698    2.1958 H       1  UNL1        0.0636
     21 H          -1.8529   -0.6723    2.7239 H       1  UNL1        0.0638
     22 H          -2.1268    1.4965   -0.9540 H       1  UNL1        0.0638
     23 H          -4.1710    0.1452   -1.5179 H       1  UNL1        0.0636
     24 H           1.3705   -0.1481    1.5772 H       1  UNL1        0.1781
     25 H           3.2212   -0.6611    0.1656 H       1  UNL1        0.1503
     26 H           4.0179    1.3232   -1.7672 H       1  UNL1        0.0470
     27 H           3.0014    0.0750   -2.6649 H       1  UNL1        0.0470
     28 H           5.4453   -0.5666   -2.6899 H       1  UNL1        0.0389
     29 H           4.4785   -1.6987   -1.6067 H       1  UNL1        0.0389
     30 H           5.1582   -0.6293    0.8274 H       1  UNL1        0.1017
@<TRIPOS>BOND
     1     1     2    1
     2     2     3   ar
     3     3     4   ar
     4     4     5   ar
     5     5     6   ar
     6     6     7   ar
     7     5     8    1
     8     8     9    2
     9     8    10    2
    10     8    11    1
    11    11    12   am
    12    12    13    2
    13    12    14   am
    14    14    15    1
    15    15    16    1
    16    16    17    1
    17     7     2   ar
    18     1    18    1
    19     1    19    1
    20     3    20    1
    21     4    21    1
    22     6    22    1
    23     7    23    1
    24    11    24    1
    25    14    25    1
    26    15    26    1
    27    15    27    1
    28    16    28    1
    29    16    29    1
    30    17    30    1
