
     RDKit          3D

 30 30  0  0  0  0  0  0  0  0999 V2000
   -5.2584   -1.7773    0.0273 N   0  0  0  0  0  0  0  0  0  0  0  0
   -4.1063   -0.9977    0.3175 C   0  0  0  0  0  0  0  0  0  0  0  0
   -3.4330   -1.2164    1.5207 C   0  0  0  0  0  0  0  0  0  0  0  0
   -2.3157   -0.4493    1.7853 C   0  0  0  0  0  0  0  0  0  0  0  0
   -1.8770    0.5149    0.8728 C   0  0  0  0  0  0  0  0  0  0  0  0
   -2.5339    0.7402   -0.3194 C   0  0  0  0  0  0  0  0  0  0  0  0
   -3.6490   -0.0333   -0.5712 C   0  0  0  0  0  0  0  0  0  0  0  0
   -0.4531    1.3596    1.4138 S   0  0  0  0  0  0  0  0  0  0  0  0
   -0.5419    2.7681    0.8476 O   0  0  0  0  0  0  0  0  0  0  0  0
   -0.4298    1.5287    2.9069 O   0  0  0  0  0  0  0  0  0  0  0  0
    0.9916    0.5792    0.9010 N   0  0  0  0  0  0  0  0  0  0  0  0
    1.7413    0.7715   -0.2913 C   0  0  0  0  0  0  0  0  0  0  0  0
    1.3253    1.6261   -1.1207 O   0  0  0  0  0  0  0  0  0  0  0  0
    2.9135    0.0254   -0.5321 N   0  0  0  0  0  0  0  0  0  0  0  0
    3.6357    0.2675   -1.7692 C   0  0  0  0  0  0  0  0  0  0  0  0
    4.8421   -0.6535   -1.7795 C   0  0  0  0  0  0  0  0  0  0  0  0
    5.8536   -0.2420   -0.3304 S   0  0  0  0  0  0  0  0  0  0  0  0
   -6.1171   -1.4282   -0.4352 H   0  0  0  0  0  0  0  0  0  0  0  0
   -5.3249   -2.7919    0.2671 H   0  0  0  0  0  0  0  0  0  0  0  0
   -3.8053   -1.9698    2.1958 H   0  0  0  0  0  0  0  0  0  0  0  0
   -1.8529   -0.6723    2.7239 H   0  0  0  0  0  0  0  0  0  0  0  0
   -2.1268    1.4965   -0.9540 H   0  0  0  0  0  0  0  0  0  0  0  0
   -4.1710    0.1452   -1.5179 H   0  0  0  0  0  0  0  0  0  0  0  0
    1.3705   -0.1481    1.5772 H   0  0  0  0  0  0  0  0  0  0  0  0
    3.2212   -0.6611    0.1656 H   0  0  0  0  0  0  0  0  0  0  0  0
    4.0179    1.3232   -1.7672 H   0  0  0  0  0  0  0  0  0  0  0  0
    3.0014    0.0750   -2.6649 H   0  0  0  0  0  0  0  0  0  0  0  0
    5.4453   -0.5666   -2.6899 H   0  0  0  0  0  0  0  0  0  0  0  0
    4.4785   -1.6987   -1.6067 H   0  0  0  0  0  0  0  0  0  0  0  0
    5.1582   -0.6293    0.8274 H   0  0  0  0  0  0  0  0  0  0  0  0
  1  2  1  0
  2  3  2  0
  3  4  1  0
  4  5  2  0
  5  6  1  0
  6  7  2  0
  5  8  1  0
  8  9  2  0
  8 10  2  0
  8 11  1  0
 11 12  1  0
 12 13  2  0
 12 14  1  0
 14 15  1  0
 15 16  1  0
 16 17  1  0
  7  2  1  0
  1 18  1  0
  1 19  1  0
  3 20  1  0
  4 21  1  0
  6 22  1  0
  7 23  1  0
 11 24  1  0
 14 25  1  0
 15 26  1  0
 15 27  1  0
 16 28  1  0
 16 29  1  0
 17 30  1  0
M  END
$$$$
