@<TRIPOS>MOLECULE
*****
 50 52 0 0 0
SMALL
GASTEIGER

@<TRIPOS>ATOM
      1 C          -3.2452    1.7346   -2.8417 C.3     1  UNL1       -0.0639
      2 C          -2.7282    1.4192   -1.4242 C.3     1  UNL1       -0.0400
      3 C          -2.6328   -0.0492   -1.2812 C.3     1  UNL1        0.0144
      4 N          -2.1547   -0.5583   -0.0293 N.am    1  UNL1       -0.3012
      5 C          -3.0327   -0.8521    1.0865 C.3     1  UNL1        0.0144
      6 C          -3.2496    0.3217    1.9885 C.3     1  UNL1       -0.0400
      7 C          -1.9475    0.8081    2.5749 C.3     1  UNL1       -0.0639
      8 C          -0.7512   -0.7868    0.0938 C.2     1  UNL1        0.2214
      9 O          -0.2432   -1.2392    1.1723 O.2     1  UNL1       -0.2752
     10 C           0.1885   -0.5063   -1.0453 C.3     1  UNL1        0.0670
     11 C           1.5809   -0.8550   -0.6583 C.ar    1  UNL1        0.0598
     12 C           2.4261   -0.1450    0.1581 C.ar    1  UNL1        0.0934
     13 C           2.1806    1.1071    0.8490 C.ar    1  UNL1        0.0022
     14 C           2.4396    1.1465    2.2240 C.ar    1  UNL1       -0.0511
     15 C           2.2582    2.2939    2.9607 C.ar    1  UNL1       -0.0428
     16 C           1.8089    3.3985    2.2723 C.ar    1  UNL1        0.0410
     17 CL          1.5647    4.8864    3.1858 Cl      1  UNL1       -0.0835
     18 C           1.5498    3.3812    0.9266 C.ar    1  UNL1       -0.0428
     19 C           1.7357    2.2191    0.1892 C.ar    1  UNL1       -0.0511
     20 N           3.5677   -0.8948    0.2150 N.ar    1  UNL1       -0.2275
     21 C           3.4246   -2.0074   -0.5315 C.ar    1  UNL1        0.1385
     22 C           4.3184   -3.0623   -0.7730 C.ar    1  UNL1       -0.0174
     23 C           3.8997   -4.0868   -1.5889 C.ar    1  UNL1       -0.0385
     24 C           2.6358   -4.0454   -2.1350 C.ar    1  UNL1        0.0576
     25 CL          2.0674   -5.3476   -3.1884 Cl      1  UNL1       -0.0820
     26 C           1.7928   -3.0053   -1.8796 C.ar    1  UNL1        0.0298
     27 N           2.2004   -1.9967   -1.0783 N.ar    1  UNL1       -0.3011
     28 H          -2.7308    1.0022   -3.4953 H       1  UNL1        0.0230
     29 H          -2.9859    2.7799   -3.1239 H       1  UNL1        0.0230
     30 H          -4.3160    1.5300   -2.8384 H       1  UNL1        0.0230
     31 H          -1.7836    1.9577   -1.3286 H       1  UNL1        0.0278
     32 H          -3.4874    1.8899   -0.7603 H       1  UNL1        0.0278
     33 H          -3.6615   -0.4946   -1.4157 H       1  UNL1        0.0464
     34 H          -2.0221   -0.4431   -2.1468 H       1  UNL1        0.0464
     35 H          -4.0082   -1.2892    0.7263 H       1  UNL1        0.0464
     36 H          -2.5613   -1.6965    1.6477 H       1  UNL1        0.0464
     37 H          -3.8885    0.0412    2.8762 H       1  UNL1        0.0278
     38 H          -3.7669    1.1492    1.4533 H       1  UNL1        0.0278
     39 H          -1.2786    1.1906    1.7911 H       1  UNL1        0.0230
     40 H          -2.1750    1.6382    3.3214 H       1  UNL1        0.0230
     41 H          -1.5040    0.0182    3.2184 H       1  UNL1        0.0230
     42 H           0.0517    0.5279   -1.3384 H       1  UNL1        0.0423
     43 H          -0.1291   -1.2251   -1.8393 H       1  UNL1        0.0423
     44 H           2.7958    0.2544    2.7457 H       1  UNL1        0.0625
     45 H           2.4482    2.3621    4.0240 H       1  UNL1        0.0632
     46 H           1.1958    4.2578    0.3938 H       1  UNL1        0.0632
     47 H           1.5379    2.2255   -0.8960 H       1  UNL1        0.0625
     48 H           5.2879   -3.0536   -0.3294 H       1  UNL1        0.0655
     49 H           4.5484   -4.9458   -1.8212 H       1  UNL1        0.0634
     50 H           0.7782   -2.9548   -2.3064 H       1  UNL1        0.0828
@<TRIPOS>BOND
     1     1     2    1
     2     2     3    1
     3     3     4    1
     4     4     5    1
     5     5     6    1
     6     6     7    1
     7     4     8   am
     8     8     9    2
     9     8    10    1
    10    10    11    1
    11    11    12   ar
    12    12    13    1
    13    13    14   ar
    14    14    15   ar
    15    15    16   ar
    16    16    17    1
    17    16    18   ar
    18    18    19   ar
    19    12    20   ar
    20    20    21   ar
    21    21    22   ar
    22    22    23   ar
    23    23    24   ar
    24    24    25    1
    25    24    26   ar
    26    26    27   ar
    27    27    11   ar
    28    19    13   ar
    29    27    21   ar
    30     1    28    1
    31     1    29    1
    32     1    30    1
    33     2    31    1
    34     2    32    1
    35     3    33    1
    36     3    34    1
    37     5    35    1
    38     5    36    1
    39     6    37    1
    40     6    38    1
    41     7    39    1
    42     7    40    1
    43     7    41    1
    44    10    42    1
    45    10    43    1
    46    14    44    1
    47    15    45    1
    48    18    46    1
    49    19    47    1
    50    22    48    1
    51    23    49    1
    52    26    50    1
