
     RDKit          3D

 50 52  0  0  0  0  0  0  0  0999 V2000
   -3.2452    1.7346   -2.8417 C   0  0  0  0  0  0  0  0  0  0  0  0
   -2.7282    1.4192   -1.4242 C   0  0  0  0  0  0  0  0  0  0  0  0
   -2.6328   -0.0492   -1.2812 C   0  0  0  0  0  0  0  0  0  0  0  0
   -2.1547   -0.5583   -0.0293 N   0  0  0  0  0  0  0  0  0  0  0  0
   -3.0327   -0.8521    1.0865 C   0  0  0  0  0  0  0  0  0  0  0  0
   -3.2496    0.3217    1.9885 C   0  0  0  0  0  0  0  0  0  0  0  0
   -1.9475    0.8081    2.5749 C   0  0  0  0  0  0  0  0  0  0  0  0
   -0.7512   -0.7868    0.0938 C   0  0  0  0  0  0  0  0  0  0  0  0
   -0.2432   -1.2392    1.1723 O   0  0  0  0  0  0  0  0  0  0  0  0
    0.1885   -0.5063   -1.0453 C   0  0  0  0  0  0  0  0  0  0  0  0
    1.5809   -0.8550   -0.6583 C   0  0  0  0  0  0  0  0  0  0  0  0
    2.4261   -0.1450    0.1581 C   0  0  0  0  0  0  0  0  0  0  0  0
    2.1806    1.1071    0.8490 C   0  0  0  0  0  0  0  0  0  0  0  0
    2.4396    1.1465    2.2240 C   0  0  0  0  0  0  0  0  0  0  0  0
    2.2582    2.2939    2.9607 C   0  0  0  0  0  0  0  0  0  0  0  0
    1.8089    3.3985    2.2723 C   0  0  0  0  0  0  0  0  0  0  0  0
    1.5647    4.8864    3.1858 Cl  0  0  0  0  0  0  0  0  0  0  0  0
    1.5498    3.3812    0.9266 C   0  0  0  0  0  0  0  0  0  0  0  0
    1.7357    2.2191    0.1892 C   0  0  0  0  0  0  0  0  0  0  0  0
    3.5677   -0.8948    0.2150 N   0  0  0  0  0  0  0  0  0  0  0  0
    3.4246   -2.0074   -0.5315 C   0  0  0  0  0  0  0  0  0  0  0  0
    4.3184   -3.0623   -0.7730 C   0  0  0  0  0  0  0  0  0  0  0  0
    3.8997   -4.0868   -1.5889 C   0  0  0  0  0  0  0  0  0  0  0  0
    2.6358   -4.0454   -2.1350 C   0  0  0  0  0  0  0  0  0  0  0  0
    2.0674   -5.3476   -3.1884 Cl  0  0  0  0  0  0  0  0  0  0  0  0
    1.7928   -3.0053   -1.8796 C   0  0  0  0  0  0  0  0  0  0  0  0
    2.2004   -1.9967   -1.0783 N   0  0  0  0  0  0  0  0  0  0  0  0
   -2.7308    1.0022   -3.4953 H   0  0  0  0  0  0  0  0  0  0  0  0
   -2.9859    2.7799   -3.1239 H   0  0  0  0  0  0  0  0  0  0  0  0
   -4.3160    1.5300   -2.8384 H   0  0  0  0  0  0  0  0  0  0  0  0
   -1.7836    1.9577   -1.3286 H   0  0  0  0  0  0  0  0  0  0  0  0
   -3.4874    1.8899   -0.7603 H   0  0  0  0  0  0  0  0  0  0  0  0
   -3.6615   -0.4946   -1.4157 H   0  0  0  0  0  0  0  0  0  0  0  0
   -2.0221   -0.4431   -2.1468 H   0  0  0  0  0  0  0  0  0  0  0  0
   -4.0082   -1.2892    0.7263 H   0  0  0  0  0  0  0  0  0  0  0  0
   -2.5613   -1.6965    1.6477 H   0  0  0  0  0  0  0  0  0  0  0  0
   -3.8885    0.0412    2.8762 H   0  0  0  0  0  0  0  0  0  0  0  0
   -3.7669    1.1492    1.4533 H   0  0  0  0  0  0  0  0  0  0  0  0
   -1.2786    1.1906    1.7911 H   0  0  0  0  0  0  0  0  0  0  0  0
   -2.1750    1.6382    3.3214 H   0  0  0  0  0  0  0  0  0  0  0  0
   -1.5040    0.0182    3.2184 H   0  0  0  0  0  0  0  0  0  0  0  0
    0.0517    0.5279   -1.3384 H   0  0  0  0  0  0  0  0  0  0  0  0
   -0.1291   -1.2251   -1.8393 H   0  0  0  0  0  0  0  0  0  0  0  0
    2.7958    0.2544    2.7457 H   0  0  0  0  0  0  0  0  0  0  0  0
    2.4482    2.3621    4.0240 H   0  0  0  0  0  0  0  0  0  0  0  0
    1.1958    4.2578    0.3938 H   0  0  0  0  0  0  0  0  0  0  0  0
    1.5379    2.2255   -0.8960 H   0  0  0  0  0  0  0  0  0  0  0  0
    5.2879   -3.0536   -0.3294 H   0  0  0  0  0  0  0  0  0  0  0  0
    4.5484   -4.9458   -1.8212 H   0  0  0  0  0  0  0  0  0  0  0  0
    0.7782   -2.9548   -2.3064 H   0  0  0  0  0  0  0  0  0  0  0  0
  1  2  1  0
  2  3  1  0
  3  4  1  0
  4  5  1  0
  5  6  1  0
  6  7  1  0
  4  8  1  0
  8  9  2  0
  8 10  1  0
 10 11  1  0
 11 12  2  0
 12 13  1  0
 13 14  2  0
 14 15  1  0
 15 16  2  0
 16 17  1  0
 16 18  1  0
 18 19  2  0
 12 20  1  0
 20 21  2  0
 21 22  1  0
 22 23  2  0
 23 24  1  0
 24 25  1  0
 24 26  2  0
 26 27  1  0
 27 11  1  0
 19 13  1  0
 27 21  1  0
  1 28  1  0
  1 29  1  0
  1 30  1  0
  2 31  1  0
  2 32  1  0
  3 33  1  0
  3 34  1  0
  5 35  1  0
  5 36  1  0
  6 37  1  0
  6 38  1  0
  7 39  1  0
  7 40  1  0
  7 41  1  0
 10 42  1  0
 10 43  1  0
 14 44  1  0
 15 45  1  0
 18 46  1  0
 19 47  1  0
 22 48  1  0
 23 49  1  0
 26 50  1  0
M  END
$$$$
