
     RDKit          3D

 51 54  0  0  0  0  0  0  0  0999 V2000
    0.4831   -1.8628    0.9947 O   0  0  0  0  0  0  0  0  0  0  0  0
   -0.2741   -0.8820    0.7987 C   0  0  0  0  0  0  0  0  0  0  0  0
   -1.5223   -1.0151    0.1587 O   0  0  0  0  0  0  0  0  0  0  0  0
   -2.5259   -0.0135    0.3902 C   0  0  1  0  0  0  0  0  0  0  0  0
   -2.5056    1.0430   -0.6941 C   0  0  0  0  0  0  0  0  0  0  0  0
   -2.7701    0.4182   -2.0585 C   0  0  0  0  0  0  0  0  0  0  0  0
   -2.7409    1.4248   -3.0251 O   0  0  0  0  0  0  0  0  0  0  0  0
   -3.8227   -0.7225    0.3824 C   0  0  0  0  0  0  0  0  0  0  0  0
   -4.9110   -0.3097    1.1235 C   0  0  0  0  0  0  0  0  0  0  0  0
   -6.1110   -1.0049    1.0875 C   0  0  0  0  0  0  0  0  0  0  0  0
   -6.2732   -2.1222    0.3236 C   0  0  0  0  0  0  0  0  0  0  0  0
   -5.2028   -2.5524   -0.4233 C   0  0  0  0  0  0  0  0  0  0  0  0
   -4.0115   -1.8717   -0.3945 C   0  0  0  0  0  0  0  0  0  0  0  0
   -2.2498    0.5966    1.7428 C   0  0  0  0  0  0  0  0  0  0  0  0
   -0.9055    1.2634    1.8174 C   0  0  0  0  0  0  0  0  0  0  0  0
    0.0998    0.4121    1.2179 N   0  0  0  0  0  0  0  0  0  0  0  0
    1.4385    0.8610    1.0441 C   0  0  0  0  0  0  0  0  0  0  0  0
    1.7632    2.1297    1.5207 C   0  0  0  0  0  0  0  0  0  0  0  0
    3.0179    2.6809    1.4080 C   0  0  0  0  0  0  0  0  0  0  0  0
    3.9996    1.9301    0.7892 C   0  0  0  0  0  0  0  0  0  0  0  0
    3.7369    0.6687    0.2980 C   0  0  0  0  0  0  0  0  0  0  0  0
    4.7886   -0.0801   -0.3397 C   0  0  0  0  0  0  0  0  0  0  0  0
    4.5513   -0.7490   -1.5226 C   0  0  0  0  0  0  0  0  0  0  0  0
    5.5584   -1.4827   -2.1593 C   0  0  0  0  0  0  0  0  0  0  0  0
    6.8084   -1.5520   -1.6174 C   0  0  0  0  0  0  0  0  0  0  0  0
    7.8260   -2.2603   -2.2087 F   0  0  0  0  0  0  0  0  0  0  0  0
    7.0719   -0.9038   -0.4539 C   0  0  0  0  0  0  0  0  0  0  0  0
    6.0741   -0.1801    0.1719 C   0  0  0  0  0  0  0  0  0  0  0  0
    6.3629    0.4462    1.3140 F   0  0  0  0  0  0  0  0  0  0  0  0
    2.4421    0.1529    0.4379 C   0  0  0  0  0  0  0  0  0  0  0  0
   -1.5625    1.6124   -0.7041 H   0  0  0  0  0  0  0  0  0  0  0  0
   -3.3040    1.7685   -0.4414 H   0  0  0  0  0  0  0  0  0  0  0  0
   -2.0040   -0.3175   -2.3125 H   0  0  0  0  0  0  0  0  0  0  0  0
   -3.7682   -0.0637   -2.0468 H   0  0  0  0  0  0  0  0  0  0  0  0
   -3.6103    1.8425   -3.1848 H   0  0  0  0  0  0  0  0  0  0  0  0
   -4.8421    0.5716    1.7493 H   0  0  0  0  0  0  0  0  0  0  0  0
   -6.9745   -0.6711    1.6802 H   0  0  0  0  0  0  0  0  0  0  0  0
   -7.2098   -2.6607    0.2985 H   0  0  0  0  0  0  0  0  0  0  0  0
   -5.2840   -3.4463   -1.0539 H   0  0  0  0  0  0  0  0  0  0  0  0
   -3.1447   -2.1968   -0.9821 H   0  0  0  0  0  0  0  0  0  0  0  0
   -2.4053   -0.1469    2.5463 H   0  0  0  0  0  0  0  0  0  0  0  0
   -3.0006    1.4078    1.9504 H   0  0  0  0  0  0  0  0  0  0  0  0
   -0.6756    1.4993    2.8717 H   0  0  0  0  0  0  0  0  0  0  0  0
   -0.9848    2.1971    1.1965 H   0  0  0  0  0  0  0  0  0  0  0  0
    0.9752    2.7054    2.0054 H   0  0  0  0  0  0  0  0  0  0  0  0
    3.2612    3.6673    1.7813 H   0  0  0  0  0  0  0  0  0  0  0  0
    5.0237    2.3130    0.6671 H   0  0  0  0  0  0  0  0  0  0  0  0
    3.5973   -0.7528   -2.0261 H   0  0  0  0  0  0  0  0  0  0  0  0
    5.3746   -2.0064   -3.0841 H   0  0  0  0  0  0  0  0  0  0  0  0
    8.0834   -0.9675   -0.0277 H   0  0  0  0  0  0  0  0  0  0  0  0
    2.2590   -0.8181    0.0483 H   0  0  0  0  0  0  0  0  0  0  0  0
  1  2  2  0
  2  3  1  0
  3  4  1  0
  4  5  1  6
  5  6  1  0
  6  7  1  0
  4  8  1  0
  8  9  2  0
  9 10  1  0
 10 11  2  0
 11 12  1  0
 12 13  2  0
  4 14  1  0
 14 15  1  0
 15 16  1  0
 16 17  1  0
 17 18  2  0
 18 19  1  0
 19 20  2  0
 20 21  1  0
 21 22  1  0
 22 23  2  0
 23 24  1  0
 24 25  2  0
 25 26  1  0
 25 27  1  0
 27 28  2  0
 28 29  1  0
 21 30  2  0
 16  2  1  0
 30 17  1  0
 13  8  1  0
 28 22  1  0
  5 31  1  0
  5 32  1  0
  6 33  1  0
  6 34  1  0
  7 35  1  0
  9 36  1  0
 10 37  1  0
 11 38  1  0
 12 39  1  0
 13 40  1  0
 14 41  1  0
 14 42  1  0
 15 43  1  0
 15 44  1  0
 18 45  1  0
 19 46  1  0
 20 47  1  0
 23 48  1  0
 24 49  1  0
 27 50  1  0
 30 51  1  0
M  END
$$$$
