@<TRIPOS>MOLECULE
*****
 51 54 0 0 0
SMALL
GASTEIGER

@<TRIPOS>ATOM
      1 O           0.4831   -1.8628    0.9947 O.2     1  UNL1       -0.2259
      2 C          -0.2741   -0.8820    0.7987 C.2     1  UNL1        0.4080
      3 O          -1.5223   -1.0151    0.1587 O.3     1  UNL1       -0.4385
      4 C          -2.5259   -0.0135    0.3902 C.3     1  UNL1        0.1435
      5 C          -2.5056    1.0430   -0.6941 C.3     1  UNL1        0.0148
      6 C          -2.7701    0.4182   -2.0585 C.3     1  UNL1        0.0482
      7 O          -2.7409    1.4248   -3.0251 O.3     1  UNL1       -0.3949
      8 C          -3.8227   -0.7225    0.3824 C.ar    1  UNL1       -0.0041
      9 C          -4.9110   -0.3097    1.1235 C.ar    1  UNL1       -0.0548
     10 C          -6.1110   -1.0049    1.0875 C.ar    1  UNL1       -0.0614
     11 C          -6.2732   -2.1222    0.3236 C.ar    1  UNL1       -0.0617
     12 C          -5.2028   -2.5524   -0.4233 C.ar    1  UNL1       -0.0614
     13 C          -4.0115   -1.8717   -0.3945 C.ar    1  UNL1       -0.0548
     14 C          -2.2498    0.5966    1.7428 C.3     1  UNL1        0.0079
     15 C          -0.9055    1.2634    1.8174 C.3     1  UNL1        0.0269
     16 N           0.0998    0.4121    1.2179 N.am    1  UNL1       -0.2371
     17 C           1.4385    0.8610    1.0441 C.ar    1  UNL1        0.0400
     18 C           1.7632    2.1297    1.5207 C.ar    1  UNL1       -0.0401
     19 C           3.0179    2.6809    1.4080 C.ar    1  UNL1       -0.0594
     20 C           3.9996    1.9301    0.7892 C.ar    1  UNL1       -0.0538
     21 C           3.7369    0.6687    0.2980 C.ar    1  UNL1       -0.0134
     22 C           4.7886   -0.0801   -0.3397 C.ar    1  UNL1        0.0176
     23 C           4.5513   -0.7490   -1.5226 C.ar    1  UNL1       -0.0486
     24 C           5.5584   -1.4827   -2.1593 C.ar    1  UNL1       -0.0257
     25 C           6.8084   -1.5520   -1.6174 C.ar    1  UNL1        0.1262
     26 F           7.8260   -2.2603   -2.2087 F       1  UNL1       -0.2054
     27 C           7.0719   -0.9038   -0.4539 C.ar    1  UNL1        0.0094
     28 C           6.0741   -0.1801    0.1719 C.ar    1  UNL1        0.1338
     29 F           6.3629    0.4462    1.3140 F       1  UNL1       -0.2048
     30 C           2.4421    0.1529    0.4379 C.ar    1  UNL1       -0.0324
     31 H          -1.5625    1.6124   -0.7041 H       1  UNL1        0.0329
     32 H          -3.3040    1.7685   -0.4414 H       1  UNL1        0.0329
     33 H          -2.0040   -0.3175   -2.3125 H       1  UNL1        0.0558
     34 H          -3.7682   -0.0637   -2.0468 H       1  UNL1        0.0558
     35 H          -3.6103    1.8425   -3.1848 H       1  UNL1        0.2094
     36 H          -4.8421    0.5716    1.7493 H       1  UNL1        0.0622
     37 H          -6.9745   -0.6711    1.6802 H       1  UNL1        0.0618
     38 H          -7.2098   -2.6607    0.2985 H       1  UNL1        0.0618
     39 H          -5.2840   -3.4463   -1.0539 H       1  UNL1        0.0618
     40 H          -3.1447   -2.1968   -0.9821 H       1  UNL1        0.0622
     41 H          -2.4053   -0.1469    2.5463 H       1  UNL1        0.0323
     42 H          -3.0006    1.4078    1.9504 H       1  UNL1        0.0323
     43 H          -0.6756    1.4993    2.8717 H       1  UNL1        0.0471
     44 H          -0.9848    2.1971    1.1965 H       1  UNL1        0.0471
     45 H           0.9752    2.7054    2.0054 H       1  UNL1        0.0636
     46 H           3.2612    3.6673    1.7813 H       1  UNL1        0.0618
     47 H           5.0237    2.3130    0.6671 H       1  UNL1        0.0624
     48 H           3.5973   -0.7528   -2.0261 H       1  UNL1        0.0625
     49 H           5.3746   -2.0064   -3.0841 H       1  UNL1        0.0646
     50 H           8.0834   -0.9675   -0.0277 H       1  UNL1        0.0675
     51 H           2.2590   -0.8181    0.0483 H       1  UNL1        0.0642
@<TRIPOS>BOND
     1     1     2    2
     2     2     3    1
     3     3     4    1
     4     4     5    1
     5     5     6    1
     6     6     7    1
     7     4     8    1
     8     8     9   ar
     9     9    10   ar
    10    10    11   ar
    11    11    12   ar
    12    12    13   ar
    13     4    14    1
    14    14    15    1
    15    15    16    1
    16    16    17    1
    17    17    18   ar
    18    18    19   ar
    19    19    20   ar
    20    20    21   ar
    21    21    22    1
    22    22    23   ar
    23    23    24   ar
    24    24    25   ar
    25    25    26    1
    26    25    27   ar
    27    27    28   ar
    28    28    29    1
    29    21    30   ar
    30    16     2   am
    31    30    17   ar
    32    13     8   ar
    33    28    22   ar
    34     5    31    1
    35     5    32    1
    36     6    33    1
    37     6    34    1
    38     7    35    1
    39     9    36    1
    40    10    37    1
    41    11    38    1
    42    12    39    1
    43    13    40    1
    44    14    41    1
    45    14    42    1
    46    15    43    1
    47    15    44    1
    48    18    45    1
    49    19    46    1
    50    20    47    1
    51    23    48    1
    52    24    49    1
    53    27    50    1
    54    30    51    1
