@<TRIPOS>MOLECULE
*****
 52 54 0 0 0
SMALL
GASTEIGER

@<TRIPOS>ATOM
      1 N          10.5238    0.8090    0.6645 N.pl3   0  UNK0       -0.3274
      2 C           9.0810    0.7873    0.5642 C.ar    0  UNK0        0.2163
      3 N           8.3169    0.3271    1.5651 N.ar    0  UNK0       -0.1932
      4 C           6.9800    0.2805    1.5356 C.ar    0  UNK0        0.1851
      5 C           6.3249    0.7296    0.4128 C.ar    0  UNK0        0.1477
      6 N           4.9801    0.7290    0.2855 N.ar    0  UNK0       -0.2419
      7 C           4.2583    0.2648    1.3161 C.ar    0  UNK0        0.0772
      8 C           2.7832    0.2435    1.2077 C.3     0  UNK0        0.0530
      9 N           2.2799   -1.0160    0.7171 N.pl3   0  UNK0       -0.3382
     10 C           0.8731   -1.1261    0.4953 C.ar    0  UNK0        0.0275
     11 C           0.0664   -0.0292    0.7412 C.ar    0  UNK0       -0.0401
     12 C          -1.2940   -0.0533    0.5552 C.ar    0  UNK0       -0.0479
     13 C          -1.8598   -1.2133    0.1113 C.ar    0  UNK0        0.0368
     14 C          -1.1129   -2.3651   -0.1588 C.ar    0  UNK0       -0.0479
     15 C           0.2731   -2.2811    0.0482 C.ar    0  UNK0       -0.0401
     16 C          -3.2648   -1.4429   -0.1757 C.2     0  UNK0        0.2447
     17 O          -4.0593   -2.3734   -0.3732 O.2     0  UNK0       -0.2702
     18 N          -4.0861   -0.2530   -0.2943 N.am    1  GLU1       -0.2983
     19 CA         -5.5276   -0.2159   -0.5723 C.3     1  GLU1        0.1209
     20 CB         -6.2694    0.7945    0.2302 C.3     1  GLU1       -0.0140
     21 CG         -7.7418    0.8661   -0.0285 C.3     1  GLU1        0.0470
     22 CD         -8.4790   -0.3903    0.2525 C.2     1  GLU1        0.3048
     23 OE1        -9.8438   -0.2852    0.0365 O.3     1  GLU1       -0.4806
     24 OE2        -7.9979   -1.4876    0.6540 O.2     1  GLU1       -0.2510
     25 C          -5.7347   -0.0039   -2.0494 C.2     1  GLU1        0.3253
     26 O          -6.9161    0.0701   -2.7574 O.3     1  GLU1       -0.4793
     27 OXT        -4.7453    0.1395   -2.8513 O.2     1  GLU1       -0.2489
     28 C           4.9292   -0.1935    2.4636 C.ar    0  UNK0        0.0528
     29 N           6.2721   -0.1972    2.5964 N.ar    0  UNK0       -0.2324
     30 C           7.0914    1.2114   -0.6417 C.ar    0  UNK0        0.1491
     31 N           6.4851    1.7078   -1.8602 N.pl3   0  UNK0       -0.3413
     32 N           8.4503    1.2270   -0.5350 N.ar    0  UNK0       -0.1978
     33 H          11.0625    1.0638   -0.1884 H       0  UNK0        0.1452
     34 H          10.9305    0.5546    1.5983 H       0  UNK0        0.1452
     35 H           2.4036    0.3849    2.2384 H       0  UNK0        0.0527
     36 H           2.4093    1.0650    0.5691 H       0  UNK0        0.0527
     37 H           2.8919   -1.8385    0.5183 H       0  UNK0        0.1465
     38 H           0.4389    0.9362    1.1068 H       0  UNK0        0.0636
     39 H          -1.9605    0.7790    0.7359 H       0  UNK0        0.0626
     40 H          -1.4518   -3.3268   -0.5071 H       0  UNK0        0.0626
     41 H           0.9599   -3.1154   -0.1357 H       0  UNK0        0.0636
     42 H          -3.7796    0.7701   -0.2028 H       1  GLU1        0.1498
     43 HA         -5.9326   -1.2250   -0.3845 H       1  GLU1        0.0614
     44 HB1        -5.8791    1.8400    0.0405 H       1  GLU1        0.0294
     45 HB2        -6.1497    0.6829    1.3366 H       1  GLU1        0.0294
     46 HG1        -8.1738    1.6450    0.6393 H       1  GLU1        0.0378
     47 HG2        -7.9802    1.2356   -1.0555 H       1  GLU1        0.0378
     48 HE1       -10.4399   -1.0422    0.4262 H       1  GLU1        0.2951
     49 H          -7.0722    0.7368   -3.4903 H       1  GLU1        0.2951
     50 H           4.2537   -0.5532    3.2470 H       0  UNK0        0.0849
     51 H           6.1709    2.6826   -1.5731 H       0  UNK0        0.1438
     52 H           6.2621    1.4644   -2.8504 H       0  UNK0        0.1438
@<TRIPOS>BOND
     1     1     2    1
     2     2     3   ar
     3     3     4   ar
     4     4     5   ar
     5     5     6   ar
     6     6     7   ar
     7     7     8    1
     8     8     9    1
     9     9    10    1
    10    10    11   ar
    11    11    12   ar
    12    12    13   ar
    13    13    14   ar
    14    14    15   ar
    15    13    16    1
    16    16    17    2
    17    16    18   am
    18    18    19    1
    19    19    20    1
    20    20    21    1
    21    21    22    1
    22    22    23    1
    23    22    24    2
    24    19    25    1
    25    25    26    1
    26    25    27    2
    27     7    28   ar
    28    28    29   ar
    29     5    30   ar
    30    30    31    1
    31    30    32   ar
    32    32     2   ar
    33    29     4   ar
    34    15    10   ar
    35     1    33    1
    36     1    34    1
    37     8    35    1
    38     8    36    1
    39     9    37    1
    40    11    38    1
    41    12    39    1
    42    14    40    1
    43    15    41    1
    44    18    42    1
    45    19    43    1
    46    20    44    1
    47    20    45    1
    48    21    46    1
    49    21    47    1
    50    23    48    1
    51    26    49    1
    52    28    50    1
    53    31    51    1
    54    31    52    1
