
     RDKit          3D

 52 54  0  0  0  0  0  0  0  0999 V2000
   10.5238    0.8090    0.6645 N   0  0  0  0  0  0  0  0  0  0  0  0
    9.0810    0.7873    0.5642 C   0  0  0  0  0  0  0  0  0  0  0  0
    8.3169    0.3271    1.5651 N   0  0  0  0  0  0  0  0  0  0  0  0
    6.9800    0.2805    1.5356 C   0  0  0  0  0  0  0  0  0  0  0  0
    6.3249    0.7296    0.4128 C   0  0  0  0  0  0  0  0  0  0  0  0
    4.9801    0.7290    0.2855 N   0  0  0  0  0  0  0  0  0  0  0  0
    4.2583    0.2648    1.3161 C   0  0  0  0  0  0  0  0  0  0  0  0
    2.7832    0.2435    1.2077 C   0  0  0  0  0  0  0  0  0  0  0  0
    2.2799   -1.0160    0.7171 N   0  0  0  0  0  0  0  0  0  0  0  0
    0.8731   -1.1261    0.4953 C   0  0  0  0  0  0  0  0  0  0  0  0
    0.0664   -0.0292    0.7412 C   0  0  0  0  0  0  0  0  0  0  0  0
   -1.2940   -0.0533    0.5552 C   0  0  0  0  0  0  0  0  0  0  0  0
   -1.8598   -1.2133    0.1113 C   0  0  0  0  0  0  0  0  0  0  0  0
   -1.1129   -2.3651   -0.1588 C   0  0  0  0  0  0  0  0  0  0  0  0
    0.2731   -2.2811    0.0482 C   0  0  0  0  0  0  0  0  0  0  0  0
   -3.2648   -1.4429   -0.1757 C   0  0  0  0  0  0  0  0  0  0  0  0
   -4.0593   -2.3734   -0.3732 O   0  0  0  0  0  0  0  0  0  0  0  0
   -4.0861   -0.2530   -0.2943 N   0  0  0  0  0  0  0  0  0  0  0  0
   -5.5276   -0.2159   -0.5723 C   0  0  1  0  0  0  0  0  0  0  0  0
   -6.2694    0.7945    0.2302 C   0  0  0  0  0  0  0  0  0  0  0  0
   -7.7418    0.8661   -0.0285 C   0  0  0  0  0  0  0  0  0  0  0  0
   -8.4790   -0.3903    0.2525 C   0  0  0  0  0  0  0  0  0  0  0  0
   -9.8438   -0.2852    0.0365 O   0  0  0  0  0  0  0  0  0  0  0  0
   -7.9979   -1.4876    0.6540 O   0  0  0  0  0  0  0  0  0  0  0  0
   -5.7347   -0.0039   -2.0494 C   0  0  0  0  0  0  0  0  0  0  0  0
   -6.9161    0.0701   -2.7574 O   0  0  0  0  0  0  0  0  0  0  0  0
   -4.7453    0.1395   -2.8513 O   0  0  0  0  0  0  0  0  0  0  0  0
    4.9292   -0.1935    2.4636 C   0  0  0  0  0  0  0  0  0  0  0  0
    6.2721   -0.1972    2.5964 N   0  0  0  0  0  0  0  0  0  0  0  0
    7.0914    1.2114   -0.6417 C   0  0  0  0  0  0  0  0  0  0  0  0
    6.4851    1.7078   -1.8602 N   0  0  0  0  0  0  0  0  0  0  0  0
    8.4503    1.2270   -0.5350 N   0  0  0  0  0  0  0  0  0  0  0  0
   11.0625    1.0638   -0.1884 H   0  0  0  0  0  0  0  0  0  0  0  0
   10.9305    0.5546    1.5983 H   0  0  0  0  0  0  0  0  0  0  0  0
    2.4036    0.3849    2.2384 H   0  0  0  0  0  0  0  0  0  0  0  0
    2.4093    1.0650    0.5691 H   0  0  0  0  0  0  0  0  0  0  0  0
    2.8919   -1.8385    0.5183 H   0  0  0  0  0  0  0  0  0  0  0  0
    0.4389    0.9362    1.1068 H   0  0  0  0  0  0  0  0  0  0  0  0
   -1.9605    0.7790    0.7359 H   0  0  0  0  0  0  0  0  0  0  0  0
   -1.4518   -3.3268   -0.5071 H   0  0  0  0  0  0  0  0  0  0  0  0
    0.9599   -3.1154   -0.1357 H   0  0  0  0  0  0  0  0  0  0  0  0
   -3.7796    0.7701   -0.2028 H   0  0  0  0  0  0  0  0  0  0  0  0
   -5.9326   -1.2250   -0.3845 H   0  0  0  0  0  0  0  0  0  0  0  0
   -5.8791    1.8400    0.0405 H   0  0  0  0  0  0  0  0  0  0  0  0
   -6.1497    0.6829    1.3366 H   0  0  0  0  0  0  0  0  0  0  0  0
   -8.1738    1.6450    0.6393 H   0  0  0  0  0  0  0  0  0  0  0  0
   -7.9802    1.2356   -1.0555 H   0  0  0  0  0  0  0  0  0  0  0  0
  -10.4399   -1.0422    0.4262 H   0  0  0  0  0  0  0  0  0  0  0  0
   -7.0722    0.7368   -3.4903 H   0  0  0  0  0  0  0  0  0  0  0  0
    4.2537   -0.5532    3.2470 H   0  0  0  0  0  0  0  0  0  0  0  0
    6.1709    2.6826   -1.5731 H   0  0  0  0  0  0  0  0  0  0  0  0
    6.2621    1.4644   -2.8504 H   0  0  0  0  0  0  0  0  0  0  0  0
  1  2  1  0
  2  3  2  0
  3  4  1  0
  4  5  2  0
  5  6  1  0
  6  7  2  0
  7  8  1  0
  8  9  1  0
  9 10  1  0
 10 11  2  0
 11 12  1  0
 12 13  2  0
 13 14  1  0
 14 15  2  0
 13 16  1  0
 16 17  2  0
 16 18  1  0
 18 19  1  0
 19 20  1  0
 20 21  1  0
 21 22  1  0
 22 23  1  0
 22 24  2  0
 19 25  1  0
 25 26  1  0
 25 27  2  0
  7 28  1  0
 28 29  2  0
  5 30  1  0
 30 31  1  0
 30 32  2  0
 32  2  1  0
 29  4  1  0
 15 10  1  0
  1 33  1  0
  1 34  1  0
  8 35  1  0
  8 36  1  0
  9 37  1  0
 11 38  1  0
 12 39  1  0
 14 40  1  0
 15 41  1  0
 18 42  1  0
 19 43  1  1
 20 44  1  0
 20 45  1  0
 21 46  1  0
 21 47  1  0
 23 48  1  0
 26 49  1  0
 28 50  1  0
 31 51  1  0
 31 52  1  0
M  END
$$$$
