
     RDKit          3D

 50 51  0  0  0  0  0  0  0  0999 V2000
    5.4346    1.5108   -1.0296 C   0  0  0  0  0  0  0  0  0  0  0  0
    6.3550    0.3869   -1.3739 C   0  0  0  0  0  0  0  0  0  0  0  0
    5.6142   -0.8627   -2.4135 S   0  0  0  0  0  0  0  0  0  0  0  0
    4.3271   -1.7742   -1.5523 C   0  0  0  0  0  0  0  0  0  0  0  0
    3.1246   -0.9608   -1.2232 C   0  0  0  0  0  0  0  0  0  0  0  0
    2.0858   -1.8195   -0.5048 C   0  0  1  0  0  0  0  0  0  0  0  0
    2.6573   -2.3170    0.6968 N   0  0  0  0  0  0  0  0  0  0  0  0
    0.8869   -0.8992   -0.3028 C   0  0  2  0  0  0  0  0  0  0  0  0
    1.2741    0.1953    0.4384 O   0  0  0  0  0  0  0  0  0  0  0  0
   -0.2928   -1.6014    0.1459 C   0  0  0  0  0  0  0  0  0  0  0  0
   -0.4251   -2.7973   -0.3432 O   0  0  0  0  0  0  0  0  0  0  0  0
   -1.2750   -1.1582    1.0168 N   0  0  0  0  0  0  0  0  0  0  0  0
   -2.3085   -2.1713    1.3553 C   0  0  0  0  0  0  0  0  0  0  0  0
   -1.4129    0.1649    1.5683 C   0  0  0  0  0  0  0  0  0  0  0  0
   -2.2579    1.0802    0.7584 C   0  0  0  0  0  0  0  0  0  0  0  0
   -1.6551    1.8631   -0.2060 C   0  0  0  0  0  0  0  0  0  0  0  0
   -2.3723    2.6964   -1.0642 C   0  0  0  0  0  0  0  0  0  0  0  0
   -3.7266    2.7617   -0.9692 C   0  0  0  0  0  0  0  0  0  0  0  0
   -4.3649    1.9872   -0.0066 C   0  0  0  0  0  0  0  0  0  0  0  0
   -5.7212    2.0869    0.0840 C   0  0  0  0  0  0  0  0  0  0  0  0
   -6.4075    1.3579    1.0396 C   0  0  0  0  0  0  0  0  0  0  0  0
   -5.6758    0.5550    1.8664 C   0  0  0  0  0  0  0  0  0  0  0  0
   -4.2942    0.4591    1.7672 C   0  0  0  0  0  0  0  0  0  0  0  0
   -3.6217    1.1745    0.8254 C   0  0  0  0  0  0  0  0  0  0  0  0
    4.5819    1.6082   -1.7260 H   0  0  0  0  0  0  0  0  0  0  0  0
    5.1178    1.4325    0.0172 H   0  0  0  0  0  0  0  0  0  0  0  0
    6.0063    2.4862   -1.1233 H   0  0  0  0  0  0  0  0  0  0  0  0
    6.7264   -0.1131   -0.4433 H   0  0  0  0  0  0  0  0  0  0  0  0
    7.2828    0.7931   -1.8700 H   0  0  0  0  0  0  0  0  0  0  0  0
    4.7499   -2.2114   -0.6184 H   0  0  0  0  0  0  0  0  0  0  0  0
    4.0360   -2.6448   -2.1904 H   0  0  0  0  0  0  0  0  0  0  0  0
    2.6952   -0.5267   -2.1457 H   0  0  0  0  0  0  0  0  0  0  0  0
    3.4248   -0.1109   -0.5836 H   0  0  0  0  0  0  0  0  0  0  0  0
    1.7844   -2.6271   -1.1986 H   0  0  0  0  0  0  0  0  0  0  0  0
    3.0917   -3.2517    0.6129 H   0  0  0  0  0  0  0  0  0  0  0  0
    2.0749   -2.2192    1.5523 H   0  0  0  0  0  0  0  0  0  0  0  0
    0.7388   -0.4677   -1.3608 H   0  0  0  0  0  0  0  0  0  0  0  0
    1.8984   -0.0641    1.1336 H   0  0  0  0  0  0  0  0  0  0  0  0
   -2.4585   -2.1362    2.4758 H   0  0  0  0  0  0  0  0  0  0  0  0
   -1.8773   -3.1746    1.1796 H   0  0  0  0  0  0  0  0  0  0  0  0
   -3.2181   -2.0372    0.7810 H   0  0  0  0  0  0  0  0  0  0  0  0
   -1.7719    0.1176    2.6328 H   0  0  0  0  0  0  0  0  0  0  0  0
   -0.4355    0.6421    1.6705 H   0  0  0  0  0  0  0  0  0  0  0  0
   -0.5838    1.8812   -0.3535 H   0  0  0  0  0  0  0  0  0  0  0  0
   -1.8529    3.3037   -1.8188 H   0  0  0  0  0  0  0  0  0  0  0  0
   -4.2776    3.4129   -1.6436 H   0  0  0  0  0  0  0  0  0  0  0  0
   -6.2547    2.7429   -0.5989 H   0  0  0  0  0  0  0  0  0  0  0  0
   -7.4832    1.4345    1.1131 H   0  0  0  0  0  0  0  0  0  0  0  0
   -6.1608   -0.0321    2.6276 H   0  0  0  0  0  0  0  0  0  0  0  0
   -3.7831   -0.1565    2.4524 H   0  0  0  0  0  0  0  0  0  0  0  0
  1  2  1  0
  2  3  1  0
  3  4  1  0
  4  5  1  0
  5  6  1  0
  6  7  1  0
  6  8  1  0
  8  9  1  0
  8 10  1  0
 10 11  2  0
 10 12  1  0
 12 13  1  0
 12 14  1  0
 14 15  1  0
 15 16  2  0
 16 17  1  0
 17 18  2  0
 18 19  1  0
 19 20  2  0
 20 21  1  0
 21 22  2  0
 22 23  1  0
 23 24  2  0
 24 15  1  0
 24 19  1  0
  1 25  1  0
  1 26  1  0
  1 27  1  0
  2 28  1  0
  2 29  1  0
  4 30  1  0
  4 31  1  0
  5 32  1  0
  5 33  1  0
  6 34  1  6
  7 35  1  0
  7 36  1  0
  8 37  1  6
  9 38  1  0
 13 39  1  0
 13 40  1  0
 13 41  1  0
 14 42  1  0
 14 43  1  0
 16 44  1  0
 17 45  1  0
 18 46  1  0
 20 47  1  0
 21 48  1  0
 22 49  1  0
 23 50  1  0
M  END
$$$$
