@<TRIPOS>MOLECULE
*****
 50 51 0 0 0
SMALL
GASTEIGER

@<TRIPOS>ATOM
      1 C           5.4346    1.5108   -1.0296 C.3     1  UNL1       -0.0562
      2 C           6.3550    0.3869   -1.3739 C.3     1  UNL1       -0.0092
      3 S           5.6142   -0.8627   -2.4135 S.3     1  UNL1       -0.1610
      4 C           4.3271   -1.7742   -1.5523 C.3     1  UNL1       -0.0048
      5 C           3.1246   -0.9608   -1.2232 C.3     1  UNL1       -0.0258
      6 C           2.0858   -1.8195   -0.5048 C.3     1  UNL1        0.0405
      7 N           2.6573   -2.3170    0.6968 N.3     1  UNL1       -0.3247
      8 C           0.8869   -0.8992   -0.3028 C.3     1  UNL1        0.1460
      9 O           1.2741    0.1953    0.4384 O.3     1  UNL1       -0.3810
     10 C          -0.2928   -1.6014    0.1459 C.2     1  UNL1        0.2458
     11 O          -0.4251   -2.7973   -0.3432 O.2     1  UNL1       -0.2727
     12 N          -1.2750   -1.1582    1.0168 N.am    1  UNL1       -0.2980
     13 C          -2.3085   -2.1713    1.3553 C.3     1  UNL1        0.0036
     14 C          -1.4129    0.1649    1.5683 C.3     1  UNL1        0.0400
     15 C          -2.2579    1.0802    0.7584 C.ar    1  UNL1       -0.0224
     16 C          -1.6551    1.8631   -0.2060 C.ar    1  UNL1       -0.0565
     17 C          -2.3723    2.6964   -1.0642 C.ar    1  UNL1       -0.0609
     18 C          -3.7266    2.7617   -0.9692 C.ar    1  UNL1       -0.0540
     19 C          -4.3649    1.9872   -0.0066 C.ar    1  UNL1       -0.0176
     20 C          -5.7212    2.0869    0.0840 C.ar    1  UNL1       -0.0540
     21 C          -6.4075    1.3579    1.0396 C.ar    1  UNL1       -0.0612
     22 C          -5.6758    0.5550    1.8664 C.ar    1  UNL1       -0.0612
     23 C          -4.2942    0.4591    1.7672 C.ar    1  UNL1       -0.0537
     24 C          -3.6217    1.1745    0.8254 C.ar    1  UNL1       -0.0132
     25 H           4.5819    1.6082   -1.7260 H       1  UNL1        0.0238
     26 H           5.1178    1.4325    0.0172 H       1  UNL1        0.0238
     27 H           6.0063    2.4862   -1.1233 H       1  UNL1        0.0238
     28 H           6.7264   -0.1131   -0.4433 H       1  UNL1        0.0374
     29 H           7.2828    0.7931   -1.8700 H       1  UNL1        0.0374
     30 H           4.7499   -2.2114   -0.6184 H       1  UNL1        0.0377
     31 H           4.0360   -2.6448   -2.1904 H       1  UNL1        0.0377
     32 H           2.6952   -0.5267   -2.1457 H       1  UNL1        0.0289
     33 H           3.4248   -0.1109   -0.5836 H       1  UNL1        0.0289
     34 H           1.7844   -2.6271   -1.1986 H       1  UNL1        0.0489
     35 H           3.0917   -3.2517    0.6129 H       1  UNL1        0.1186
     36 H           2.0749   -2.2192    1.5523 H       1  UNL1        0.1186
     37 H           0.7388   -0.4677   -1.3608 H       1  UNL1        0.0706
     38 H           1.8984   -0.0641    1.1336 H       1  UNL1        0.2105
     39 H          -2.4585   -2.1362    2.4758 H       1  UNL1        0.0429
     40 H          -1.8773   -3.1746    1.1796 H       1  UNL1        0.0429
     41 H          -3.2181   -2.0372    0.7810 H       1  UNL1        0.0429
     42 H          -1.7719    0.1176    2.6328 H       1  UNL1        0.0514
     43 H          -0.4355    0.6421    1.6705 H       1  UNL1        0.0514
     44 H          -0.5838    1.8812   -0.3535 H       1  UNL1        0.0621
     45 H          -1.8529    3.3037   -1.8188 H       1  UNL1        0.0618
     46 H          -4.2776    3.4129   -1.6436 H       1  UNL1        0.0624
     47 H          -6.2547    2.7429   -0.5989 H       1  UNL1        0.0624
     48 H          -7.4832    1.4345    1.1131 H       1  UNL1        0.0618
     49 H          -6.1608   -0.0321    2.6276 H       1  UNL1        0.0618
     50 H          -3.7831   -0.1565    2.4524 H       1  UNL1        0.0624
@<TRIPOS>BOND
     1     1     2    1
     2     2     3    1
     3     3     4    1
     4     4     5    1
     5     5     6    1
     6     6     7    1
     7     6     8    1
     8     8     9    1
     9     8    10    1
    10    10    11    2
    11    10    12   am
    12    12    13    1
    13    12    14    1
    14    14    15    1
    15    15    16   ar
    16    16    17   ar
    17    17    18   ar
    18    18    19   ar
    19    19    20   ar
    20    20    21   ar
    21    21    22   ar
    22    22    23   ar
    23    23    24   ar
    24    24    15   ar
    25    24    19   ar
    26     1    25    1
    27     1    26    1
    28     1    27    1
    29     2    28    1
    30     2    29    1
    31     4    30    1
    32     4    31    1
    33     5    32    1
    34     5    33    1
    35     6    34    1
    36     7    35    1
    37     7    36    1
    38     8    37    1
    39     9    38    1
    40    13    39    1
    41    13    40    1
    42    13    41    1
    43    14    42    1
    44    14    43    1
    45    16    44    1
    46    17    45    1
    47    18    46    1
    48    20    47    1
    49    21    48    1
    50    22    49    1
    51    23    50    1
