@<TRIPOS>MOLECULE
*****
 46 50 0 0 0
SMALL
GASTEIGER

@<TRIPOS>ATOM
      1 N          -1.9781   -1.1854   -3.0728 N.pl3   1  UNL1       -0.3134
      2 C          -1.9661   -1.0486   -1.6355 C.2     1  UNL1        0.2763
      3 N          -2.2009    0.0575   -1.0557 N.2     1  UNL1       -0.2204
      4 C          -2.2170    0.3158    0.3660 C.3     1  UNL1        0.1278
      5 C          -2.1402   -0.9466    1.1937 C.3     1  UNL1        0.0155
      6 C          -2.2401   -2.2136    0.4320 C.3     1  UNL1        0.0953
      7 O          -1.6905   -2.1548   -0.8570 O.2     1  UNL1       -0.4658
      8 C          -1.0298    1.1212    0.7322 C.ar    1  UNL1        0.0288
      9 C           0.2452    0.5525    0.5062 C.ar    1  UNL1       -0.0311
     10 C           1.3826    1.2318    0.8176 C.ar    1  UNL1        0.0343
     11 N           2.6867    0.7314    0.6217 N.am    1  UNL1       -0.2802
     12 C           3.0587   -0.5217    0.0860 C.2     1  UNL1        0.2666
     13 O           2.1708   -1.3241   -0.2746 O.2     1  UNL1       -0.2682
     14 C           4.4788   -0.9096   -0.0595 C.ar    1  UNL1        0.1257
     15 C           4.8087   -2.1343   -0.5837 C.ar    1  UNL1       -0.0298
     16 C           6.1569   -2.4860   -0.7146 C.ar    1  UNL1       -0.0397
     17 C           7.1324   -1.6074   -0.3196 C.ar    1  UNL1        0.0591
     18 CL          8.8421   -2.0368   -0.4785 Cl      1  UNL1       -0.0820
     19 C           6.7655   -0.3883    0.2016 C.ar    1  UNL1        0.0467
     20 N           5.4721   -0.0931    0.3089 N.ar    1  UNL1       -0.2489
     21 C           1.2456    2.4973    1.3625 C.ar    1  UNL1       -0.0370
     22 C           0.0490    3.0851    1.5979 C.ar    1  UNL1       -0.0172
     23 C          -1.1094    2.3678    1.2697 C.ar    1  UNL1        0.1363
     24 O          -2.3490    2.9574    1.5052 O.3     1  UNL1       -0.4373
     25 C          -3.5295    2.2551    1.1832 C.ar    1  UNL1        0.2263
     26 N          -4.7222    2.8313    1.4134 N.ar    1  UNL1       -0.2207
     27 C          -5.8481    2.2193    1.1311 C.ar    1  UNL1        0.0314
     28 C          -5.8559    0.9613    0.5872 C.ar    1  UNL1       -0.0430
     29 C          -4.6590    0.3483    0.3411 C.ar    1  UNL1       -0.0494
     30 C          -3.4683    1.0169    0.6489 C.ar    1  UNL1        0.0466
     31 H          -1.2882   -0.6874   -3.6477 H       1  UNL1        0.1466
     32 H          -2.6813   -1.7852   -3.5283 H       1  UNL1        0.1466
     33 H          -1.2161   -0.9961    1.8100 H       1  UNL1        0.0328
     34 H          -2.9737   -0.9321    1.9394 H       1  UNL1        0.0328
     35 H          -3.2856   -2.5835    0.3239 H       1  UNL1        0.0698
     36 H          -1.7100   -3.0470    0.9815 H       1  UNL1        0.0698
     37 H           0.2302   -0.4338    0.0797 H       1  UNL1        0.0641
     38 H           3.5363    1.3305    0.8938 H       1  UNL1        0.1552
     39 H           4.0799   -2.8492   -0.9041 H       1  UNL1        0.0641
     40 H           6.4226   -3.4540   -1.1289 H       1  UNL1        0.0633
     41 H           7.5565    0.3038    0.5130 H       1  UNL1        0.0844
     42 H           2.1676    3.0317    1.6079 H       1  UNL1        0.0637
     43 H          -0.0698    4.0571    2.0162 H       1  UNL1        0.0655
     44 H          -6.8057    2.7023    1.3248 H       1  UNL1        0.0831
     45 H          -6.8061    0.4987    0.3722 H       1  UNL1        0.0633
     46 H          -4.6477   -0.6551   -0.0928 H       1  UNL1        0.0623
@<TRIPOS>BOND
     1     1     2    1
     2     2     3    2
     3     3     4    1
     4     4     5    1
     5     5     6    1
     6     6     7    1
     7     4     8    1
     8     8     9   ar
     9     9    10   ar
    10    10    11    1
    11    11    12   am
    12    12    13    2
    13    12    14    1
    14    14    15   ar
    15    15    16   ar
    16    16    17   ar
    17    17    18    1
    18    17    19   ar
    19    19    20   ar
    20    10    21   ar
    21    21    22   ar
    22    22    23   ar
    23    23    24    1
    24    24    25    1
    25    25    26   ar
    26    26    27   ar
    27    27    28   ar
    28    28    29   ar
    29    29    30   ar
    30     7     2    1
    31    23     8   ar
    32    30    25   ar
    33    30     4    1
    34    20    14   ar
    35     1    31    1
    36     1    32    1
    37     5    33    1
    38     5    34    1
    39     6    35    1
    40     6    36    1
    41     9    37    1
    42    11    38    1
    43    15    39    1
    44    16    40    1
    45    19    41    1
    46    21    42    1
    47    22    43    1
    48    27    44    1
    49    28    45    1
    50    29    46    1
