
     RDKit          3D

 49 51  0  0  0  0  0  0  0  0999 V2000
   -2.5928    0.7061   -1.6010 O   0  0  0  0  0  0  0  0  0  0  0  0
   -2.9966    0.1683   -0.3756 C   0  0  0  0  0  0  0  0  0  0  0  0
   -2.2948    0.9196    0.7291 C   0  0  0  0  0  0  0  0  0  0  0  0
   -0.8282    0.9372    0.4798 C   0  0  0  0  0  0  0  0  0  0  0  0
   -0.2602   -0.1173   -0.2509 N   0  0  0  0  0  0  0  0  0  0  0  0
    0.6802    0.3632   -1.2069 C   0  0  0  0  0  0  0  0  0  0  0  0
    1.9244    0.9525   -0.5748 C   0  0  0  0  0  0  0  0  0  0  0  0
    2.5425   -0.1813    0.2349 C   0  0  0  0  0  0  0  0  0  0  0  0
    3.7735    0.2273    0.9216 C   0  0  0  0  0  0  0  0  0  0  0  0
    3.5313    0.9269    1.9153 O   0  0  0  0  0  0  0  0  0  0  0  0
    5.1456   -0.1005    0.5541 C   0  0  0  0  0  0  0  0  0  0  0  0
    6.1300    0.4133    1.3748 C   0  0  0  0  0  0  0  0  0  0  0  0
    7.4372    0.1201    1.0519 C   0  0  0  0  0  0  0  0  0  0  0  0
    7.7467   -0.6541   -0.0452 C   0  0  0  0  0  0  0  0  0  0  0  0
    9.0188   -0.9589   -0.3874 F   0  0  0  0  0  0  0  0  0  0  0  0
    6.7501   -1.1734   -0.8748 C   0  0  0  0  0  0  0  0  0  0  0  0
    5.4338   -0.8773   -0.5484 C   0  0  0  0  0  0  0  0  0  0  0  0
   -1.0202   -1.2383   -0.6242 C   0  0  0  0  0  0  0  0  0  0  0  0
   -2.4774   -1.2334   -0.3199 C   0  0  0  0  0  0  0  0  0  0  0  0
   -4.4797    0.2342   -0.1990 C   0  0  0  0  0  0  0  0  0  0  0  0
   -5.1830    0.8676    0.8063 C   0  0  0  0  0  0  0  0  0  0  0  0
   -6.5629    0.8125    0.7908 C   0  0  0  0  0  0  0  0  0  0  0  0
   -7.2237    0.1287   -0.2232 C   0  0  0  0  0  0  0  0  0  0  0  0
   -8.9902    0.1203   -0.1475 Cl  0  0  0  0  0  0  0  0  0  0  0  0
   -6.5235   -0.5052   -1.2290 C   0  0  0  0  0  0  0  0  0  0  0  0
   -5.1279   -0.4553   -1.2224 C   0  0  0  0  0  0  0  0  0  0  0  0
   -2.7591    0.0050   -2.2824 H   0  0  0  0  0  0  0  0  0  0  0  0
   -2.7492    1.9303    0.7977 H   0  0  0  0  0  0  0  0  0  0  0  0
   -2.4590    0.3910    1.7009 H   0  0  0  0  0  0  0  0  0  0  0  0
   -0.2336    1.0935    1.4163 H   0  0  0  0  0  0  0  0  0  0  0  0
   -0.6362    1.8975   -0.0937 H   0  0  0  0  0  0  0  0  0  0  0  0
    0.9312   -0.3726   -1.9962 H   0  0  0  0  0  0  0  0  0  0  0  0
    0.1974    1.2155   -1.7471 H   0  0  0  0  0  0  0  0  0  0  0  0
    2.6855    1.2063   -1.3402 H   0  0  0  0  0  0  0  0  0  0  0  0
    1.7196    1.8523    0.0064 H   0  0  0  0  0  0  0  0  0  0  0  0
    1.7880   -0.6126    0.9292 H   0  0  0  0  0  0  0  0  0  0  0  0
    2.7516   -0.9916   -0.4944 H   0  0  0  0  0  0  0  0  0  0  0  0
    5.9057    1.0234    2.2407 H   0  0  0  0  0  0  0  0  0  0  0  0
    8.2712    0.4892    1.6524 H   0  0  0  0  0  0  0  0  0  0  0  0
    6.9530   -1.7732   -1.7283 H   0  0  0  0  0  0  0  0  0  0  0  0
    4.6515   -1.2724   -1.1817 H   0  0  0  0  0  0  0  0  0  0  0  0
   -0.6211   -2.2143   -0.2269 H   0  0  0  0  0  0  0  0  0  0  0  0
   -0.8762   -1.3659   -1.7429 H   0  0  0  0  0  0  0  0  0  0  0  0
   -2.9794   -1.8714   -1.0870 H   0  0  0  0  0  0  0  0  0  0  0  0
   -2.6693   -1.7281    0.6473 H   0  0  0  0  0  0  0  0  0  0  0  0
   -4.5623    1.3655    1.5392 H   0  0  0  0  0  0  0  0  0  0  0  0
   -7.0777    1.3219    1.5966 H   0  0  0  0  0  0  0  0  0  0  0  0
   -7.1079   -1.0174   -1.9839 H   0  0  0  0  0  0  0  0  0  0  0  0
   -4.6766   -0.9745   -2.0409 H   0  0  0  0  0  0  0  0  0  0  0  0
  1  2  1  0
  2  3  1  0
  3  4  1  0
  4  5  1  0
  5  6  1  0
  6  7  1  0
  7  8  1  0
  8  9  1  0
  9 10  2  0
  9 11  1  0
 11 12  2  0
 12 13  1  0
 13 14  2  0
 14 15  1  0
 14 16  1  0
 16 17  2  0
  5 18  1  0
 18 19  1  0
  2 20  1  0
 20 21  2  0
 21 22  1  0
 22 23  2  0
 23 24  1  0
 23 25  1  0
 25 26  2  0
 19  2  1  0
 26 20  1  0
 17 11  1  0
  1 27  1  0
  3 28  1  0
  3 29  1  0
  4 30  1  0
  4 31  1  0
  6 32  1  0
  6 33  1  0
  7 34  1  0
  7 35  1  0
  8 36  1  0
  8 37  1  0
 12 38  1  0
 13 39  1  0
 16 40  1  0
 17 41  1  0
 18 42  1  0
 18 43  1  0
 19 44  1  0
 19 45  1  0
 21 46  1  0
 22 47  1  0
 25 48  1  0
 26 49  1  0
M  END
$$$$
