
     RDKit          3D

 53 55  0  0  0  0  0  0  0  0999 V2000
    1.7135    1.0738   -0.0119 N   0  0  0  0  0  0  0  0  0  0  0  0
    0.3520    0.7559    0.2463 C   0  0  0  0  0  0  0  0  0  0  0  0
    0.0036   -0.2519    1.1196 C   0  0  0  0  0  0  0  0  0  0  0  0
   -1.3622   -0.4714    1.3468 C   0  0  0  0  0  0  0  0  0  0  0  0
   -2.3557    0.2939    0.7199 C   0  0  0  0  0  0  0  0  0  0  0  0
   -3.5911   -0.1194    1.1133 O   0  0  0  0  0  0  0  0  0  0  0  0
   -4.8558    0.2891    0.7929 C   0  0  0  0  0  0  0  0  0  0  0  0
   -5.2446    0.1212   -0.6602 C   0  0  1  0  0  0  0  0  0  0  0  0
   -5.1855   -1.2169   -1.0126 O   0  0  0  0  0  0  0  0  0  0  0  0
   -6.6508    0.6204   -0.9100 C   0  0  0  0  0  0  0  0  0  0  0  0
   -7.6028   -0.1011   -0.1085 N   0  0  0  0  0  0  0  0  0  0  0  0
   -7.7226   -1.4534   -0.5425 C   0  0  0  0  0  0  0  0  0  0  0  0
   -8.8889    0.5423    0.0101 C   0  0  0  0  0  0  0  0  0  0  0  0
   -1.9034    1.2744   -0.1341 C   0  0  0  0  0  0  0  0  0  0  0  0
   -0.5775    1.5378   -0.3983 C   0  0  0  0  0  0  0  0  0  0  0  0
    2.9353    0.6028    0.5181 C   0  0  0  0  0  0  0  0  0  0  0  0
    3.1640    1.2407    1.6742 N   0  0  0  0  0  0  0  0  0  0  0  0
    4.2620    1.0332    2.4513 C   0  0  0  0  0  0  0  0  0  0  0  0
    5.2112    0.0982    2.0185 C   0  0  0  0  0  0  0  0  0  0  0  0
    4.9585   -0.5616    0.8051 C   0  0  0  0  0  0  0  0  0  0  0  0
    3.8460   -0.2904    0.1083 N   0  0  0  0  0  0  0  0  0  0  0  0
    6.0004   -1.4692    0.4993 N   0  0  0  0  0  0  0  0  0  0  0  0
    7.1262   -1.0113   -0.2467 C   0  0  0  0  0  0  0  0  0  0  0  0
    8.1956   -1.8388   -0.5610 C   0  0  0  0  0  0  0  0  0  0  0  0
    8.1591   -3.4976   -0.0351 Cl  0  0  0  0  0  0  0  0  0  0  0  0
    9.3100   -1.4381   -1.2723 C   0  0  0  0  0  0  0  0  0  0  0  0
    9.3471   -0.1216   -1.6921 C   0  0  0  0  0  0  0  0  0  0  0  0
    8.3346    0.7416   -1.4195 C   0  0  0  0  0  0  0  0  0  0  0  0
    8.4452    2.4085   -1.9886 Cl  0  0  0  0  0  0  0  0  0  0  0  0
    7.2294    0.2880   -0.6970 C   0  0  0  0  0  0  0  0  0  0  0  0
    2.0436    1.7650   -0.6971 H   0  0  0  0  0  0  0  0  0  0  0  0
    0.7775   -0.8337    1.5956 H   0  0  0  0  0  0  0  0  0  0  0  0
   -1.5270   -1.2980    2.0563 H   0  0  0  0  0  0  0  0  0  0  0  0
   -5.5744   -0.3441    1.3970 H   0  0  0  0  0  0  0  0  0  0  0  0
   -5.0867    1.3469    1.0936 H   0  0  0  0  0  0  0  0  0  0  0  0
   -4.5659    0.6534   -1.3607 H   0  0  0  0  0  0  0  0  0  0  0  0
   -4.4461   -1.7168   -0.6071 H   0  0  0  0  0  0  0  0  0  0  0  0
   -6.7355    1.7124   -0.7226 H   0  0  0  0  0  0  0  0  0  0  0  0
   -6.8446    0.4840   -2.0020 H   0  0  0  0  0  0  0  0  0  0  0  0
   -7.0545   -2.0754    0.0695 H   0  0  0  0  0  0  0  0  0  0  0  0
   -7.3978   -1.5220   -1.6106 H   0  0  0  0  0  0  0  0  0  0  0  0
   -8.7697   -1.8263   -0.4709 H   0  0  0  0  0  0  0  0  0  0  0  0
   -8.8304    1.5308   -0.5020 H   0  0  0  0  0  0  0  0  0  0  0  0
   -9.1897    0.7184    1.0822 H   0  0  0  0  0  0  0  0  0  0  0  0
   -9.7167   -0.0308   -0.4867 H   0  0  0  0  0  0  0  0  0  0  0  0
   -2.6995    1.8358   -0.5851 H   0  0  0  0  0  0  0  0  0  0  0  0
   -0.3564    2.3281   -1.0823 H   0  0  0  0  0  0  0  0  0  0  0  0
    4.4464    1.5586    3.4020 H   0  0  0  0  0  0  0  0  0  0  0  0
    6.0700   -0.0432    2.6576 H   0  0  0  0  0  0  0  0  0  0  0  0
    6.0111   -2.4726    0.7826 H   0  0  0  0  0  0  0  0  0  0  0  0
   10.1435   -2.0802   -1.5177 H   0  0  0  0  0  0  0  0  0  0  0  0
   10.2252    0.2164   -2.2589 H   0  0  0  0  0  0  0  0  0  0  0  0
    6.4247    1.0142   -0.4909 H   0  0  0  0  0  0  0  0  0  0  0  0
  1  2  1  0
  2  3  2  0
  3  4  1  0
  4  5  2  0
  5  6  1  0
  6  7  1  0
  7  8  1  0
  8  9  1  0
  8 10  1  0
 10 11  1  0
 11 12  1  0
 11 13  1  0
  5 14  1  0
 14 15  2  0
  1 16  1  0
 16 17  2  0
 17 18  1  0
 18 19  2  0
 19 20  1  0
 20 21  2  0
 20 22  1  0
 22 23  1  0
 23 24  2  0
 24 25  1  0
 24 26  1  0
 26 27  2  0
 27 28  1  0
 28 29  1  0
 28 30  2  0
 15  2  1  0
 21 16  1  0
 30 23  1  0
  1 31  1  0
  3 32  1  0
  4 33  1  0
  7 34  1  0
  7 35  1  0
  8 36  1  6
  9 37  1  0
 10 38  1  0
 10 39  1  0
 12 40  1  0
 12 41  1  0
 12 42  1  0
 13 43  1  0
 13 44  1  0
 13 45  1  0
 14 46  1  0
 15 47  1  0
 18 48  1  0
 19 49  1  0
 22 50  1  0
 26 51  1  0
 27 52  1  0
 30 53  1  0
M  END
$$$$
