@<TRIPOS>MOLECULE
*****
 53 55 0 0 0
SMALL
GASTEIGER

@<TRIPOS>ATOM
      1 N           1.7135    1.0738   -0.0119 N.pl3   1  UNL1       -0.2836
      2 C           0.3520    0.7559    0.2463 C.ar    1  UNL1        0.0338
      3 C           0.0036   -0.2519    1.1196 C.ar    1  UNL1       -0.0370
      4 C          -1.3622   -0.4714    1.3468 C.ar    1  UNL1       -0.0182
      5 C          -2.3557    0.2939    0.7199 C.ar    1  UNL1        0.1207
      6 O          -3.5911   -0.1194    1.1133 O.3     1  UNL1       -0.4894
      7 C          -4.8558    0.2891    0.7929 C.3     1  UNL1        0.1166
      8 C          -5.2446    0.1212   -0.6602 C.3     1  UNL1        0.1017
      9 O          -5.1855   -1.2169   -1.0126 O.3     1  UNL1       -0.3872
     10 C          -6.6508    0.6204   -0.9100 C.3     1  UNL1        0.0276
     11 N          -7.6028   -0.1011   -0.1085 N.3     1  UNL1       -0.3058
     12 C          -7.7226   -1.4534   -0.5425 C.3     1  UNL1       -0.0130
     13 C          -8.8889    0.5423    0.0101 C.3     1  UNL1       -0.0130
     14 C          -1.9034    1.2744   -0.1341 C.ar    1  UNL1       -0.0182
     15 C          -0.5775    1.5378   -0.3983 C.ar    1  UNL1       -0.0370
     16 C           2.9353    0.6028    0.5181 C.ar    1  UNL1        0.2212
     17 N           3.1640    1.2407    1.6742 N.ar    1  UNL1       -0.2225
     18 C           4.2620    1.0332    2.4513 C.ar    1  UNL1        0.0344
     19 C           5.2112    0.0982    2.0185 C.ar    1  UNL1       -0.0033
     20 C           4.9585   -0.5616    0.8051 C.ar    1  UNL1        0.1280
     21 N           3.8460   -0.2904    0.1083 N.ar    1  UNL1       -0.1992
     22 N           6.0004   -1.4692    0.4993 N.pl3   1  UNL1       -0.2981
     23 C           7.1262   -1.0113   -0.2467 C.ar    1  UNL1        0.0523
     24 C           8.1956   -1.8388   -0.5610 C.ar    1  UNL1        0.0622
     25 CL          8.1591   -3.4976   -0.0351 Cl      1  UNL1       -0.0816
     26 C           9.3100   -1.4381   -1.2723 C.ar    1  UNL1       -0.0402
     27 C           9.3471   -0.1216   -1.6921 C.ar    1  UNL1       -0.0419
     28 C           8.3346    0.7416   -1.4195 C.ar    1  UNL1        0.0428
     29 CL          8.4452    2.4085   -1.9886 Cl      1  UNL1       -0.0835
     30 C           7.2294    0.2880   -0.6970 C.ar    1  UNL1       -0.0207
     31 H           2.0436    1.7650   -0.6971 H       1  UNL1        0.1550
     32 H           0.7775   -0.8337    1.5956 H       1  UNL1        0.0637
     33 H          -1.5270   -1.2980    2.0563 H       1  UNL1        0.0655
     34 H          -5.5744   -0.3441    1.3970 H       1  UNL1        0.0723
     35 H          -5.0867    1.3469    1.0936 H       1  UNL1        0.0723
     36 H          -4.5659    0.6534   -1.3607 H       1  UNL1        0.0640
     37 H          -4.4461   -1.7168   -0.6071 H       1  UNL1        0.2100
     38 H          -6.7355    1.7124   -0.7226 H       1  UNL1        0.0453
     39 H          -6.8446    0.4840   -2.0020 H       1  UNL1        0.0453
     40 H          -7.0545   -2.0754    0.0695 H       1  UNL1        0.0391
     41 H          -7.3978   -1.5220   -1.6106 H       1  UNL1        0.0391
     42 H          -8.7697   -1.8263   -0.4709 H       1  UNL1        0.0391
     43 H          -8.8304    1.5308   -0.5020 H       1  UNL1        0.0391
     44 H          -9.1897    0.7184    1.0822 H       1  UNL1        0.0391
     45 H          -9.7167   -0.0308   -0.4867 H       1  UNL1        0.0391
     46 H          -2.6995    1.8358   -0.5851 H       1  UNL1        0.0655
     47 H          -0.3564    2.3281   -1.0823 H       1  UNL1        0.0637
     48 H           4.4464    1.5586    3.4020 H       1  UNL1        0.0832
     49 H           6.0700   -0.0432    2.6576 H       1  UNL1        0.0667
     50 H           6.0111   -2.4726    0.7826 H       1  UNL1        0.1536
     51 H          10.1435   -2.0802   -1.5177 H       1  UNL1        0.0633
     52 H          10.2252    0.2164   -2.2589 H       1  UNL1        0.0633
     53 H           6.4247    1.0142   -0.4909 H       1  UNL1        0.0651
@<TRIPOS>BOND
     1     1     2    1
     2     2     3   ar
     3     3     4   ar
     4     4     5   ar
     5     5     6    1
     6     6     7    1
     7     7     8    1
     8     8     9    1
     9     8    10    1
    10    10    11    1
    11    11    12    1
    12    11    13    1
    13     5    14   ar
    14    14    15   ar
    15     1    16    1
    16    16    17   ar
    17    17    18   ar
    18    18    19   ar
    19    19    20   ar
    20    20    21   ar
    21    20    22    1
    22    22    23    1
    23    23    24   ar
    24    24    25    1
    25    24    26   ar
    26    26    27   ar
    27    27    28   ar
    28    28    29    1
    29    28    30   ar
    30    15     2   ar
    31    21    16   ar
    32    30    23   ar
    33     1    31    1
    34     3    32    1
    35     4    33    1
    36     7    34    1
    37     7    35    1
    38     8    36    1
    39     9    37    1
    40    10    38    1
    41    10    39    1
    42    12    40    1
    43    12    41    1
    44    12    42    1
    45    13    43    1
    46    13    44    1
    47    13    45    1
    48    14    46    1
    49    15    47    1
    50    18    48    1
    51    19    49    1
    52    22    50    1
    53    26    51    1
    54    27    52    1
    55    30    53    1
