@<TRIPOS>MOLECULE
*****
 46 49 0 0 0
SMALL
GASTEIGER

@<TRIPOS>ATOM
      1 C           2.6245    1.2698   -3.6391 C.3     1  UNL1       -0.0375
      2 C           3.5946    0.5717   -2.7521 C.ar    1  UNL1       -0.0187
      3 C           4.9307    0.6017   -3.1925 C.ar    1  UNL1       -0.0378
      4 C           5.9139    0.0406   -2.4188 C.ar    1  UNL1        0.0701
      5 C           7.2886    0.0255   -2.7980 C.1     1  UNL1        0.1007
      6 N           8.4412    0.0231   -3.1349 N.1     1  UNL1       -0.1908
      7 C           5.4869   -0.5289   -1.2231 C.ar    1  UNL1        0.0458
      8 N           4.2196   -0.5463   -0.8281 N.ar    1  UNL1       -0.2488
      9 C           3.2148    0.0136   -1.5970 C.ar    1  UNL1        0.1286
     10 C           1.8406   -0.1192   -1.1169 C.2     1  UNL1        0.2668
     11 O           1.6701   -0.2068    0.1637 O.2     1  UNL1       -0.2682
     12 N           0.6744   -0.1696   -1.8846 N.am    1  UNL1       -0.2801
     13 C          -0.6728   -0.2878   -1.4302 C.ar    1  UNL1        0.0369
     14 C          -1.6949   -0.2783   -2.3821 C.ar    1  UNL1       -0.0037
     15 C          -3.0266   -0.3894   -2.0996 C.ar    1  UNL1        0.1437
     16 F          -3.9813   -0.3717   -3.0805 F       1  UNL1       -0.2039
     17 C          -3.3932   -0.5230   -0.7540 C.ar    1  UNL1        0.0817
     18 CL         -5.1050   -0.6847   -0.4521 Cl      1  UNL1       -0.0802
     19 C          -2.4466   -0.5398    0.2306 C.ar    1  UNL1        0.0057
     20 C          -2.7798   -0.6625    1.6706 C.3     1  UNL1        0.1272
     21 C          -3.4053   -2.0233    1.8876 C.3     1  UNL1        0.1199
     22 F          -2.5224   -3.0398    1.5133 F       1  UNL1       -0.2462
     23 N          -1.5435   -0.6769    2.4418 N.2     1  UNL1       -0.2225
     24 C          -1.0024    0.3204    3.0090 C.2     1  UNL1        0.2763
     25 N           0.1976    0.2718    3.7477 N.pl3   1  UNL1       -0.3134
     26 O          -1.6762    1.5347    2.8684 O.2     1  UNL1       -0.4622
     27 C          -3.0900    1.5733    2.8201 C.3     1  UNL1        0.1090
     28 C          -3.9013    0.6159    3.5979 C.3     1  UNL1       -0.0065
     29 C          -3.7058    0.4269    2.1285 C.3     1  UNL1        0.0314
     30 C          -1.0880   -0.4202   -0.1370 C.ar    1  UNL1       -0.0333
     31 H           2.3031    0.6496   -4.4691 H       1  UNL1        0.0278
     32 H           3.2241    2.1075   -4.1516 H       1  UNL1        0.0278
     33 H           1.8739    1.8275   -3.0798 H       1  UNL1        0.0278
     34 H           5.1979    1.0602   -4.1349 H       1  UNL1        0.0634
     35 H           6.2882   -0.9715   -0.6170 H       1  UNL1        0.0843
     36 H           0.8048   -0.1547   -2.9483 H       1  UNL1        0.1552
     37 H          -1.4128   -0.1758   -3.4138 H       1  UNL1        0.0665
     38 H          -3.5465   -2.2169    2.9976 H       1  UNL1        0.0643
     39 H          -4.4031   -2.1316    1.4638 H       1  UNL1        0.0643
     40 H           0.5588    1.1021    4.2340 H       1  UNL1        0.1466
     41 H           0.7233   -0.6509    3.7891 H       1  UNL1        0.1466
     42 H          -3.5038    2.5898    2.6937 H       1  UNL1        0.0737
     43 H          -3.4000   -0.0974    4.2838 H       1  UNL1        0.0306
     44 H          -4.8751    0.9734    4.0045 H       1  UNL1        0.0306
     45 H          -4.5410    0.7050    1.4591 H       1  UNL1        0.0365
     46 H          -0.3541   -0.4373    0.6532 H       1  UNL1        0.0640
@<TRIPOS>BOND
     1     1     2    1
     2     2     3   ar
     3     3     4   ar
     4     4     5    1
     5     5     6    3
     6     4     7   ar
     7     7     8   ar
     8     8     9   ar
     9     9    10    1
    10    10    11    2
    11    10    12   am
    12    12    13    1
    13    13    14   ar
    14    14    15   ar
    15    15    16    1
    16    15    17   ar
    17    17    18    1
    18    17    19   ar
    19    19    20    1
    20    20    21    1
    21    21    22    1
    22    20    23    1
    23    23    24    2
    24    24    25    1
    25    24    26    1
    26    26    27    1
    27    27    28    1
    28    28    29    1
    29    19    30   ar
    30     9     2   ar
    31    30    13   ar
    32    29    20    1
    33    29    27    1
    34     1    31    1
    35     1    32    1
    36     1    33    1
    37     3    34    1
    38     7    35    1
    39    12    36    1
    40    14    37    1
    41    21    38    1
    42    21    39    1
    43    25    40    1
    44    25    41    1
    45    27    42    1
    46    28    43    1
    47    28    44    1
    48    29    45    1
    49    30    46    1
