
     RDKit          3D

 46 49  0  0  0  0  0  0  0  0999 V2000
    2.6245    1.2698   -3.6391 C   0  0  0  0  0  0  0  0  0  0  0  0
    3.5946    0.5717   -2.7521 C   0  0  0  0  0  0  0  0  0  0  0  0
    4.9307    0.6017   -3.1925 C   0  0  0  0  0  0  0  0  0  0  0  0
    5.9139    0.0406   -2.4188 C   0  0  0  0  0  0  0  0  0  0  0  0
    7.2886    0.0255   -2.7980 C   0  0  0  0  0  0  0  0  0  0  0  0
    8.4412    0.0231   -3.1349 N   0  0  0  0  0  0  0  0  0  0  0  0
    5.4869   -0.5289   -1.2231 C   0  0  0  0  0  0  0  0  0  0  0  0
    4.2196   -0.5463   -0.8281 N   0  0  0  0  0  0  0  0  0  0  0  0
    3.2148    0.0136   -1.5970 C   0  0  0  0  0  0  0  0  0  0  0  0
    1.8406   -0.1192   -1.1169 C   0  0  0  0  0  0  0  0  0  0  0  0
    1.6701   -0.2068    0.1637 O   0  0  0  0  0  0  0  0  0  0  0  0
    0.6744   -0.1696   -1.8846 N   0  0  0  0  0  0  0  0  0  0  0  0
   -0.6728   -0.2878   -1.4302 C   0  0  0  0  0  0  0  0  0  0  0  0
   -1.6949   -0.2783   -2.3821 C   0  0  0  0  0  0  0  0  0  0  0  0
   -3.0266   -0.3894   -2.0996 C   0  0  0  0  0  0  0  0  0  0  0  0
   -3.9813   -0.3717   -3.0805 F   0  0  0  0  0  0  0  0  0  0  0  0
   -3.3932   -0.5230   -0.7540 C   0  0  0  0  0  0  0  0  0  0  0  0
   -5.1050   -0.6847   -0.4521 Cl  0  0  0  0  0  0  0  0  0  0  0  0
   -2.4466   -0.5398    0.2306 C   0  0  0  0  0  0  0  0  0  0  0  0
   -2.7798   -0.6625    1.6706 C   0  0  1  0  0  0  0  0  0  0  0  0
   -3.4053   -2.0233    1.8876 C   0  0  0  0  0  0  0  0  0  0  0  0
   -2.5224   -3.0398    1.5133 F   0  0  0  0  0  0  0  0  0  0  0  0
   -1.5435   -0.6769    2.4418 N   0  0  0  0  0  0  0  0  0  0  0  0
   -1.0024    0.3204    3.0090 C   0  0  0  0  0  0  0  0  0  0  0  0
    0.1976    0.2718    3.7477 N   0  0  0  0  0  0  0  0  0  0  0  0
   -1.6762    1.5347    2.8684 O   0  0  0  0  0  0  0  0  0  0  0  0
   -3.0900    1.5733    2.8201 C   0  0  2  0  0  0  0  0  0  0  0  0
   -3.9013    0.6159    3.5979 C   0  0  0  0  0  0  0  0  0  0  0  0
   -3.7058    0.4269    2.1285 C   0  0  2  0  0  0  0  0  0  0  0  0
   -1.0880   -0.4202   -0.1370 C   0  0  0  0  0  0  0  0  0  0  0  0
    2.3031    0.6496   -4.4691 H   0  0  0  0  0  0  0  0  0  0  0  0
    3.2241    2.1075   -4.1516 H   0  0  0  0  0  0  0  0  0  0  0  0
    1.8739    1.8275   -3.0798 H   0  0  0  0  0  0  0  0  0  0  0  0
    5.1979    1.0602   -4.1349 H   0  0  0  0  0  0  0  0  0  0  0  0
    6.2882   -0.9715   -0.6170 H   0  0  0  0  0  0  0  0  0  0  0  0
    0.8048   -0.1547   -2.9483 H   0  0  0  0  0  0  0  0  0  0  0  0
   -1.4128   -0.1758   -3.4138 H   0  0  0  0  0  0  0  0  0  0  0  0
   -3.5465   -2.2169    2.9976 H   0  0  0  0  0  0  0  0  0  0  0  0
   -4.4031   -2.1316    1.4638 H   0  0  0  0  0  0  0  0  0  0  0  0
    0.5588    1.1021    4.2340 H   0  0  0  0  0  0  0  0  0  0  0  0
    0.7233   -0.6509    3.7891 H   0  0  0  0  0  0  0  0  0  0  0  0
   -3.5038    2.5898    2.6937 H   0  0  0  0  0  0  0  0  0  0  0  0
   -3.4000   -0.0974    4.2838 H   0  0  0  0  0  0  0  0  0  0  0  0
   -4.8751    0.9734    4.0045 H   0  0  0  0  0  0  0  0  0  0  0  0
   -4.5410    0.7050    1.4591 H   0  0  0  0  0  0  0  0  0  0  0  0
   -0.3541   -0.4373    0.6532 H   0  0  0  0  0  0  0  0  0  0  0  0
  1  2  1  0
  2  3  2  0
  3  4  1  0
  4  5  1  0
  5  6  3  0
  4  7  2  0
  7  8  1  0
  8  9  2  0
  9 10  1  0
 10 11  2  0
 10 12  1  0
 12 13  1  0
 13 14  2  0
 14 15  1  0
 15 16  1  0
 15 17  2  0
 17 18  1  0
 17 19  1  0
 19 20  1  0
 20 21  1  6
 21 22  1  0
 20 23  1  0
 23 24  2  0
 24 25  1  0
 24 26  1  0
 26 27  1  0
 27 28  1  0
 28 29  1  0
 19 30  2  0
  9  2  1  0
 30 13  1  0
 29 20  1  0
 29 27  1  0
  1 31  1  0
  1 32  1  0
  1 33  1  0
  3 34  1  0
  7 35  1  0
 12 36  1  0
 14 37  1  0
 21 38  1  0
 21 39  1  0
 25 40  1  0
 25 41  1  0
 27 42  1  6
 28 43  1  0
 28 44  1  0
 29 45  1  6
 30 46  1  0
M  END
$$$$
