
     RDKit          3D

 41 44  0  0  0  0  0  0  0  0999 V2000
    5.3253   -0.1429    0.9340 C   0  0  0  0  0  0  0  0  0  0  0  0
    5.1382    1.0215    0.1454 O   0  0  0  0  0  0  0  0  0  0  0  0
    3.8910    1.3839   -0.3475 C   0  0  0  0  0  0  0  0  0  0  0  0
    2.7250    0.6822   -0.1372 C   0  0  0  0  0  0  0  0  0  0  0  0
    1.5090    1.1225   -0.6741 C   0  0  0  0  0  0  0  0  0  0  0  0
    1.5645    2.2915   -1.4157 C   0  0  0  0  0  0  0  0  0  0  0  0
    2.7090    3.0140   -1.6440 C   0  0  0  0  0  0  0  0  0  0  0  0
    3.8816    2.5408   -1.0955 C   0  0  0  0  0  0  0  0  0  0  0  0
    0.3689    0.2666   -0.3866 C   0  0  0  0  0  0  0  0  0  0  0  0
   -0.5374    1.1252    0.0235 O   0  0  0  0  0  0  0  0  0  0  0  0
    0.2862   -1.0270   -0.5126 C   0  0  0  0  0  0  0  0  0  0  0  0
    1.3553   -1.8874   -0.9865 C   0  0  0  0  0  0  0  0  0  0  0  0
    0.9104   -3.0819   -0.9757 N   0  0  0  0  0  0  0  0  0  0  0  0
   -0.4226   -3.1594   -0.5230 C   0  0  0  0  0  0  0  0  0  0  0  0
   -1.3013   -4.1605   -0.3455 N   0  0  0  0  0  0  0  0  0  0  0  0
   -2.5483   -3.8924    0.1134 C   0  0  0  0  0  0  0  0  0  0  0  0
   -2.9521   -2.5801    0.4132 C   0  0  0  0  0  0  0  0  0  0  0  0
   -2.0489   -1.5225    0.2349 C   0  0  0  0  0  0  0  0  0  0  0  0
   -0.8208   -1.8778   -0.2302 C   0  0  0  0  0  0  0  0  0  0  0  0
   -2.7036   -0.3470    0.6543 C   0  0  0  0  0  0  0  0  0  0  0  0
   -3.5170    0.1949   -0.3592 C   0  0  0  0  0  0  0  0  0  0  0  0
   -4.2991    1.3284   -0.1512 C   0  0  0  0  0  0  0  0  0  0  0  0
   -5.0841    1.8592   -1.1177 F   0  0  0  0  0  0  0  0  0  0  0  0
   -4.2867    1.9500    1.0800 C   0  0  0  0  0  0  0  0  0  0  0  0
   -3.5053    1.4469    2.0881 C   0  0  0  0  0  0  0  0  0  0  0  0
   -3.4478    2.0094    3.3191 F   0  0  0  0  0  0  0  0  0  0  0  0
   -2.7353    0.3348    1.8910 C   0  0  0  0  0  0  0  0  0  0  0  0
    4.8659   -0.9873    0.3937 H   0  0  0  0  0  0  0  0  0  0  0  0
    4.8162   -0.0690    1.9109 H   0  0  0  0  0  0  0  0  0  0  0  0
    6.3998   -0.3801    1.0453 H   0  0  0  0  0  0  0  0  0  0  0  0
    2.9272   -0.1991    0.4908 H   0  0  0  0  0  0  0  0  0  0  0  0
    0.5840    2.5864   -1.8099 H   0  0  0  0  0  0  0  0  0  0  0  0
    2.6275    3.9155   -2.2415 H   0  0  0  0  0  0  0  0  0  0  0  0
    4.7533    3.1568   -1.3110 H   0  0  0  0  0  0  0  0  0  0  0  0
   -1.0662    1.7228   -0.5965 H   0  0  0  0  0  0  0  0  0  0  0  0
    2.3307   -1.5553   -1.2948 H   0  0  0  0  0  0  0  0  0  0  0  0
   -3.1319   -4.7944    0.2016 H   0  0  0  0  0  0  0  0  0  0  0  0
   -3.9749   -2.6201    0.7584 H   0  0  0  0  0  0  0  0  0  0  0  0
   -3.6151   -0.2049   -1.3787 H   0  0  0  0  0  0  0  0  0  0  0  0
   -4.8960    2.8302    1.2338 H   0  0  0  0  0  0  0  0  0  0  0  0
   -2.0745   -0.1639    2.6032 H   0  0  0  0  0  0  0  0  0  0  0  0
  1  2  1  0
  2  3  1  0
  3  4  2  0
  4  5  1  0
  5  6  2  0
  6  7  1  0
  7  8  2  0
  5  9  1  0
  9 10  1  0
  9 11  2  0
 11 12  1  0
 12 13  2  0
 13 14  1  0
 14 15  2  0
 15 16  1  0
 16 17  2  0
 17 18  1  0
 18 19  2  0
 18 20  1  0
 20 21  2  0
 21 22  1  0
 22 23  1  0
 22 24  2  0
 24 25  1  0
 25 26  1  0
 25 27  2  0
  8  3  1  0
 19 11  1  0
 27 20  1  0
 19 14  1  0
  1 28  1  0
  1 29  1  0
  1 30  1  0
  4 31  1  0
  6 32  1  0
  7 33  1  0
  8 34  1  0
 10 35  1  0
 12 36  1  0
 16 37  1  0
 17 38  1  0
 21 39  1  0
 24 40  1  0
 27 41  1  0
M  END
$$$$
