@<TRIPOS>MOLECULE
*****
 41 44 0 0 0
SMALL
GASTEIGER

@<TRIPOS>ATOM
      1 C           5.3253   -0.1429    0.9340 C.3     1  UNL1        0.0788
      2 O           5.1382    1.0215    0.1454 O.3     1  UNL1       -0.4951
      3 C           3.8910    1.3839   -0.3475 C.ar    1  UNL1        0.1208
      4 C           2.7250    0.6822   -0.1372 C.ar    1  UNL1       -0.0093
      5 C           1.5090    1.1225   -0.6741 C.ar    1  UNL1        0.0205
      6 C           1.5645    2.2915   -1.4157 C.ar    1  UNL1       -0.0509
      7 C           2.7090    3.0140   -1.6440 C.ar    1  UNL1       -0.0576
      8 C           3.8816    2.5408   -1.0955 C.ar    1  UNL1       -0.0199
      9 C           0.3689    0.2666   -0.3866 C.2     1  UNL1        0.1333
     10 O          -0.5374    1.1252    0.0235 O.2     1  UNL1       -0.5055
     11 C           0.2862   -1.0270   -0.5126 C.2     1  UNL1        0.0464
     12 C           1.3553   -1.8874   -0.9865 C.2     1  UNL1        0.0413
     13 N           0.9104   -3.0819   -0.9757 N.2     1  UNL1       -0.2349
     14 C          -0.4226   -3.1594   -0.5230 C.ar    1  UNL1        0.1610
     15 N          -1.3013   -4.1605   -0.3455 N.ar    1  UNL1       -0.2357
     16 C          -2.5483   -3.8924    0.1134 C.ar    1  UNL1        0.0306
     17 C          -2.9521   -2.5801    0.4132 C.ar    1  UNL1       -0.0351
     18 C          -2.0489   -1.5225    0.2349 C.ar    1  UNL1       -0.0049
     19 C          -0.8208   -1.8778   -0.2302 C.ar    1  UNL1        0.0389
     20 C          -2.7036   -0.3470    0.6543 C.ar    1  UNL1       -0.0117
     21 C          -3.5170    0.1949   -0.3592 C.ar    1  UNL1       -0.0185
     22 C          -4.2991    1.3284   -0.1512 C.ar    1  UNL1        0.1267
     23 F          -5.0841    1.8592   -1.1177 F       1  UNL1       -0.2054
     24 C          -4.2867    1.9500    1.0800 C.ar    1  UNL1        0.0088
     25 C          -3.5053    1.4469    2.0881 C.ar    1  UNL1        0.1267
     26 F          -3.4478    2.0094    3.3191 F       1  UNL1       -0.2054
     27 C          -2.7353    0.3348    1.8910 C.ar    1  UNL1       -0.0185
     28 H           4.8659   -0.9873    0.3937 H       1  UNL1        0.0660
     29 H           4.8162   -0.0690    1.9109 H       1  UNL1        0.0660
     30 H           6.3998   -0.3801    1.0453 H       1  UNL1        0.0660
     31 H           2.9272   -0.1991    0.4908 H       1  UNL1        0.0661
     32 H           0.5840    2.5864   -1.8099 H       1  UNL1        0.0625
     33 H           2.6275    3.9155   -2.2415 H       1  UNL1        0.0619
     34 H           4.7533    3.1568   -1.3110 H       1  UNL1        0.0654
     35 H          -1.0662    1.7228   -0.5965 H       1  UNL1        0.2922
     36 H           2.3307   -1.5553   -1.2948 H       1  UNL1        0.0838
     37 H          -3.1319   -4.7944    0.2016 H       1  UNL1        0.0830
     38 H          -3.9749   -2.6201    0.7584 H       1  UNL1        0.0639
     39 H          -3.6151   -0.2049   -1.3787 H       1  UNL1        0.0652
     40 H          -4.8960    2.8302    1.2338 H       1  UNL1        0.0675
     41 H          -2.0745   -0.1639    2.6032 H       1  UNL1        0.0652
@<TRIPOS>BOND
     1     1     2    1
     2     2     3    1
     3     3     4   ar
     4     4     5   ar
     5     5     6   ar
     6     6     7   ar
     7     7     8   ar
     8     5     9    1
     9     9    10    1
    10     9    11    2
    11    11    12    1
    12    12    13    2
    13    13    14    1
    14    14    15   ar
    15    15    16   ar
    16    16    17   ar
    17    17    18   ar
    18    18    19   ar
    19    18    20    1
    20    20    21   ar
    21    21    22   ar
    22    22    23    1
    23    22    24   ar
    24    24    25   ar
    25    25    26    1
    26    25    27   ar
    27     8     3   ar
    28    19    11    1
    29    27    20   ar
    30    19    14   ar
    31     1    28    1
    32     1    29    1
    33     1    30    1
    34     4    31    1
    35     6    32    1
    36     7    33    1
    37     8    34    1
    38    10    35    1
    39    12    36    1
    40    16    37    1
    41    17    38    1
    42    21    39    1
    43    24    40    1
    44    27    41    1
