@<TRIPOS>MOLECULE
*****
 49 51 0 0 0
SMALL
GASTEIGER

@<TRIPOS>ATOM
      1 C           8.2682   -0.7965   -1.4724 C.3     1  UNL1        0.0833
      2 O           7.7147   -0.3623   -0.2467 O.3     1  UNL1       -0.4537
      3 C           6.7933    0.6883   -0.2731 C.2     1  UNL1        0.4003
      4 O           6.5063    1.1890   -1.3799 O.2     1  UNL1       -0.2265
      5 N           6.2465    1.1166    0.9456 N.am    1  UNL1       -0.2770
      6 C           5.2874    2.1917    0.9912 C.3     1  UNL1        0.0400
      7 C           3.9620    1.6334    0.5807 C.ar    1  UNL1       -0.0302
      8 C           3.1925    1.0136    1.5755 C.ar    1  UNL1       -0.0564
      9 C           1.9562    0.5000    1.2431 C.ar    1  UNL1       -0.0493
     10 C           1.4297    0.5613   -0.0199 C.ar    1  UNL1        0.0370
     11 C           0.1256    0.0030   -0.2904 C.2     1  UNL1        0.2483
     12 O          -0.3094    0.0858   -1.4893 O.2     1  UNL1       -0.2699
     13 N          -0.7293   -0.6289    0.6286 N.am    1  UNL1       -0.2799
     14 C          -2.0130   -1.1563    0.2773 C.ar    1  UNL1        0.0551
     15 C          -3.1251   -0.3461    0.3684 C.ar    1  UNL1       -0.0310
     16 C          -4.3676   -0.8623    0.0266 C.ar    1  UNL1       -0.0160
     17 C          -5.5707   -0.0718    0.0973 C.ar    1  UNL1       -0.0178
     18 C          -5.7138    0.9144    1.0380 C.ar    1  UNL1       -0.0540
     19 C          -6.8682    1.6884    1.1228 C.ar    1  UNL1       -0.0612
     20 C          -7.8786    1.4475    0.2374 C.ar    1  UNL1       -0.0617
     21 C          -7.7655    0.4708   -0.7122 C.ar    1  UNL1       -0.0612
     22 C          -6.5945   -0.3005   -0.7837 C.ar    1  UNL1       -0.0540
     23 C          -4.4210   -2.1780   -0.3917 C.ar    1  UNL1       -0.0522
     24 C          -3.3050   -2.9783   -0.4790 C.ar    1  UNL1       -0.0387
     25 C          -2.0717   -2.4673   -0.1402 C.ar    1  UNL1        0.0461
     26 N          -0.8854   -3.2640   -0.2157 N.pl3   1  UNL1       -0.3565
     27 C           2.1976    1.1730   -0.9845 C.ar    1  UNL1       -0.0493
     28 C           3.4510    1.7044   -0.6883 C.ar    1  UNL1       -0.0564
     29 H           9.1882   -0.2283   -1.7455 H       1  UNL1        0.0661
     30 H           8.4629   -1.8705   -1.4018 H       1  UNL1        0.0661
     31 H           7.5559   -0.6476   -2.3226 H       1  UNL1        0.0661
     32 H           6.5037    0.6834    1.8734 H       1  UNL1        0.1523
     33 H           5.5719    2.9385    0.2252 H       1  UNL1        0.0513
     34 H           5.2280    2.6668    1.9931 H       1  UNL1        0.0513
     35 H           3.6140    0.9692    2.5684 H       1  UNL1        0.0621
     36 H           1.3998    0.0344    2.0306 H       1  UNL1        0.0625
     37 H          -0.4114   -0.7174    1.6162 H       1  UNL1        0.1552
     38 H          -3.0882    0.6722    0.6916 H       1  UNL1        0.0643
     39 H          -4.9153    1.1151    1.7479 H       1  UNL1        0.0624
     40 H          -6.9733    2.4782    1.8817 H       1  UNL1        0.0618
     41 H          -8.7858    2.0440    0.2913 H       1  UNL1        0.0618
     42 H          -8.5488    0.2743   -1.4085 H       1  UNL1        0.0618
     43 H          -6.5023   -1.0805   -1.5410 H       1  UNL1        0.0624
     44 H          -5.4103   -2.5781   -0.6602 H       1  UNL1        0.0624
     45 H          -3.3649   -4.0135   -0.8107 H       1  UNL1        0.0637
     46 H           0.0182   -2.9551    0.1950 H       1  UNL1        0.1424
     47 H          -0.9107   -4.1864   -0.6940 H       1  UNL1        0.1424
     48 H           1.8274    1.2440   -1.9831 H       1  UNL1        0.0625
     49 H           4.0288    2.1885   -1.4551 H       1  UNL1        0.0621
@<TRIPOS>BOND
     1     1     2    1
     2     2     3    1
     3     3     4    2
     4     3     5   am
     5     5     6    1
     6     6     7    1
     7     7     8   ar
     8     8     9   ar
     9     9    10   ar
    10    10    11    1
    11    11    12    2
    12    11    13   am
    13    13    14    1
    14    14    15   ar
    15    15    16   ar
    16    16    17    1
    17    17    18   ar
    18    18    19   ar
    19    19    20   ar
    20    20    21   ar
    21    21    22   ar
    22    16    23   ar
    23    23    24   ar
    24    24    25   ar
    25    25    26    1
    26    10    27   ar
    27    27    28   ar
    28    28     7   ar
    29    25    14   ar
    30    22    17   ar
    31     1    29    1
    32     1    30    1
    33     1    31    1
    34     5    32    1
    35     6    33    1
    36     6    34    1
    37     8    35    1
    38     9    36    1
    39    13    37    1
    40    15    38    1
    41    18    39    1
    42    19    40    1
    43    20    41    1
    44    21    42    1
    45    22    43    1
    46    23    44    1
    47    24    45    1
    48    26    46    1
    49    26    47    1
    50    27    48    1
    51    28    49    1
