
     RDKit          3D

 62 62  0  0  0  0  0  0  0  0999 V2000
   -4.9379   -3.5000    0.3694 C   0  0  0  0  0  0  0  0  0  0  0  0
   -4.6563   -3.1049   -1.0662 C   0  0  0  0  0  0  0  0  0  0  0  0
   -4.6066   -1.6131   -1.1463 C   0  0  0  0  0  0  0  0  0  0  0  0
   -3.5083   -1.0741   -0.2451 C   0  0  0  0  0  0  0  0  0  0  0  0
   -3.5245    0.4379   -0.3843 C   0  0  0  0  0  0  0  0  0  0  0  0
   -2.4488    1.0131    0.4911 C   0  0  2  0  0  0  0  0  0  0  0  0
   -2.4887    2.5204    0.3832 C   0  0  0  0  0  0  0  0  0  0  0  0
   -3.7458    3.1091    0.8366 C   0  0  0  0  0  0  0  0  0  0  0  0
   -4.6530    2.4637    1.3791 O   0  0  0  0  0  0  0  0  0  0  0  0
   -3.9423    4.5201    0.6419 N   0  0  0  0  0  0  0  0  0  0  0  0
   -5.0974    5.1041    1.0498 O   0  0  0  0  0  0  0  0  0  0  0  0
   -1.1113    0.6327   -0.0925 C   0  0  0  0  0  0  0  0  0  0  0  0
   -1.0448    0.0449   -1.1881 O   0  0  0  0  0  0  0  0  0  0  0  0
    0.0982    0.9248    0.5723 N   0  0  0  0  0  0  0  0  0  0  0  0
    1.4257    0.5553    0.0081 C   0  0  2  0  0  0  0  0  0  0  0  0
    2.1092   -0.3762    0.8929 C   0  0  0  0  0  0  0  0  0  0  0  0
    1.4882   -0.5219    2.0305 O   0  0  0  0  0  0  0  0  0  0  0  0
    3.2659   -1.1296    0.7728 N   0  0  0  0  0  0  0  0  0  0  0  0
    3.7438   -1.9966    1.8869 C   0  0  0  0  0  0  0  0  0  0  0  0
    5.2672   -1.8885    1.7290 C   0  0  0  0  0  0  0  0  0  0  0  0
    5.3597   -2.1734    0.2460 C   0  0  0  0  0  0  0  0  0  0  0  0
    4.2164   -1.3179   -0.2921 C   0  0  1  0  0  0  0  0  0  0  0  0
    3.6189   -1.9701   -1.5253 C   0  0  0  0  0  0  0  0  0  0  0  0
    4.6837   -2.0730   -2.4482 O   0  0  0  0  0  0  0  0  0  0  0  0
    2.0686    1.8682   -0.2734 C   0  0  0  0  0  0  0  0  0  0  0  0
    2.2733    2.7471    0.9273 C   0  0  0  0  0  0  0  0  0  0  0  0
    3.1929    1.8774   -1.2615 C   0  0  0  0  0  0  0  0  0  0  0  0
   -5.4522   -4.4786    0.3797 H   0  0  0  0  0  0  0  0  0  0  0  0
   -3.9746   -3.5912    0.9225 H   0  0  0  0  0  0  0  0  0  0  0  0
   -5.5928   -2.7137    0.8086 H   0  0  0  0  0  0  0  0  0  0  0  0
   -3.7350   -3.5746   -1.4398 H   0  0  0  0  0  0  0  0  0  0  0  0
   -5.4926   -3.4714   -1.6935 H   0  0  0  0  0  0  0  0  0  0  0  0
   -4.4944   -1.2701   -2.1806 H   0  0  0  0  0  0  0  0  0  0  0  0
   -5.5720   -1.2011   -0.7670 H   0  0  0  0  0  0  0  0  0  0  0  0
   -2.5220   -1.4720   -0.4864 H   0  0  0  0  0  0  0  0  0  0  0  0
   -3.7503   -1.3100    0.8269 H   0  0  0  0  0  0  0  0  0  0  0  0
   -3.2721    0.7099   -1.4596 H   0  0  0  0  0  0  0  0  0  0  0  0
   -4.5053    0.8393   -0.1177 H   0  0  0  0  0  0  0  0  0  0  0  0
   -2.4827    0.6556    1.5232 H   0  0  0  0  0  0  0  0  0  0  0  0
   -1.6769    2.9541    1.0381 H   0  0  0  0  0  0  0  0  0  0  0  0
   -2.2565    2.7893   -0.6751 H   0  0  0  0  0  0  0  0  0  0  0  0
   -3.1910    5.0835    0.1868 H   0  0  0  0  0  0  0  0  0  0  0  0
   -4.9542    5.5289    1.9209 H   0  0  0  0  0  0  0  0  0  0  0  0
    0.0958    1.4083    1.4789 H   0  0  0  0  0  0  0  0  0  0  0  0
    1.2034    0.0593   -0.9428 H   0  0  0  0  0  0  0  0  0  0  0  0
    3.3988   -1.6232    2.8536 H   0  0  0  0  0  0  0  0  0  0  0  0
    3.4790   -3.0520    1.6736 H   0  0  0  0  0  0  0  0  0  0  0  0
    5.7683   -2.6389    2.3436 H   0  0  0  0  0  0  0  0  0  0  0  0
    5.5942   -0.8494    1.9508 H   0  0  0  0  0  0  0  0  0  0  0  0
    5.1366   -3.2270    0.0631 H   0  0  0  0  0  0  0  0  0  0  0  0
    6.3420   -1.8373   -0.1465 H   0  0  0  0  0  0  0  0  0  0  0  0
    4.6850   -0.3502   -0.5431 H   0  0  0  0  0  0  0  0  0  0  0  0
    2.8599   -1.2962   -1.9488 H   0  0  0  0  0  0  0  0  0  0  0  0
    3.1848   -2.9545   -1.3011 H   0  0  0  0  0  0  0  0  0  0  0  0
    5.3908   -1.4055   -2.2531 H   0  0  0  0  0  0  0  0  0  0  0  0
    1.2345    2.4380   -0.8340 H   0  0  0  0  0  0  0  0  0  0  0  0
    2.8798    3.6166    0.5957 H   0  0  0  0  0  0  0  0  0  0  0  0
    1.2995    3.0483    1.3344 H   0  0  0  0  0  0  0  0  0  0  0  0
    2.8349    2.2635    1.7424 H   0  0  0  0  0  0  0  0  0  0  0  0
    3.1731    1.0571   -1.9741 H   0  0  0  0  0  0  0  0  0  0  0  0
    3.1808    2.8125   -1.9011 H   0  0  0  0  0  0  0  0  0  0  0  0
    4.1372    1.9729   -0.6832 H   0  0  0  0  0  0  0  0  0  0  0  0
  1  2  1  0
  2  3  1  0
  3  4  1  0
  4  5  1  0
  5  6  1  0
  6  7  1  0
  7  8  1  0
  8  9  2  0
  8 10  1  0
 10 11  1  0
  6 12  1  0
 12 13  2  0
 12 14  1  0
 14 15  1  0
 15 16  1  0
 16 17  2  0
 16 18  1  0
 18 19  1  0
 19 20  1  0
 20 21  1  0
 21 22  1  0
 22 23  1  0
 23 24  1  0
 15 25  1  0
 25 26  1  0
 25 27  1  0
 22 18  1  0
  1 28  1  0
  1 29  1  0
  1 30  1  0
  2 31  1  0
  2 32  1  0
  3 33  1  0
  3 34  1  0
  4 35  1  0
  4 36  1  0
  5 37  1  0
  5 38  1  0
  6 39  1  1
  7 40  1  0
  7 41  1  0
 10 42  1  0
 11 43  1  0
 14 44  1  0
 15 45  1  6
 19 46  1  0
 19 47  1  0
 20 48  1  0
 20 49  1  0
 21 50  1  0
 21 51  1  0
 22 52  1  6
 23 53  1  0
 23 54  1  0
 24 55  1  0
 25 56  1  0
 26 57  1  0
 26 58  1  0
 26 59  1  0
 27 60  1  0
 27 61  1  0
 27 62  1  0
M  END
$$$$
