@<TRIPOS>MOLECULE
*****
 62 62 0 0 0
SMALL
GASTEIGER

@<TRIPOS>ATOM
      1 C          -4.9379   -3.5000    0.3694 C.3     0  UNK0       -0.0653
      2 C          -4.6563   -3.1049   -1.0662 C.3     0  UNK0       -0.0559
      3 C          -4.6066   -1.6131   -1.1463 C.3     0  UNK0       -0.0533
      4 C          -3.5083   -1.0741   -0.2451 C.3     0  UNK0       -0.0524
      5 C          -3.5245    0.4379   -0.3843 C.3     0  UNK0       -0.0415
      6 C          -2.4488    1.0131    0.4911 C.3     0  UNK0        0.0438
      7 C          -2.4887    2.5204    0.3832 C.3     0  UNK0        0.0370
      8 C          -3.7458    3.1091    0.8366 C.2     0  UNK0        0.2362
      9 O          -4.6530    2.4637    1.3791 O.2     0  UNK0       -0.2737
     10 N          -3.9423    4.5201    0.6419 N.am    0  UNK0       -0.1975
     11 O          -5.0974    5.1041    1.0498 O.3     0  UNK0       -0.2952
     12 C          -1.1113    0.6327   -0.0925 C.2     0  UNK0        0.2172
     13 O          -1.0448    0.0449   -1.1881 O.2     0  UNK0       -0.2755
     14 N           0.0982    0.9248    0.5723 N.am    1  VAL1       -0.3035
     15 CA          1.4257    0.5553    0.0081 C.3     1  VAL1        0.1019
     16 C           2.1092   -0.3762    0.8929 C.2     1  VAL1        0.2365
     17 O           1.4882   -0.5219    2.0305 O.2     1  VAL1       -0.2735
     18 N           3.2659   -1.1296    0.7728 N.am    2  PRO2       -0.2947
     19 CD          3.7438   -1.9966    1.8869 C.3     2  PRO2        0.0152
     20 CG          5.2672   -1.8885    1.7290 C.3     2  PRO2       -0.0354
     21 CB          5.3597   -2.1734    0.2460 C.3     2  PRO2       -0.0307
     22 CA          4.2164   -1.3179   -0.2921 C.3     2  PRO2        0.0492
     23 C           3.6189   -1.9701   -1.5253 C.3     2  PRO2        0.0628
     24 O           4.6837   -2.0730   -2.4482 O.3     2  PRO2       -0.3932
     25 CB          2.0686    1.8682   -0.2734 C.3     1  VAL1       -0.0197
     26 CG1         2.2733    2.7471    0.9273 C.3     1  VAL1       -0.0605
     27 CG2         3.1929    1.8774   -1.2615 C.3     1  VAL1       -0.0605
     28 H          -5.4522   -4.4786    0.3797 H       0  UNK0        0.0230
     29 H          -3.9746   -3.5912    0.9225 H       0  UNK0        0.0230
     30 H          -5.5928   -2.7137    0.8086 H       0  UNK0        0.0230
     31 H          -3.7350   -3.5746   -1.4398 H       0  UNK0        0.0263
     32 H          -5.4926   -3.4714   -1.6935 H       0  UNK0        0.0263
     33 H          -4.4944   -1.2701   -2.1806 H       0  UNK0        0.0265
     34 H          -5.5720   -1.2011   -0.7670 H       0  UNK0        0.0265
     35 H          -2.5220   -1.4720   -0.4864 H       0  UNK0        0.0265
     36 H          -3.7503   -1.3100    0.8269 H       0  UNK0        0.0265
     37 H          -3.2721    0.7099   -1.4596 H       0  UNK0        0.0273
     38 H          -4.5053    0.8393   -0.1177 H       0  UNK0        0.0273
     39 H          -2.4827    0.6556    1.5232 H       0  UNK0        0.0399
     40 H          -1.6769    2.9541    1.0381 H       0  UNK0        0.0366
     41 H          -2.2565    2.7893   -0.6751 H       0  UNK0        0.0366
     42 H          -3.1910    5.0835    0.1868 H       0  UNK0        0.1822
     43 H          -4.9542    5.5289    1.9209 H       0  UNK0        0.2414
     44 H           0.0958    1.4083    1.4789 H       1  VAL1        0.1495
     45 HA          1.2034    0.0593   -0.9428 H       1  VAL1        0.0597
     46 HD1         3.3988   -1.6232    2.8536 H       2  PRO2        0.0465
     47 HD2         3.4790   -3.0520    1.6736 H       2  PRO2        0.0465
     48 HG1         5.7683   -2.6389    2.3436 H       2  PRO2        0.0281
     49 HG2         5.5942   -0.8494    1.9508 H       2  PRO2        0.0281
     50 HB1         5.1366   -3.2270    0.0631 H       2  PRO2        0.0284
     51 HB2         6.3420   -1.8373   -0.1465 H       2  PRO2        0.0284
     52 HA          4.6850   -0.3502   -0.5431 H       2  PRO2        0.0523
     53 H1          2.8599   -1.2962   -1.9488 H       2  PRO2        0.0576
     54 H2          3.1848   -2.9545   -1.3011 H       2  PRO2        0.0576
     55 H           5.3908   -1.4055   -2.2531 H       2  PRO2        0.2095
     56 HB          1.2345    2.4380   -0.8340 H       1  VAL1        0.0318
     57 HG11        2.8798    3.6166    0.5957 H       1  VAL1        0.0233
     58 HG12        1.2995    3.0483    1.3344 H       1  VAL1        0.0233
     59 HG13        2.8349    2.2635    1.7424 H       1  VAL1        0.0233
     60 HG21        3.1731    1.0571   -1.9741 H       1  VAL1        0.0233
     61 HG22        3.1808    2.8125   -1.9011 H       1  VAL1        0.0233
     62 HG23        4.1372    1.9729   -0.6832 H       1  VAL1        0.0233
@<TRIPOS>BOND
     1     1     2    1
     2     2     3    1
     3     3     4    1
     4     4     5    1
     5     5     6    1
     6     6     7    1
     7     7     8    1
     8     8     9    2
     9     8    10   am
    10    10    11    1
    11     6    12    1
    12    12    13    2
    13    12    14   am
    14    14    15    1
    15    15    16    1
    16    16    17    2
    17    16    18   am
    18    18    19    1
    19    19    20    1
    20    20    21    1
    21    21    22    1
    22    22    23    1
    23    23    24    1
    24    15    25    1
    25    25    26    1
    26    25    27    1
    27    22    18    1
    28     1    28    1
    29     1    29    1
    30     1    30    1
    31     2    31    1
    32     2    32    1
    33     3    33    1
    34     3    34    1
    35     4    35    1
    36     4    36    1
    37     5    37    1
    38     5    38    1
    39     6    39    1
    40     7    40    1
    41     7    41    1
    42    10    42    1
    43    11    43    1
    44    14    44    1
    45    15    45    1
    46    19    46    1
    47    19    47    1
    48    20    48    1
    49    20    49    1
    50    21    50    1
    51    21    51    1
    52    22    52    1
    53    23    53    1
    54    23    54    1
    55    24    55    1
    56    25    56    1
    57    26    57    1
    58    26    58    1
    59    26    59    1
    60    27    60    1
    61    27    61    1
    62    27    62    1
