@<TRIPOS>MOLECULE
*****
 68 72 0 0 0
SMALL
GASTEIGER

@<TRIPOS>ATOM
      1 C           1.4154   -4.3961    1.1057 C.3     1  UNL1        0.0003
      2 N           1.6125   -3.3661    2.1245 N.pl3   1  UNL1       -0.3165
      3 C           1.9496   -2.0737    1.6173 C.ar    1  UNL1        0.2172
      4 N           3.2666   -1.7650    1.4709 N.ar    1  UNL1       -0.2144
      5 C           3.6504   -0.5674    0.9892 C.ar    1  UNL1        0.0779
      6 C           5.0748   -0.3010    0.8610 C.ar    1  UNL1        0.0026
      7 C           6.0193   -1.2521    1.2251 C.ar    1  UNL1       -0.0518
      8 C           7.3627   -0.9982    1.1033 C.ar    1  UNL1       -0.0486
      9 C           7.8539    0.2024    0.6168 C.ar    1  UNL1        0.0410
     10 C           9.1291    0.6819    0.4054 C.ar    1  UNL1        0.1456
     11 N          10.3464    0.0229    0.6458 N.pl3   1  UNL1       -0.3413
     12 N           8.9599    1.9430   -0.0956 N.ar    1  UNL1       -0.1581
     13 N           7.6521    2.2045   -0.1789 N.ar    1  UNL1       -0.2752
     14 C           6.9309    1.1571    0.2507 C.ar    1  UNL1        0.0682
     15 C           5.5800    0.8872    0.3792 C.ar    1  UNL1       -0.0270
     16 C           2.6580    0.3324    0.6503 C.ar    1  UNL1        0.0045
     17 C           1.3198    0.0367    0.7927 C.ar    1  UNL1        0.1272
     18 N           0.2529    0.9040    0.4583 N.pl3   1  UNL1       -0.3115
     19 C          -1.1102    0.6602    0.8917 C.3     1  UNL1        0.0249
     20 C          -1.9440    0.4883   -0.3645 C.3     1  UNL1        0.0513
     21 C          -3.3388    0.1502   -0.0527 C.2     1  UNL1        0.2178
     22 O          -3.6902    0.1338    1.1772 O.2     1  UNL1       -0.2755
     23 N          -4.3395   -0.1634   -0.9984 N.am    1  UNL1       -0.3122
     24 C          -5.7020   -0.4868   -0.6280 C.3     1  UNL1        0.0231
     25 C          -6.7448    0.2886   -1.3497 C.3     1  UNL1       -0.0345
     26 C          -7.7244   -0.5945   -2.1175 C.3     1  UNL1       -0.0514
     27 C          -8.3873   -1.5713   -1.1910 C.3     1  UNL1       -0.0529
     28 C          -7.3880   -2.1911   -0.2334 C.3     1  UNL1       -0.0514
     29 C          -5.9848   -1.9687   -0.7916 C.3     1  UNL1       -0.0345
     30 C          -1.8531    1.8112   -1.1216 C.3     1  UNL1       -0.0388
     31 C          -0.4309    1.9870   -1.5678 C.3     1  UNL1       -0.0338
     32 C           0.4758    2.0749   -0.3477 C.3     1  UNL1        0.0221
     33 C           0.2991    3.3553    0.4231 C.3     1  UNL1       -0.0465
     34 N           1.0059   -1.1821    1.2818 N.ar    1  UNL1       -0.1995
     35 H           2.4308   -4.5868    0.6666 H       1  UNL1        0.0426
     36 H           0.8048   -3.9131    0.2962 H       1  UNL1        0.0426
     37 H           0.9192   -5.2923    1.4799 H       1  UNL1        0.0426
     38 H           1.5045   -3.6069    3.1242 H       1  UNL1        0.1486
     39 H           5.6275   -2.1910    1.6049 H       1  UNL1        0.0624
     40 H           8.0739   -1.7549    1.3952 H       1  UNL1        0.0625
     41 H          10.6294   -0.2017    1.6204 H       1  UNL1        0.1438
     42 H          10.9718   -0.2462   -0.1203 H       1  UNL1        0.1438
     43 H           7.2788    3.1097   -0.5336 H       1  UNL1        0.1890
     44 H           4.8949    1.6652    0.0780 H       1  UNL1        0.0645
     45 H           2.9407    1.2789    0.2729 H       1  UNL1        0.0673
     46 H          -1.4277    1.5683    1.4516 H       1  UNL1        0.0472
     47 H          -1.1617   -0.2579    1.4863 H       1  UNL1        0.0472
     48 H          -1.4731   -0.2877   -0.9833 H       1  UNL1        0.0410
     49 H          -4.0706   -0.1600   -2.0199 H       1  UNL1        0.1490
     50 H          -5.7930   -0.3009    0.4730 H       1  UNL1        0.0498
     51 H          -7.3915    0.9132   -0.6662 H       1  UNL1        0.0283
     52 H          -6.3333    1.0430   -2.0704 H       1  UNL1        0.0283
     53 H          -8.5128    0.1220   -2.4924 H       1  UNL1        0.0266
     54 H          -7.2649   -1.0524   -3.0103 H       1  UNL1        0.0266
     55 H          -8.8645   -2.3794   -1.7862 H       1  UNL1        0.0265
     56 H          -9.2119   -1.0449   -0.6666 H       1  UNL1        0.0265
     57 H          -7.5766   -3.2800   -0.0864 H       1  UNL1        0.0266
     58 H          -7.4735   -1.6598    0.7307 H       1  UNL1        0.0266
     59 H          -5.2971   -2.5889   -0.1717 H       1  UNL1        0.0283
     60 H          -5.9159   -2.3157   -1.8213 H       1  UNL1        0.0283
     61 H          -2.0960    2.6404   -0.4154 H       1  UNL1        0.0274
     62 H          -2.5149    1.8310   -2.0122 H       1  UNL1        0.0274
     63 H          -0.2771    2.8565   -2.2247 H       1  UNL1        0.0283
     64 H          -0.1316    1.0352   -2.0826 H       1  UNL1        0.0283
     65 H           1.5112    2.1318   -0.7834 H       1  UNL1        0.0497
     66 H          -0.7175    3.5776    0.7384 H       1  UNL1        0.0248
     67 H           0.7474    4.1699   -0.2048 H       1  UNL1        0.0248
     68 H           0.9928    3.2796    1.3019 H       1  UNL1        0.0248
@<TRIPOS>BOND
     1     1     2    1
     2     2     3    1
     3     3     4   ar
     4     4     5   ar
     5     5     6    1
     6     6     7   ar
     7     7     8   ar
     8     8     9   ar
     9     9    10   ar
    10    10    11    1
    11    10    12   ar
    12    12    13   ar
    13    13    14   ar
    14    14    15   ar
    15     5    16   ar
    16    16    17   ar
    17    17    18    1
    18    18    19    1
    19    19    20    1
    20    20    21    1
    21    21    22    2
    22    21    23   am
    23    23    24    1
    24    24    25    1
    25    25    26    1
    26    26    27    1
    27    27    28    1
    28    28    29    1
    29    20    30    1
    30    30    31    1
    31    31    32    1
    32    32    33    1
    33    17    34   ar
    34    34     3   ar
    35    15     6   ar
    36    32    18    1
    37    14     9   ar
    38    29    24    1
    39     1    35    1
    40     1    36    1
    41     1    37    1
    42     2    38    1
    43     7    39    1
    44     8    40    1
    45    11    41    1
    46    11    42    1
    47    13    43    1
    48    15    44    1
    49    16    45    1
    50    19    46    1
    51    19    47    1
    52    20    48    1
    53    23    49    1
    54    24    50    1
    55    25    51    1
    56    25    52    1
    57    26    53    1
    58    26    54    1
    59    27    55    1
    60    27    56    1
    61    28    57    1
    62    28    58    1
    63    29    59    1
    64    29    60    1
    65    30    61    1
    66    30    62    1
    67    31    63    1
    68    31    64    1
    69    32    65    1
    70    33    66    1
    71    33    67    1
    72    33    68    1
