
     RDKit          3D

 68 72  0  0  0  0  0  0  0  0999 V2000
    1.4154   -4.3961    1.1057 C   0  0  0  0  0  0  0  0  0  0  0  0
    1.6125   -3.3661    2.1245 N   0  0  0  0  0  0  0  0  0  0  0  0
    1.9496   -2.0737    1.6173 C   0  0  0  0  0  0  0  0  0  0  0  0
    3.2666   -1.7650    1.4709 N   0  0  0  0  0  0  0  0  0  0  0  0
    3.6504   -0.5674    0.9892 C   0  0  0  0  0  0  0  0  0  0  0  0
    5.0748   -0.3010    0.8610 C   0  0  0  0  0  0  0  0  0  0  0  0
    6.0193   -1.2521    1.2251 C   0  0  0  0  0  0  0  0  0  0  0  0
    7.3627   -0.9982    1.1033 C   0  0  0  0  0  0  0  0  0  0  0  0
    7.8539    0.2024    0.6168 C   0  0  0  0  0  0  0  0  0  0  0  0
    9.1291    0.6819    0.4054 C   0  0  0  0  0  0  0  0  0  0  0  0
   10.3464    0.0229    0.6458 N   0  0  0  0  0  0  0  0  0  0  0  0
    8.9599    1.9430   -0.0956 N   0  0  0  0  0  0  0  0  0  0  0  0
    7.6521    2.2045   -0.1789 N   0  0  0  0  0  0  0  0  0  0  0  0
    6.9309    1.1571    0.2507 C   0  0  0  0  0  0  0  0  0  0  0  0
    5.5800    0.8872    0.3792 C   0  0  0  0  0  0  0  0  0  0  0  0
    2.6580    0.3324    0.6503 C   0  0  0  0  0  0  0  0  0  0  0  0
    1.3198    0.0367    0.7927 C   0  0  0  0  0  0  0  0  0  0  0  0
    0.2529    0.9040    0.4583 N   0  0  0  0  0  0  0  0  0  0  0  0
   -1.1102    0.6602    0.8917 C   0  0  0  0  0  0  0  0  0  0  0  0
   -1.9440    0.4883   -0.3645 C   0  0  1  0  0  0  0  0  0  0  0  0
   -3.3388    0.1502   -0.0527 C   0  0  0  0  0  0  0  0  0  0  0  0
   -3.6902    0.1338    1.1772 O   0  0  0  0  0  0  0  0  0  0  0  0
   -4.3395   -0.1634   -0.9984 N   0  0  0  0  0  0  0  0  0  0  0  0
   -5.7020   -0.4868   -0.6280 C   0  0  0  0  0  0  0  0  0  0  0  0
   -6.7448    0.2886   -1.3497 C   0  0  0  0  0  0  0  0  0  0  0  0
   -7.7244   -0.5945   -2.1175 C   0  0  0  0  0  0  0  0  0  0  0  0
   -8.3873   -1.5713   -1.1910 C   0  0  0  0  0  0  0  0  0  0  0  0
   -7.3880   -2.1911   -0.2334 C   0  0  0  0  0  0  0  0  0  0  0  0
   -5.9848   -1.9687   -0.7916 C   0  0  0  0  0  0  0  0  0  0  0  0
   -1.8531    1.8112   -1.1216 C   0  0  0  0  0  0  0  0  0  0  0  0
   -0.4309    1.9870   -1.5678 C   0  0  0  0  0  0  0  0  0  0  0  0
    0.4758    2.0749   -0.3477 C   0  0  1  0  0  0  0  0  0  0  0  0
    0.2991    3.3553    0.4231 C   0  0  0  0  0  0  0  0  0  0  0  0
    1.0059   -1.1821    1.2818 N   0  0  0  0  0  0  0  0  0  0  0  0
    2.4308   -4.5868    0.6666 H   0  0  0  0  0  0  0  0  0  0  0  0
    0.8048   -3.9131    0.2962 H   0  0  0  0  0  0  0  0  0  0  0  0
    0.9192   -5.2923    1.4799 H   0  0  0  0  0  0  0  0  0  0  0  0
    1.5045   -3.6069    3.1242 H   0  0  0  0  0  0  0  0  0  0  0  0
    5.6275   -2.1910    1.6049 H   0  0  0  0  0  0  0  0  0  0  0  0
    8.0739   -1.7549    1.3952 H   0  0  0  0  0  0  0  0  0  0  0  0
   10.6294   -0.2017    1.6204 H   0  0  0  0  0  0  0  0  0  0  0  0
   10.9718   -0.2462   -0.1203 H   0  0  0  0  0  0  0  0  0  0  0  0
    7.2788    3.1097   -0.5336 H   0  0  0  0  0  0  0  0  0  0  0  0
    4.8949    1.6652    0.0780 H   0  0  0  0  0  0  0  0  0  0  0  0
    2.9407    1.2789    0.2729 H   0  0  0  0  0  0  0  0  0  0  0  0
   -1.4277    1.5683    1.4516 H   0  0  0  0  0  0  0  0  0  0  0  0
   -1.1617   -0.2579    1.4863 H   0  0  0  0  0  0  0  0  0  0  0  0
   -1.4731   -0.2877   -0.9833 H   0  0  0  0  0  0  0  0  0  0  0  0
   -4.0706   -0.1600   -2.0199 H   0  0  0  0  0  0  0  0  0  0  0  0
   -5.7930   -0.3009    0.4730 H   0  0  0  0  0  0  0  0  0  0  0  0
   -7.3915    0.9132   -0.6662 H   0  0  0  0  0  0  0  0  0  0  0  0
   -6.3333    1.0430   -2.0704 H   0  0  0  0  0  0  0  0  0  0  0  0
   -8.5128    0.1220   -2.4924 H   0  0  0  0  0  0  0  0  0  0  0  0
   -7.2649   -1.0524   -3.0103 H   0  0  0  0  0  0  0  0  0  0  0  0
   -8.8645   -2.3794   -1.7862 H   0  0  0  0  0  0  0  0  0  0  0  0
   -9.2119   -1.0449   -0.6666 H   0  0  0  0  0  0  0  0  0  0  0  0
   -7.5766   -3.2800   -0.0864 H   0  0  0  0  0  0  0  0  0  0  0  0
   -7.4735   -1.6598    0.7307 H   0  0  0  0  0  0  0  0  0  0  0  0
   -5.2971   -2.5889   -0.1717 H   0  0  0  0  0  0  0  0  0  0  0  0
   -5.9159   -2.3157   -1.8213 H   0  0  0  0  0  0  0  0  0  0  0  0
   -2.0960    2.6404   -0.4154 H   0  0  0  0  0  0  0  0  0  0  0  0
   -2.5149    1.8310   -2.0122 H   0  0  0  0  0  0  0  0  0  0  0  0
   -0.2771    2.8565   -2.2247 H   0  0  0  0  0  0  0  0  0  0  0  0
   -0.1316    1.0352   -2.0826 H   0  0  0  0  0  0  0  0  0  0  0  0
    1.5112    2.1318   -0.7834 H   0  0  0  0  0  0  0  0  0  0  0  0
   -0.7175    3.5776    0.7384 H   0  0  0  0  0  0  0  0  0  0  0  0
    0.7474    4.1699   -0.2048 H   0  0  0  0  0  0  0  0  0  0  0  0
    0.9928    3.2796    1.3019 H   0  0  0  0  0  0  0  0  0  0  0  0
  1  2  1  0
  2  3  1  0
  3  4  2  0
  4  5  1  0
  5  6  1  0
  6  7  2  0
  7  8  1  0
  8  9  2  0
  9 10  1  0
 10 11  1  0
 10 12  2  0
 12 13  1  0
 13 14  1  0
 14 15  2  0
  5 16  2  0
 16 17  1  0
 17 18  1  0
 18 19  1  0
 19 20  1  0
 20 21  1  0
 21 22  2  0
 21 23  1  0
 23 24  1  0
 24 25  1  0
 25 26  1  0
 26 27  1  0
 27 28  1  0
 28 29  1  0
 20 30  1  0
 30 31  1  0
 31 32  1  0
 32 33  1  0
 17 34  2  0
 34  3  1  0
 15  6  1  0
 32 18  1  0
 14  9  1  0
 29 24  1  0
  1 35  1  0
  1 36  1  0
  1 37  1  0
  2 38  1  0
  7 39  1  0
  8 40  1  0
 11 41  1  0
 11 42  1  0
 13 43  1  0
 15 44  1  0
 16 45  1  0
 19 46  1  0
 19 47  1  0
 20 48  1  6
 23 49  1  0
 24 50  1  0
 25 51  1  0
 25 52  1  0
 26 53  1  0
 26 54  1  0
 27 55  1  0
 27 56  1  0
 28 57  1  0
 28 58  1  0
 29 59  1  0
 29 60  1  0
 30 61  1  0
 30 62  1  0
 31 63  1  0
 31 64  1  0
 32 65  1  6
 33 66  1  0
 33 67  1  0
 33 68  1  0
M  END
$$$$
