@<TRIPOS>MOLECULE
*****
 37 38 0 0 0
SMALL
GASTEIGER

@<TRIPOS>ATOM
      1 C           3.1209    1.2341    0.7420 C.3     1  UNL1        0.1199
      2 O           2.6822    1.4383    2.0627 O.3     1  UNL1       -0.3745
      3 C           3.6107   -0.1627    0.6201 C.3     1  UNL1       -0.0000
      4 C           4.1119   -0.5079   -0.7626 C.3     1  UNL1        0.0486
      5 C           4.5729   -1.9210   -0.7631 C.2     1  UNL1        0.3048
      6 O           4.5516   -2.7958    0.3307 O.3     1  UNL1       -0.4806
      7 O           5.0515   -2.5137   -1.7800 O.2     1  UNL1       -0.2510
      8 N           2.0749    1.6119   -0.1722 N.pl3   1  UNL1       -0.3192
      9 C           0.7254    1.1820   -0.1962 C.ar    1  UNL1        0.0290
     10 C          -0.1767    1.6136   -1.1751 C.ar    1  UNL1       -0.0390
     11 C          -1.4907    1.2108   -1.1984 C.ar    1  UNL1       -0.0381
     12 C          -1.9822    0.3499   -0.2413 C.ar    1  UNL1        0.0440
     13 C          -1.1340   -0.1055    0.7469 C.ar    1  UNL1       -0.0381
     14 C           0.1620    0.3324    0.7149 C.ar    1  UNL1       -0.0390
     15 N          -3.3446   -0.0558   -0.2818 N.am    1  UNL1       -0.2104
     16 C          -3.9479   -1.1824   -0.9436 C.2     1  UNL1        0.2266
     17 O          -3.2891   -2.1329   -1.4389 O.2     1  UNL1       -0.2748
     18 C          -5.4103   -0.9109   -0.8709 C.3     1  UNL1        0.0332
     19 C          -5.5541   -0.1889    0.4663 C.3     1  UNL1        0.0332
     20 C          -4.3511    0.7071    0.4108 C.2     1  UNL1        0.2266
     21 O          -4.3590    1.8455    0.9002 O.2     1  UNL1       -0.2748
     22 H           4.0009    1.9447    0.5747 H       1  UNL1        0.0804
     23 H           3.2392    0.8516    2.6322 H       1  UNL1        0.2117
     24 H           4.4913   -0.2637    1.2989 H       1  UNL1        0.0311
     25 H           2.8581   -0.8999    0.9242 H       1  UNL1        0.0311
     26 H           3.3860   -0.3412   -1.5639 H       1  UNL1        0.0379
     27 H           4.9825    0.1612   -0.9941 H       1  UNL1        0.0379
     28 H           5.3854   -3.3660    0.5280 H       1  UNL1        0.2951
     29 H           2.3187    2.3052   -0.9448 H       1  UNL1        0.1485
     30 H           0.1924    2.3007   -1.9490 H       1  UNL1        0.0637
     31 H          -2.1047    1.6051   -2.0013 H       1  UNL1        0.0637
     32 H          -1.5390   -0.7747    1.4809 H       1  UNL1        0.0637
     33 H           0.7532   -0.0648    1.5271 H       1  UNL1        0.0637
     34 H          -6.0165   -1.8398   -0.8922 H       1  UNL1        0.0363
     35 H          -5.7081   -0.1889   -1.6479 H       1  UNL1        0.0363
     36 H          -5.3864   -0.8740    1.3050 H       1  UNL1        0.0363
     37 H          -6.4774    0.3964    0.5113 H       1  UNL1        0.0363
@<TRIPOS>BOND
     1     1     2    1
     2     1     3    1
     3     3     4    1
     4     4     5    1
     5     5     6    1
     6     5     7    2
     7     1     8    1
     8     8     9    1
     9     9    10   ar
    10    10    11   ar
    11    11    12   ar
    12    12    13   ar
    13    13    14   ar
    14    12    15    1
    15    15    16   am
    16    16    17    2
    17    16    18    1
    18    18    19    1
    19    19    20    1
    20    20    21    2
    21    14     9   ar
    22    20    15   am
    23     1    22    1
    24     2    23    1
    25     3    24    1
    26     3    25    1
    27     4    26    1
    28     4    27    1
    29     6    28    1
    30     8    29    1
    31    10    30    1
    32    11    31    1
    33    13    32    1
    34    14    33    1
    35    18    34    1
    36    18    35    1
    37    19    36    1
    38    19    37    1
