
     RDKit          3D

 70 75  0  0  0  0  0  0  0  0999 V2000
   10.7522   -2.6584   -0.8544 C   0  0  0  0  0  0  0  0  0  0  0  0
   10.1471   -1.5770   -0.1735 O   0  0  0  0  0  0  0  0  0  0  0  0
    8.7731   -1.4638   -0.2289 C   0  0  0  0  0  0  0  0  0  0  0  0
    7.9966   -2.3632   -0.9189 C   0  0  0  0  0  0  0  0  0  0  0  0
    6.6129   -2.1946   -0.9375 C   0  0  0  0  0  0  0  0  0  0  0  0
    5.8349   -3.0648   -1.6081 N   0  0  0  0  0  0  0  0  0  0  0  0
    4.5143   -2.8865   -1.6143 C   0  0  0  0  0  0  0  0  0  0  0  0
    3.9249   -1.8396   -0.9555 C   0  0  0  0  0  0  0  0  0  0  0  0
    4.6830   -0.9258   -0.2569 C   0  0  0  0  0  0  0  0  0  0  0  0
    4.1515    0.1536    0.4298 O   0  0  0  0  0  0  0  0  0  0  0  0
    2.7901    0.3420    0.4259 C   0  0  0  0  0  0  0  0  0  0  0  0
    2.2123    1.1162   -0.5702 C   0  0  0  0  0  0  0  0  0  0  0  0
    0.8397    1.3108   -0.5807 C   0  0  0  0  0  0  0  0  0  0  0  0
    0.0402    0.7491    0.3803 C   0  0  0  0  0  0  0  0  0  0  0  0
   -1.3968    0.9235    0.4119 N   0  0  0  0  0  0  0  0  0  0  0  0
   -2.2473    0.0308   -0.2554 C   0  0  0  0  0  0  0  0  0  0  0  0
   -1.6676   -0.9265   -0.8960 O   0  0  0  0  0  0  0  0  0  0  0  0
   -3.6969    0.0833   -0.2979 C   0  0  0  0  0  0  0  0  0  0  0  0
   -4.6118    0.7221    0.4858 C   0  0  0  0  0  0  0  0  0  0  0  0
   -4.3507    1.4512    1.7281 C   0  0  0  0  0  0  0  0  0  0  0  0
   -3.6325    0.8686    2.7509 C   0  0  0  0  0  0  0  0  0  0  0  0
   -3.3876    1.5575    3.9216 C   0  0  0  0  0  0  0  0  0  0  0  0
   -3.8399    2.8442    4.1293 C   0  0  0  0  0  0  0  0  0  0  0  0
   -4.5586    3.4290    3.1073 C   0  0  0  0  0  0  0  0  0  0  0  0
   -4.8103    2.7447    1.9260 C   0  0  0  0  0  0  0  0  0  0  0  0
   -5.8710    0.5155   -0.0362 N   0  0  0  0  0  0  0  0  0  0  0  0
   -7.0701    1.0718    0.5718 C   0  0  0  0  0  0  0  0  0  0  0  0
   -5.7713   -0.2329   -1.1171 N   0  0  0  0  0  0  0  0  0  0  0  0
   -6.8875   -0.6369   -1.9024 C   0  0  0  0  0  0  0  0  0  0  0  0
   -7.5539    0.2095   -2.7473 C   0  0  0  0  0  0  0  0  0  0  0  0
   -8.6435   -0.2182   -3.5027 C   0  0  0  0  0  0  0  0  0  0  0  0
   -9.0718   -1.5199   -3.4081 C   0  0  0  0  0  0  0  0  0  0  0  0
   -8.4048   -2.3875   -2.5553 C   0  0  0  0  0  0  0  0  0  0  0  0
   -7.3284   -1.9453   -1.8158 C   0  0  0  0  0  0  0  0  0  0  0  0
   -4.4768   -0.5180   -1.3123 C   0  0  0  0  0  0  0  0  0  0  0  0
   -3.9924   -1.2138   -2.2478 O   0  0  0  0  0  0  0  0  0  0  0  0
    0.6054   -0.0002    1.3433 N   0  0  0  0  0  0  0  0  0  0  0  0
    1.9563   -0.2009    1.3668 C   0  0  0  0  0  0  0  0  0  0  0  0
    6.0543   -1.1217   -0.2579 C   0  0  0  0  0  0  0  0  0  0  0  0
    6.8308   -0.2127    0.4386 C   0  0  0  0  0  0  0  0  0  0  0  0
    8.1981   -0.4006    0.4425 C   0  0  0  0  0  0  0  0  0  0  0  0
    8.9947    0.4945    1.1316 O   0  0  0  0  0  0  0  0  0  0  0  0
    8.4179    1.5811    1.8185 C   0  0  0  0  0  0  0  0  0  0  0  0
   10.3760   -2.7797   -1.8923 H   0  0  0  0  0  0  0  0  0  0  0  0
   11.8689   -2.5528   -0.8427 H   0  0  0  0  0  0  0  0  0  0  0  0
   10.4923   -3.5788   -0.2636 H   0  0  0  0  0  0  0  0  0  0  0  0
    8.4296   -3.1953   -1.4457 H   0  0  0  0  0  0  0  0  0  0  0  0
    3.8983   -3.5827   -2.1503 H   0  0  0  0  0  0  0  0  0  0  0  0
    2.8509   -1.6722   -0.9452 H   0  0  0  0  0  0  0  0  0  0  0  0
    2.8395    1.5549   -1.3216 H   0  0  0  0  0  0  0  0  0  0  0  0
    0.4194    1.9114   -1.3591 H   0  0  0  0  0  0  0  0  0  0  0  0
   -1.8042    1.7361    0.9175 H   0  0  0  0  0  0  0  0  0  0  0  0
   -3.2563   -0.1519    2.6242 H   0  0  0  0  0  0  0  0  0  0  0  0
   -2.8208    1.1088    4.7392 H   0  0  0  0  0  0  0  0  0  0  0  0
   -3.6250    3.3515    5.0667 H   0  0  0  0  0  0  0  0  0  0  0  0
   -4.9340    4.4462    3.2329 H   0  0  0  0  0  0  0  0  0  0  0  0
   -5.3660    3.1813    1.1215 H   0  0  0  0  0  0  0  0  0  0  0  0
   -7.9581    0.4608    0.3808 H   0  0  0  0  0  0  0  0  0  0  0  0
   -6.9112    1.2758    1.6478 H   0  0  0  0  0  0  0  0  0  0  0  0
   -7.2653    2.0774    0.1018 H   0  0  0  0  0  0  0  0  0  0  0  0
   -7.1994    1.2356   -2.8079 H   0  0  0  0  0  0  0  0  0  0  0  0
   -9.1500    0.4627   -4.1579 H   0  0  0  0  0  0  0  0  0  0  0  0
   -9.9086   -1.9268   -3.9613 H   0  0  0  0  0  0  0  0  0  0  0  0
   -8.7429   -3.4179   -2.4795 H   0  0  0  0  0  0  0  0  0  0  0  0
   -6.7876   -2.6167   -1.1356 H   0  0  0  0  0  0  0  0  0  0  0  0
    2.3453   -0.8012    2.1507 H   0  0  0  0  0  0  0  0  0  0  0  0
    6.3547    0.6085    0.9542 H   0  0  0  0  0  0  0  0  0  0  0  0
    9.1788    2.1152    2.4217 H   0  0  0  0  0  0  0  0  0  0  0  0
    8.0034    2.3471    1.1111 H   0  0  0  0  0  0  0  0  0  0  0  0
    7.6131    1.2473    2.5338 H   0  0  0  0  0  0  0  0  0  0  0  0
  1  2  1  0
  2  3  1  0
  3  4  2  0
  4  5  1  0
  5  6  2  0
  6  7  1  0
  7  8  2  0
  8  9  1  0
  9 10  1  0
 10 11  1  0
 11 12  2  0
 12 13  1  0
 13 14  2  0
 14 15  1  0
 15 16  1  0
 16 17  2  0
 16 18  1  0
 18 19  2  0
 19 20  1  0
 20 21  2  0
 21 22  1  0
 22 23  2  0
 23 24  1  0
 24 25  2  0
 19 26  1  0
 26 27  1  0
 26 28  1  0
 28 29  1  0
 29 30  2  0
 30 31  1  0
 31 32  2  0
 32 33  1  0
 33 34  2  0
 28 35  1  0
 35 36  2  0
 14 37  1  0
 37 38  2  0
  9 39  2  0
 39 40  1  0
 40 41  2  0
 41 42  1  0
 42 43  1  0
 41  3  1  0
 39  5  1  0
 38 11  1  0
 35 18  1  0
 25 20  1  0
 34 29  1  0
  1 44  1  0
  1 45  1  0
  1 46  1  0
  4 47  1  0
  7 48  1  0
  8 49  1  0
 12 50  1  0
 13 51  1  0
 15 52  1  0
 21 53  1  0
 22 54  1  0
 23 55  1  0
 24 56  1  0
 25 57  1  0
 27 58  1  0
 27 59  1  0
 27 60  1  0
 30 61  1  0
 31 62  1  0
 32 63  1  0
 33 64  1  0
 34 65  1  0
 38 66  1  0
 40 67  1  0
 43 68  1  0
 43 69  1  0
 43 70  1  0
M  END
$$$$
