@<TRIPOS>MOLECULE
*****
 70 75 0 0 0
SMALL
GASTEIGER

@<TRIPOS>ATOM
      1 C          10.7522   -2.6584   -0.8544 C.3     1  UNL1        0.0790
      2 O          10.1471   -1.5770   -0.1735 O.3     1  UNL1       -0.4914
      3 C           8.7731   -1.4638   -0.2289 C.ar    1  UNL1        0.1635
      4 C           7.9966   -2.3632   -0.9189 C.ar    1  UNL1        0.0098
      5 C           6.6129   -2.1946   -0.9375 C.ar    1  UNL1        0.0782
      6 N           5.8349   -3.0648   -1.6081 N.ar    1  UNL1       -0.2546
      7 C           4.5143   -2.8865   -1.6143 C.ar    1  UNL1        0.0318
      8 C           3.9249   -1.8396   -0.9555 C.ar    1  UNL1       -0.0006
      9 C           4.6830   -0.9258   -0.2569 C.ar    1  UNL1        0.1392
     10 O           4.1515    0.1536    0.4298 O.3     1  UNL1       -0.4538
     11 C           2.7901    0.3420    0.4259 C.ar    1  UNL1        0.1466
     12 C           2.2123    1.1162   -0.5702 C.ar    1  UNL1       -0.0146
     13 C           0.8397    1.3108   -0.5807 C.ar    1  UNL1       -0.0180
     14 C           0.0402    0.7491    0.3803 C.ar    1  UNL1        0.1253
     15 N          -1.3968    0.9235    0.4119 N.am    1  UNL1       -0.2662
     16 C          -2.2473    0.0308   -0.2554 C.2     1  UNL1        0.2567
     17 O          -1.6676   -0.9265   -0.8960 O.2     1  UNL1       -0.2696
     18 C          -3.6969    0.0833   -0.2979 C.ar    1  UNL1        0.1284
     19 C          -4.6118    0.7221    0.4858 C.ar    1  UNL1        0.0831
     20 C          -4.3507    1.4512    1.7281 C.ar    1  UNL1        0.0008
     21 C          -3.6325    0.8686    2.7509 C.ar    1  UNL1       -0.0526
     22 C          -3.3876    1.5575    3.9216 C.ar    1  UNL1       -0.0611
     23 C          -3.8399    2.8442    4.1293 C.ar    1  UNL1       -0.0617
     24 C          -4.5586    3.4290    3.1073 C.ar    1  UNL1       -0.0611
     25 C          -4.8103    2.7447    1.9260 C.ar    1  UNL1       -0.0526
     26 N          -5.8710    0.5155   -0.0362 N.ar    1  UNL1       -0.2785
     27 C          -7.0701    1.0718    0.5718 C.3     1  UNL1        0.0295
     28 N          -5.7713   -0.2329   -1.1171 N.ar    1  UNL1       -0.2163
     29 C          -6.8875   -0.6369   -1.9024 C.ar    1  UNL1        0.0674
     30 C          -7.5539    0.2095   -2.7473 C.ar    1  UNL1       -0.0362
     31 C          -8.6435   -0.2182   -3.5027 C.ar    1  UNL1       -0.0598
     32 C          -9.0718   -1.5199   -3.4081 C.ar    1  UNL1       -0.0616
     33 C          -8.4048   -2.3875   -2.5553 C.ar    1  UNL1       -0.0598
     34 C          -7.3284   -1.9453   -1.8158 C.ar    1  UNL1       -0.0362
     35 C          -4.4768   -0.5180   -1.3123 C.ar    1  UNL1        0.2846
     36 O          -3.9924   -1.2138   -2.2478 O.2     1  UNL1       -0.2650
     37 N           0.6054   -0.0002    1.3433 N.ar    1  UNL1       -0.2365
     38 C           1.9563   -0.2009    1.3668 C.ar    1  UNL1        0.0719
     39 C           6.0543   -1.1217   -0.2579 C.ar    1  UNL1        0.0463
     40 C           6.8308   -0.2127    0.4386 C.ar    1  UNL1       -0.0036
     41 C           8.1981   -0.4006    0.4425 C.ar    1  UNL1        0.1623
     42 O           8.9947    0.4945    1.1316 O.3     1  UNL1       -0.4914
     43 C           8.4179    1.5811    1.8185 C.3     1  UNL1        0.0790
     44 H          10.3760   -2.7797   -1.8923 H       1  UNL1        0.0660
     45 H          11.8689   -2.5528   -0.8427 H       1  UNL1        0.0660
     46 H          10.4923   -3.5788   -0.2636 H       1  UNL1        0.0660
     47 H           8.4296   -3.1953   -1.4457 H       1  UNL1        0.0677
     48 H           3.8983   -3.5827   -2.1503 H       1  UNL1        0.0831
     49 H           2.8509   -1.6722   -0.9452 H       1  UNL1        0.0670
     50 H           2.8395    1.5549   -1.3216 H       1  UNL1        0.0656
     51 H           0.4194    1.9114   -1.3591 H       1  UNL1        0.0653
     52 H          -1.8042    1.7361    0.9175 H       1  UNL1        0.1566
     53 H          -3.2563   -0.1519    2.6242 H       1  UNL1        0.0624
     54 H          -2.8208    1.1088    4.7392 H       1  UNL1        0.0618
     55 H          -3.6250    3.3515    5.0667 H       1  UNL1        0.0618
     56 H          -4.9340    4.4462    3.2329 H       1  UNL1        0.0618
     57 H          -5.3660    3.1813    1.1215 H       1  UNL1        0.0624
     58 H          -7.9581    0.4608    0.3808 H       1  UNL1        0.0472
     59 H          -6.9112    1.2758    1.6478 H       1  UNL1        0.0472
     60 H          -7.2653    2.0774    0.1018 H       1  UNL1        0.0472
     61 H          -7.1994    1.2356   -2.8079 H       1  UNL1        0.0639
     62 H          -9.1500    0.4627   -4.1579 H       1  UNL1        0.0618
     63 H          -9.9086   -1.9268   -3.9613 H       1  UNL1        0.0618
     64 H          -8.7429   -3.4179   -2.4795 H       1  UNL1        0.0618
     65 H          -6.7876   -2.6167   -1.1356 H       1  UNL1        0.0639
     66 H           2.3453   -0.8012    2.1507 H       1  UNL1        0.0868
     67 H           6.3547    0.6085    0.9542 H       1  UNL1        0.0663
     68 H           9.1788    2.1152    2.4217 H       1  UNL1        0.0660
     69 H           8.0034    2.3471    1.1111 H       1  UNL1        0.0660
     70 H           7.6131    1.2473    2.5338 H       1  UNL1        0.0660
@<TRIPOS>BOND
     1     1     2    1
     2     2     3    1
     3     3     4   ar
     4     4     5   ar
     5     5     6   ar
     6     6     7   ar
     7     7     8   ar
     8     8     9   ar
     9     9    10    1
    10    10    11    1
    11    11    12   ar
    12    12    13   ar
    13    13    14   ar
    14    14    15    1
    15    15    16   am
    16    16    17    2
    17    16    18    1
    18    18    19   ar
    19    19    20    1
    20    20    21   ar
    21    21    22   ar
    22    22    23   ar
    23    23    24   ar
    24    24    25   ar
    25    19    26   ar
    26    26    27    1
    27    26    28   ar
    28    28    29    1
    29    29    30   ar
    30    30    31   ar
    31    31    32   ar
    32    32    33   ar
    33    33    34   ar
    34    28    35   ar
    35    35    36    2
    36    14    37   ar
    37    37    38   ar
    38     9    39   ar
    39    39    40   ar
    40    40    41   ar
    41    41    42    1
    42    42    43    1
    43    41     3   ar
    44    39     5   ar
    45    38    11   ar
    46    35    18   ar
    47    25    20   ar
    48    34    29   ar
    49     1    44    1
    50     1    45    1
    51     1    46    1
    52     4    47    1
    53     7    48    1
    54     8    49    1
    55    12    50    1
    56    13    51    1
    57    15    52    1
    58    21    53    1
    59    22    54    1
    60    23    55    1
    61    24    56    1
    62    25    57    1
    63    27    58    1
    64    27    59    1
    65    27    60    1
    66    30    61    1
    67    31    62    1
    68    32    63    1
    69    33    64    1
    70    34    65    1
    71    38    66    1
    72    40    67    1
    73    43    68    1
    74    43    69    1
    75    43    70    1
