@<TRIPOS>MOLECULE
*****
 33 35 0 0 0
SMALL
GASTEIGER

@<TRIPOS>ATOM
      1 O          -2.9873    2.1401   -0.5833 O.2     1  UNL1       -0.2872
      2 C          -2.7204    0.9638   -0.1942 C.2     1  UNL1        0.1875
      3 C          -1.3205    0.5284   -0.0511 C.2     1  UNL1       -0.0137
      4 C          -0.3245    1.3570   -0.3260 C.2     1  UNL1       -0.0509
      5 C           1.0858    1.0242   -0.2168 C.ar    1  UNL1       -0.0243
      6 C           1.9937    2.0356   -0.5520 C.ar    1  UNL1       -0.0540
      7 C           3.3511    1.8158   -0.4802 C.ar    1  UNL1       -0.0535
      8 C           3.7891    0.5686   -0.0678 C.ar    1  UNL1       -0.0178
      9 C           5.1509    0.2905    0.0233 C.ar    1  UNL1       -0.0540
     10 C           5.6401   -0.9251    0.4251 C.ar    1  UNL1       -0.0612
     11 C           4.7520   -1.9290    0.7579 C.ar    1  UNL1       -0.0612
     12 C           3.4005   -1.6729    0.6740 C.ar    1  UNL1       -0.0540
     13 C           2.9039   -0.4314    0.2636 C.ar    1  UNL1       -0.0173
     14 C           1.5364   -0.2084    0.1907 C.ar    1  UNL1       -0.0469
     15 C          -3.8182    0.0605    0.1054 C.ar    1  UNL1        0.0397
     16 C          -5.1293    0.5205   -0.0460 C.ar    1  UNL1       -0.0480
     17 C          -6.2250   -0.2703    0.2165 C.ar    1  UNL1       -0.0429
     18 C          -5.9830   -1.5551    0.6415 C.ar    1  UNL1        0.0276
     19 N          -4.7229   -2.0003    0.7881 N.ar    1  UNL1       -0.2626
     20 C          -3.6303   -1.2360    0.5344 C.ar    1  UNL1        0.0383
     21 H          -1.0691   -0.4635    0.2770 H       1  UNL1        0.0656
     22 H          -0.6363    2.3531   -0.6554 H       1  UNL1        0.0625
     23 H           1.6450    3.0141   -0.8755 H       1  UNL1        0.0624
     24 H           4.0862    2.5742   -0.7316 H       1  UNL1        0.0624
     25 H           5.8154    1.1209   -0.2519 H       1  UNL1        0.0624
     26 H           6.7050   -1.0875    0.4781 H       1  UNL1        0.0618
     27 H           5.1425   -2.8923    1.0763 H       1  UNL1        0.0618
     28 H           2.7020   -2.4429    0.9292 H       1  UNL1        0.0624
     29 H           0.8608   -0.9943    0.4512 H       1  UNL1        0.0629
     30 H          -5.3144    1.5414   -0.3837 H       1  UNL1        0.0626
     31 H          -7.2476    0.0940    0.0966 H       1  UNL1        0.0633
     32 H          -6.7797   -2.2492    0.8718 H       1  UNL1        0.0829
     33 H          -2.6521   -1.6443    0.6689 H       1  UNL1        0.0837
@<TRIPOS>BOND
     1     1     2    2
     2     2     3    1
     3     3     4    2
     4     4     5    1
     5     5     6   ar
     6     6     7   ar
     7     7     8   ar
     8     8     9   ar
     9     9    10   ar
    10    10    11   ar
    11    11    12   ar
    12    12    13   ar
    13    13    14   ar
    14     2    15    1
    15    15    16   ar
    16    16    17   ar
    17    17    18   ar
    18    18    19   ar
    19    19    20   ar
    20    14     5   ar
    21    20    15   ar
    22    13     8   ar
    23     3    21    1
    24     4    22    1
    25     6    23    1
    26     7    24    1
    27     9    25    1
    28    10    26    1
    29    11    27    1
    30    12    28    1
    31    14    29    1
    32    16    30    1
    33    17    31    1
    34    18    32    1
    35    20    33    1
