
     RDKit          3D

 31 32  0  0  0  0  0  0  0  0999 V2000
    5.5957   -0.1407   -0.2253 C   0  0  0  0  0  0  0  0  0  0  0  0
    4.4410    0.4641   -0.7255 O   0  0  0  0  0  0  0  0  0  0  0  0
    3.1400    0.1531   -0.3848 C   0  0  0  0  0  0  0  0  0  0  0  0
    2.2313    0.9577   -1.0780 C   0  0  0  0  0  0  0  0  0  0  0  0
    0.8605    0.7901   -0.8649 C   0  0  0  0  0  0  0  0  0  0  0  0
    0.4228   -0.1784    0.0369 C   0  0  0  0  0  0  0  0  0  0  0  0
    1.3444   -0.9762    0.7233 C   0  0  0  0  0  0  0  0  0  0  0  0
    2.6878   -0.7985    0.5022 C   0  0  0  0  0  0  0  0  0  0  0  0
   -0.9157   -0.3425    0.2454 C   0  0  0  0  0  0  0  0  0  0  0  0
   -1.8580    0.4210   -0.4089 C   0  0  0  0  0  0  0  0  0  0  0  0
   -1.4320    1.3844   -1.3054 C   0  0  0  0  0  0  0  0  0  0  0  0
   -0.0773    1.5672   -1.5317 C   0  0  0  0  0  0  0  0  0  0  0  0
   -3.3116    0.2528   -0.1915 C   0  0  2  0  0  0  0  0  0  0  0  0
   -3.6894    0.5594    1.2582 C   0  0  0  0  0  0  0  0  0  0  0  0
   -3.7931   -1.0998   -0.6066 C   0  0  0  0  0  0  0  0  0  0  0  0
   -3.4201   -2.3337   -0.1498 O   0  0  0  0  0  0  0  0  0  0  0  0
   -4.6560   -1.4658   -1.4725 O   0  0  0  0  0  0  0  0  0  0  0  0
    5.4008   -1.1785    0.1710 H   0  0  0  0  0  0  0  0  0  0  0  0
    6.0821    0.4355    0.5919 H   0  0  0  0  0  0  0  0  0  0  0  0
    6.3825   -0.2948   -1.0178 H   0  0  0  0  0  0  0  0  0  0  0  0
    2.4743    1.7324   -1.7946 H   0  0  0  0  0  0  0  0  0  0  0  0
    1.0312   -1.7409    1.4339 H   0  0  0  0  0  0  0  0  0  0  0  0
    3.4756   -1.3680    0.9864 H   0  0  0  0  0  0  0  0  0  0  0  0
   -1.2509   -1.0998    0.9502 H   0  0  0  0  0  0  0  0  0  0  0  0
   -2.0855    2.0406   -1.8745 H   0  0  0  0  0  0  0  0  0  0  0  0
    0.2722    2.3294   -2.2416 H   0  0  0  0  0  0  0  0  0  0  0  0
   -3.9211    0.9630   -0.8117 H   0  0  0  0  0  0  0  0  0  0  0  0
   -4.4597   -0.1912    1.5314 H   0  0  0  0  0  0  0  0  0  0  0  0
   -2.8209    0.5434    1.9380 H   0  0  0  0  0  0  0  0  0  0  0  0
   -4.1410    1.5843    1.3483 H   0  0  0  0  0  0  0  0  0  0  0  0
   -4.0101   -2.9697    0.4056 H   0  0  0  0  0  0  0  0  0  0  0  0
  1  2  1  0
  2  3  1  0
  3  4  2  0
  4  5  1  0
  5  6  2  0
  6  7  1  0
  7  8  2  0
  6  9  1  0
  9 10  2  0
 10 11  1  0
 11 12  2  0
 10 13  1  0
 13 14  1  0
 13 15  1  0
 15 16  1  0
 15 17  2  0
  8  3  1  0
 12  5  1  0
  1 18  1  0
  1 19  1  0
  1 20  1  0
  4 21  1  0
  7 22  1  0
  8 23  1  0
  9 24  1  0
 11 25  1  0
 12 26  1  0
 13 27  1  6
 14 28  1  0
 14 29  1  0
 14 30  1  0
 16 31  1  0
M  END
$$$$
