@<TRIPOS>MOLECULE
*****
 71 74 0 0 0
SMALL
GASTEIGER

@<TRIPOS>ATOM
      1 C          -0.7414    1.1318   -0.5278 C.3     1  UNL1       -0.0281
      2 C          -0.2122    1.9976   -1.6438 C.3     1  UNL1       -0.0453
      3 C           1.3101    1.9140   -1.4617 C.3     1  UNL1       -0.0047
      4 C           1.5398    0.8758   -0.3781 C.3     1  UNL1        0.1830
      5 O           1.3845    1.5238    0.8694 O.3     1  UNL1       -0.4188
      6 C           2.1407    2.5841    1.2897 C.2     1  UNL1        0.5111
      7 O           3.0512    3.1051    0.6295 O.2     1  UNL1       -0.2028
      8 O           1.9036    3.1445    2.5361 O.3     1  UNL1       -0.4340
      9 C           2.7034    4.2544    2.9629 C.3     1  UNL1        0.0931
     10 C           2.3191    4.7433    4.3358 C.3     1  UNL1       -0.0305
     11 C           2.7854    0.1376   -0.5463 C.2     1  UNL1        0.2143
     12 O           2.9052   -0.4067   -1.6264 O.2     1  UNL1       -0.2895
     13 C           3.9630   -0.1205    0.2842 C.3     1  UNL1        0.1542
     14 O           4.9239   -0.9291   -0.3616 O.3     1  UNL1       -0.4568
     15 C           4.6934   -2.2167   -0.8164 C.2     1  UNL1        0.3072
     16 O           3.5757   -2.7702   -0.6799 O.2     1  UNL1       -0.2509
     17 C           5.8846   -2.8224   -1.4538 C.3     1  UNL1        0.0421
     18 C           5.5258   -4.2170   -1.9110 C.3     1  UNL1       -0.0552
     19 C           0.3072    0.0161   -0.6047 C.3     1  UNL1        0.0205
     20 C           0.3395   -0.6665   -1.9268 C.3     1  UNL1       -0.0551
     21 C           0.0411   -0.9520    0.4783 C.3     1  UNL1       -0.0168
     22 C          -1.3160   -1.5664    0.2854 C.3     1  UNL1        0.0600
     23 O          -1.2700   -2.5234   -0.7247 O.3     1  UNL1       -0.3914
     24 C          -2.4104   -0.5630    0.1428 C.3     1  UNL1        0.0007
     25 C          -2.1096    0.5646   -0.7944 C.3     1  UNL1       -0.0310
     26 C          -3.1134    1.6633   -0.5373 C.3     1  UNL1       -0.0458
     27 C          -4.5481    1.1850   -0.5520 C.3     1  UNL1       -0.0302
     28 C          -4.7499   -0.1459    0.0268 C.2     1  UNL1       -0.0559
     29 C          -5.8161   -0.3499    0.7880 C.2     1  UNL1       -0.0149
     30 C          -6.0281   -1.6675    1.3706 C.2     1  UNL1        0.1787
     31 O          -7.0264   -1.8646    2.0851 O.2     1  UNL1       -0.2879
     32 C          -5.0913   -2.7565    1.1303 C.2     1  UNL1       -0.0180
     33 C          -4.0741   -2.4203    0.3555 C.2     1  UNL1       -0.0701
     34 C          -3.7031   -1.1623   -0.3121 C.3     1  UNL1        0.0131
     35 C          -3.7615   -1.3568   -1.8129 C.3     1  UNL1       -0.0520
     36 H          -0.6240    1.6144    0.4499 H       1  UNL1        0.0310
     37 H          -0.5869    3.0261   -1.6187 H       1  UNL1        0.0270
     38 H          -0.4739    1.4737   -2.6007 H       1  UNL1        0.0270
     39 H           1.6268    2.9213   -1.2018 H       1  UNL1        0.0308
     40 H           1.8225    1.6456   -2.4114 H       1  UNL1        0.0308
     41 H           3.7755    4.0788    2.8718 H       1  UNL1        0.0696
     42 H           2.4465    5.0889    2.2463 H       1  UNL1        0.0696
     43 H           2.5242    5.8331    4.3730 H       1  UNL1        0.0262
     44 H           2.9248    4.2721    5.1371 H       1  UNL1        0.0262
     45 H           1.2317    4.6136    4.5156 H       1  UNL1        0.0262
     46 H           4.5055    0.7871    0.6139 H       1  UNL1        0.0780
     47 H           3.5871   -0.6171    1.2252 H       1  UNL1        0.0780
     48 H           6.2267   -2.2551   -2.3419 H       1  UNL1        0.0375
     49 H           6.7541   -2.8530   -0.7644 H       1  UNL1        0.0375
     50 H           6.4078   -4.9037   -1.8666 H       1  UNL1        0.0235
     51 H           4.7703   -4.6818   -1.2430 H       1  UNL1        0.0235
     52 H           5.1973   -4.1621   -2.9644 H       1  UNL1        0.0235
     53 H           0.8627   -0.1233   -2.7244 H       1  UNL1        0.0237
     54 H           0.9122   -1.6180   -1.7819 H       1  UNL1        0.0237
     55 H          -0.6498   -0.9366   -2.3249 H       1  UNL1        0.0237
     56 H           0.2164   -0.5812    1.5070 H       1  UNL1        0.0297
     57 H           0.7692   -1.8049    0.3394 H       1  UNL1        0.0297
     58 H          -1.5405   -2.1437    1.2128 H       1  UNL1        0.0596
     59 H          -0.6900   -3.2630   -0.3946 H       1  UNL1        0.2098
     60 H          -2.6023   -0.1140    1.1410 H       1  UNL1        0.0340
     61 H          -2.1762    0.3318   -1.8603 H       1  UNL1        0.0308
     62 H          -2.9997    2.4946   -1.2629 H       1  UNL1        0.0271
     63 H          -2.8972    2.1448    0.4613 H       1  UNL1        0.0271
     64 H          -4.9027    1.1945   -1.5991 H       1  UNL1        0.0310
     65 H          -5.2151    1.9337   -0.0316 H       1  UNL1        0.0310
     66 H          -6.5051    0.4652    0.9601 H       1  UNL1        0.0655
     67 H          -5.1798   -3.7519    1.5246 H       1  UNL1        0.0653
     68 H          -3.3332   -3.1976    0.1377 H       1  UNL1        0.0582
     69 H          -4.6397   -2.0320   -2.0231 H       1  UNL1        0.0241
     70 H          -2.8823   -1.8119   -2.2577 H       1  UNL1        0.0241
     71 H          -3.9885   -0.4317   -2.3756 H       1  UNL1        0.0241
@<TRIPOS>BOND
     1     1     2    1
     2     2     3    1
     3     3     4    1
     4     4     5    1
     5     5     6    1
     6     6     7    2
     7     6     8    1
     8     8     9    1
     9     9    10    1
    10     4    11    1
    11    11    12    2
    12    11    13    1
    13    13    14    1
    14    14    15    1
    15    15    16    2
    16    15    17    1
    17    17    18    1
    18     4    19    1
    19    19    20    1
    20    19    21    1
    21    21    22    1
    22    22    23    1
    23    22    24    1
    24    24    25    1
    25    25    26    1
    26    26    27    1
    27    27    28    1
    28    28    29    2
    29    29    30    1
    30    30    31    2
    31    30    32    1
    32    32    33    2
    33    33    34    1
    34    34    35    1
    35    19     1    1
    36    34    24    1
    37    25     1    1
    38    34    28    1
    39     1    36    1
    40     2    37    1
    41     2    38    1
    42     3    39    1
    43     3    40    1
    44     9    41    1
    45     9    42    1
    46    10    43    1
    47    10    44    1
    48    10    45    1
    49    13    46    1
    50    13    47    1
    51    17    48    1
    52    17    49    1
    53    18    50    1
    54    18    51    1
    55    18    52    1
    56    20    53    1
    57    20    54    1
    58    20    55    1
    59    21    56    1
    60    21    57    1
    61    22    58    1
    62    23    59    1
    63    24    60    1
    64    25    61    1
    65    26    62    1
    66    26    63    1
    67    27    64    1
    68    27    65    1
    69    29    66    1
    70    32    67    1
    71    33    68    1
    72    35    69    1
    73    35    70    1
    74    35    71    1
