@<TRIPOS>MOLECULE
*****
 61 63 0 0 0
SMALL
GASTEIGER

@<TRIPOS>ATOM
      1 C           4.9761   -0.3315   -1.0434 C.3     1  UNL1       -0.0606
      2 C           4.0825   -1.5337   -0.8314 C.3     1  UNL1       -0.0232
      3 C           4.0314   -1.9990    0.5895 C.3     1  UNL1       -0.0606
      4 C           2.8081   -1.5031   -1.5838 C.3     1  UNL1        0.0500
      5 O           1.9394   -0.4716   -1.3945 O.3     1  UNL1       -0.3779
      6 C           1.5050   -0.3530   -0.1200 C.3     1  UNL1        0.0647
      7 C           0.4993    0.7603    0.0892 C.3     1  UNL1        0.0494
      8 C          -0.8190    0.4423   -0.5096 C.3     1  UNL1        0.0303
      9 N          -1.4411   -0.7545    0.0172 N.pl3   1  UNL1       -0.3240
     10 C          -1.9270   -0.7972    1.3788 C.3     1  UNL1        0.0373
     11 C          -3.0972    0.0975    1.6166 C.ar    1  UNL1       -0.0302
     12 C          -2.9473    1.3900    2.0761 C.ar    1  UNL1       -0.0571
     13 C          -4.0131    2.2270    2.2963 C.ar    1  UNL1       -0.0615
     14 C          -5.2839    1.7469    2.0446 C.ar    1  UNL1       -0.0617
     15 C          -5.4818    0.4608    1.5838 C.ar    1  UNL1       -0.0615
     16 C          -4.3838   -0.3429    1.3773 C.ar    1  UNL1       -0.0571
     17 C          -1.5622   -1.8976   -0.8052 C.ar    1  UNL1        0.0300
     18 C          -2.2137   -3.0109   -0.3669 C.ar    1  UNL1       -0.0407
     19 C          -2.3110   -4.1290   -1.1537 C.ar    1  UNL1       -0.0600
     20 C          -1.7458   -4.1574   -2.4258 C.ar    1  UNL1       -0.0616
     21 C          -1.0873   -3.0382   -2.8748 C.ar    1  UNL1       -0.0600
     22 C          -0.9938   -1.9125   -2.0718 C.ar    1  UNL1       -0.0407
     23 N           0.9974    2.0394   -0.2636 N.3     1  UNL1       -0.2957
     24 C           2.1169    2.5052    0.4863 C.3     1  UNL1       -0.0007
     25 C           1.7485    3.8902    1.0295 C.3     1  UNL1       -0.0390
     26 C           0.7657    4.3486   -0.0282 C.3     1  UNL1       -0.0390
     27 C          -0.0296    3.0407   -0.2108 C.3     1  UNL1       -0.0007
     28 H           5.7486   -0.3610   -0.2471 H       1  UNL1        0.0233
     29 H           4.4443    0.6275   -1.0218 H       1  UNL1        0.0233
     30 H           5.5495   -0.3960   -2.0059 H       1  UNL1        0.0233
     31 H           4.6892   -2.3731   -1.3636 H       1  UNL1        0.0318
     32 H           3.0271   -2.3923    0.8901 H       1  UNL1        0.0233
     33 H           4.7125   -2.8786    0.7456 H       1  UNL1        0.0233
     34 H           4.3101   -1.2261    1.3411 H       1  UNL1        0.0233
     35 H           3.0001   -1.6505   -2.7021 H       1  UNL1        0.0562
     36 H           2.2859   -2.4849   -1.3250 H       1  UNL1        0.0562
     37 H           1.0273   -1.2948    0.2051 H       1  UNL1        0.0576
     38 H           2.4131   -0.1543    0.5214 H       1  UNL1        0.0576
     39 H           0.3367    0.7892    1.2110 H       1  UNL1        0.0501
     40 H          -0.8013    0.4391   -1.5908 H       1  UNL1        0.0480
     41 H          -1.5671    1.2617   -0.2503 H       1  UNL1        0.0480
     42 H          -1.1387   -0.3811    2.0812 H       1  UNL1        0.0513
     43 H          -2.0699   -1.8125    1.7145 H       1  UNL1        0.0513
     44 H          -1.9555    1.7355    2.2666 H       1  UNL1        0.0621
     45 H          -3.8240    3.2356    2.6601 H       1  UNL1        0.0618
     46 H          -6.1170    2.4095    2.2198 H       1  UNL1        0.0618
     47 H          -6.4955    0.0840    1.3847 H       1  UNL1        0.0618
     48 H          -4.5449   -1.3608    1.0125 H       1  UNL1        0.0621
     49 H          -2.6811   -3.0622    0.5851 H       1  UNL1        0.0636
     50 H          -2.8246   -5.0028   -0.8032 H       1  UNL1        0.0618
     51 H          -1.8169   -5.0244   -3.0462 H       1  UNL1        0.0618
     52 H          -0.6373   -3.0475   -3.8764 H       1  UNL1        0.0618
     53 H          -0.4501   -1.0795   -2.5113 H       1  UNL1        0.0636
     54 H           2.9404    2.7037   -0.2615 H       1  UNL1        0.0427
     55 H           2.4430    1.8241    1.2922 H       1  UNL1        0.0427
     56 H           1.1594    3.8075    1.9771 H       1  UNL1        0.0278
     57 H           2.6206    4.5497    1.1170 H       1  UNL1        0.0278
     58 H           0.0896    5.1326    0.3101 H       1  UNL1        0.0278
     59 H           1.2775    4.6120   -0.9837 H       1  UNL1        0.0278
     60 H          -0.6258    3.0813   -1.1476 H       1  UNL1        0.0427
     61 H          -0.6577    2.9724    0.7000 H       1  UNL1        0.0427
@<TRIPOS>BOND
     1     1     2    1
     2     2     3    1
     3     2     4    1
     4     4     5    1
     5     5     6    1
     6     6     7    1
     7     7     8    1
     8     8     9    1
     9     9    10    1
    10    10    11    1
    11    11    12   ar
    12    12    13   ar
    13    13    14   ar
    14    14    15   ar
    15    15    16   ar
    16     9    17    1
    17    17    18   ar
    18    18    19   ar
    19    19    20   ar
    20    20    21   ar
    21    21    22   ar
    22     7    23    1
    23    23    24    1
    24    24    25    1
    25    25    26    1
    26    26    27    1
    27    16    11   ar
    28    22    17   ar
    29    27    23    1
    30     1    28    1
    31     1    29    1
    32     1    30    1
    33     2    31    1
    34     3    32    1
    35     3    33    1
    36     3    34    1
    37     4    35    1
    38     4    36    1
    39     6    37    1
    40     6    38    1
    41     7    39    1
    42     8    40    1
    43     8    41    1
    44    10    42    1
    45    10    43    1
    46    12    44    1
    47    13    45    1
    48    14    46    1
    49    15    47    1
    50    16    48    1
    51    18    49    1
    52    19    50    1
    53    20    51    1
    54    21    52    1
    55    22    53    1
    56    24    54    1
    57    24    55    1
    58    25    56    1
    59    25    57    1
    60    26    58    1
    61    26    59    1
    62    27    60    1
    63    27    61    1
