
     RDKit          3D

 61 63  0  0  0  0  0  0  0  0999 V2000
    4.9761   -0.3315   -1.0434 C   0  0  0  0  0  0  0  0  0  0  0  0
    4.0825   -1.5337   -0.8314 C   0  0  0  0  0  0  0  0  0  0  0  0
    4.0314   -1.9990    0.5895 C   0  0  0  0  0  0  0  0  0  0  0  0
    2.8081   -1.5031   -1.5838 C   0  0  0  0  0  0  0  0  0  0  0  0
    1.9394   -0.4716   -1.3945 O   0  0  0  0  0  0  0  0  0  0  0  0
    1.5050   -0.3530   -0.1200 C   0  0  0  0  0  0  0  0  0  0  0  0
    0.4993    0.7603    0.0892 C   0  0  0  0  0  0  0  0  0  0  0  0
   -0.8190    0.4423   -0.5096 C   0  0  0  0  0  0  0  0  0  0  0  0
   -1.4411   -0.7545    0.0172 N   0  0  0  0  0  0  0  0  0  0  0  0
   -1.9270   -0.7972    1.3788 C   0  0  0  0  0  0  0  0  0  0  0  0
   -3.0972    0.0975    1.6166 C   0  0  0  0  0  0  0  0  0  0  0  0
   -2.9473    1.3900    2.0761 C   0  0  0  0  0  0  0  0  0  0  0  0
   -4.0131    2.2270    2.2963 C   0  0  0  0  0  0  0  0  0  0  0  0
   -5.2839    1.7469    2.0446 C   0  0  0  0  0  0  0  0  0  0  0  0
   -5.4818    0.4608    1.5838 C   0  0  0  0  0  0  0  0  0  0  0  0
   -4.3838   -0.3429    1.3773 C   0  0  0  0  0  0  0  0  0  0  0  0
   -1.5622   -1.8976   -0.8052 C   0  0  0  0  0  0  0  0  0  0  0  0
   -2.2137   -3.0109   -0.3669 C   0  0  0  0  0  0  0  0  0  0  0  0
   -2.3110   -4.1290   -1.1537 C   0  0  0  0  0  0  0  0  0  0  0  0
   -1.7458   -4.1574   -2.4258 C   0  0  0  0  0  0  0  0  0  0  0  0
   -1.0873   -3.0382   -2.8748 C   0  0  0  0  0  0  0  0  0  0  0  0
   -0.9938   -1.9125   -2.0718 C   0  0  0  0  0  0  0  0  0  0  0  0
    0.9974    2.0394   -0.2636 N   0  0  0  0  0  0  0  0  0  0  0  0
    2.1169    2.5052    0.4863 C   0  0  0  0  0  0  0  0  0  0  0  0
    1.7485    3.8902    1.0295 C   0  0  0  0  0  0  0  0  0  0  0  0
    0.7657    4.3486   -0.0282 C   0  0  0  0  0  0  0  0  0  0  0  0
   -0.0296    3.0407   -0.2108 C   0  0  0  0  0  0  0  0  0  0  0  0
    5.7486   -0.3610   -0.2471 H   0  0  0  0  0  0  0  0  0  0  0  0
    4.4443    0.6275   -1.0218 H   0  0  0  0  0  0  0  0  0  0  0  0
    5.5495   -0.3960   -2.0059 H   0  0  0  0  0  0  0  0  0  0  0  0
    4.6892   -2.3731   -1.3636 H   0  0  0  0  0  0  0  0  0  0  0  0
    3.0271   -2.3923    0.8901 H   0  0  0  0  0  0  0  0  0  0  0  0
    4.7125   -2.8786    0.7456 H   0  0  0  0  0  0  0  0  0  0  0  0
    4.3101   -1.2261    1.3411 H   0  0  0  0  0  0  0  0  0  0  0  0
    3.0001   -1.6505   -2.7021 H   0  0  0  0  0  0  0  0  0  0  0  0
    2.2859   -2.4849   -1.3250 H   0  0  0  0  0  0  0  0  0  0  0  0
    1.0273   -1.2948    0.2051 H   0  0  0  0  0  0  0  0  0  0  0  0
    2.4131   -0.1543    0.5214 H   0  0  0  0  0  0  0  0  0  0  0  0
    0.3367    0.7892    1.2110 H   0  0  0  0  0  0  0  0  0  0  0  0
   -0.8013    0.4391   -1.5908 H   0  0  0  0  0  0  0  0  0  0  0  0
   -1.5671    1.2617   -0.2503 H   0  0  0  0  0  0  0  0  0  0  0  0
   -1.1387   -0.3811    2.0812 H   0  0  0  0  0  0  0  0  0  0  0  0
   -2.0699   -1.8125    1.7145 H   0  0  0  0  0  0  0  0  0  0  0  0
   -1.9555    1.7355    2.2666 H   0  0  0  0  0  0  0  0  0  0  0  0
   -3.8240    3.2356    2.6601 H   0  0  0  0  0  0  0  0  0  0  0  0
   -6.1170    2.4095    2.2198 H   0  0  0  0  0  0  0  0  0  0  0  0
   -6.4955    0.0840    1.3847 H   0  0  0  0  0  0  0  0  0  0  0  0
   -4.5449   -1.3608    1.0125 H   0  0  0  0  0  0  0  0  0  0  0  0
   -2.6811   -3.0622    0.5851 H   0  0  0  0  0  0  0  0  0  0  0  0
   -2.8246   -5.0028   -0.8032 H   0  0  0  0  0  0  0  0  0  0  0  0
   -1.8169   -5.0244   -3.0462 H   0  0  0  0  0  0  0  0  0  0  0  0
   -0.6373   -3.0475   -3.8764 H   0  0  0  0  0  0  0  0  0  0  0  0
   -0.4501   -1.0795   -2.5113 H   0  0  0  0  0  0  0  0  0  0  0  0
    2.9404    2.7037   -0.2615 H   0  0  0  0  0  0  0  0  0  0  0  0
    2.4430    1.8241    1.2922 H   0  0  0  0  0  0  0  0  0  0  0  0
    1.1594    3.8075    1.9771 H   0  0  0  0  0  0  0  0  0  0  0  0
    2.6206    4.5497    1.1170 H   0  0  0  0  0  0  0  0  0  0  0  0
    0.0896    5.1326    0.3101 H   0  0  0  0  0  0  0  0  0  0  0  0
    1.2775    4.6120   -0.9837 H   0  0  0  0  0  0  0  0  0  0  0  0
   -0.6258    3.0813   -1.1476 H   0  0  0  0  0  0  0  0  0  0  0  0
   -0.6577    2.9724    0.7000 H   0  0  0  0  0  0  0  0  0  0  0  0
  1  2  1  0
  2  3  1  0
  2  4  1  0
  4  5  1  0
  5  6  1  0
  6  7  1  0
  7  8  1  0
  8  9  1  0
  9 10  1  0
 10 11  1  0
 11 12  2  0
 12 13  1  0
 13 14  2  0
 14 15  1  0
 15 16  2  0
  9 17  1  0
 17 18  2  0
 18 19  1  0
 19 20  2  0
 20 21  1  0
 21 22  2  0
  7 23  1  0
 23 24  1  0
 24 25  1  0
 25 26  1  0
 26 27  1  0
 16 11  1  0
 22 17  1  0
 27 23  1  0
  1 28  1  0
  1 29  1  0
  1 30  1  0
  2 31  1  0
  3 32  1  0
  3 33  1  0
  3 34  1  0
  4 35  1  0
  4 36  1  0
  6 37  1  0
  6 38  1  0
  7 39  1  0
  8 40  1  0
  8 41  1  0
 10 42  1  0
 10 43  1  0
 12 44  1  0
 13 45  1  0
 14 46  1  0
 15 47  1  0
 16 48  1  0
 18 49  1  0
 19 50  1  0
 20 51  1  0
 21 52  1  0
 22 53  1  0
 24 54  1  0
 24 55  1  0
 25 56  1  0
 25 57  1  0
 26 58  1  0
 26 59  1  0
 27 60  1  0
 27 61  1  0
M  END
$$$$
