@<TRIPOS>MOLECULE
*****
 42 45 0 0 0
SMALL
GASTEIGER

@<TRIPOS>ATOM
      1 N          -5.0086   -1.9178    1.4969 N.pl3   1  UNL1       -0.3134
      2 C          -4.4527   -0.8488    0.7480 C.2     1  UNL1        0.2764
      3 N          -3.2502   -0.9371    0.3616 N.2     1  UNL1       -0.2194
      4 C          -2.5131    0.0452   -0.4078 C.3     1  UNL1        0.1604
      5 C          -1.3608    0.4923    0.4079 C.ar    1  UNL1        0.0256
      6 C          -0.0496    0.3573   -0.0060 C.ar    1  UNL1       -0.0319
      7 C           0.9839    0.7979    0.7923 C.ar    1  UNL1        0.0369
      8 N           2.3135    0.6363    0.3224 N.am    1  UNL1       -0.2802
      9 C           3.0888   -0.5216    0.5883 C.2     1  UNL1        0.2666
     10 O           2.5586   -1.4267    1.2679 O.2     1  UNL1       -0.2682
     11 C           4.4449   -0.6279    0.0793 C.ar    1  UNL1        0.1257
     12 C           5.1901   -1.7365    0.3326 C.ar    1  UNL1       -0.0301
     13 C           6.4867   -1.8715   -0.1373 C.ar    1  UNL1       -0.0441
     14 C           7.0156   -0.8467   -0.8770 C.ar    1  UNL1        0.0360
     15 BR          8.8005   -0.9415   -1.5699 Br      1  UNL1       -0.0487
     16 C           6.2415    0.2606   -1.1176 C.ar    1  UNL1        0.0424
     17 N           4.9768    0.3617   -0.6438 N.ar    1  UNL1       -0.2493
     18 C           0.7638    1.3890    2.0297 C.ar    1  UNL1       -0.0023
     19 C          -0.5439    1.5266    2.4480 C.ar    1  UNL1        0.1605
     20 F          -0.7749    2.1041    3.6583 F       1  UNL1       -0.2024
     21 C          -1.5790    1.0825    1.6429 C.ar    1  UNL1        0.1642
     22 F          -2.8245    1.2386    2.0929 F       1  UNL1       -0.2021
     23 C          -2.0488   -0.6766   -1.6786 C.3     1  UNL1        0.2686
     24 F          -1.2461   -1.7606   -1.3928 F       1  UNL1       -0.2062
     25 F          -3.1887   -1.2216   -2.2691 F       1  UNL1       -0.2062
     26 C          -3.3275    1.2161   -0.8558 C.3     1  UNL1        0.0344
     27 C          -4.4314    1.1466   -1.8061 C.3     1  UNL1       -0.0064
     28 C          -4.6698    1.3432   -0.3111 C.3     1  UNL1        0.1091
     29 O          -5.1842    0.2848    0.4280 O.2     1  UNL1       -0.4622
     30 H          -4.4934   -2.3726    2.2698 H       1  UNL1        0.1466
     31 H          -5.9658   -2.2399    1.2452 H       1  UNL1        0.1466
     32 H           0.2028   -0.0874   -0.9558 H       1  UNL1        0.0640
     33 H           2.7348    1.4024   -0.2414 H       1  UNL1        0.1552
     34 H           4.7635   -2.5446    0.9198 H       1  UNL1        0.0641
     35 H           7.0843   -2.7392    0.0550 H       1  UNL1        0.0630
     36 H           6.6546    1.0696   -1.6997 H       1  UNL1        0.0841
     37 H           1.6035    1.7252    2.6335 H       1  UNL1        0.0666
     38 H          -1.6200    0.0232   -2.3972 H       1  UNL1        0.1047
     39 H          -2.7133    2.1659   -0.9080 H       1  UNL1        0.0366
     40 H          -4.9223    0.2558   -2.1891 H       1  UNL1        0.0306
     41 H          -4.6451    2.0487   -2.4518 H       1  UNL1        0.0306
     42 H          -5.0946    2.3450   -0.0088 H       1  UNL1        0.0737
@<TRIPOS>BOND
     1     1     2    1
     2     2     3    2
     3     3     4    1
     4     4     5    1
     5     5     6   ar
     6     6     7   ar
     7     7     8    1
     8     8     9   am
     9     9    10    2
    10     9    11    1
    11    11    12   ar
    12    12    13   ar
    13    13    14   ar
    14    14    15    1
    15    14    16   ar
    16    16    17   ar
    17     7    18   ar
    18    18    19   ar
    19    19    20    1
    20    19    21   ar
    21    21    22    1
    22     4    23    1
    23    23    24    1
    24    23    25    1
    25     4    26    1
    26    26    27    1
    27    27    28    1
    28    28    29    1
    29    29     2    1
    30    21     5   ar
    31    28    26    1
    32    17    11   ar
    33     1    30    1
    34     1    31    1
    35     6    32    1
    36     8    33    1
    37    12    34    1
    38    13    35    1
    39    16    36    1
    40    18    37    1
    41    23    38    1
    42    26    39    1
    43    27    40    1
    44    27    41    1
    45    28    42    1
