
     RDKit          3D

 42 45  0  0  0  0  0  0  0  0999 V2000
   -5.0086   -1.9178    1.4969 N   0  0  0  0  0  0  0  0  0  0  0  0
   -4.4527   -0.8488    0.7480 C   0  0  0  0  0  0  0  0  0  0  0  0
   -3.2502   -0.9371    0.3616 N   0  0  0  0  0  0  0  0  0  0  0  0
   -2.5131    0.0452   -0.4078 C   0  0  1  0  0  0  0  0  0  0  0  0
   -1.3608    0.4923    0.4079 C   0  0  0  0  0  0  0  0  0  0  0  0
   -0.0496    0.3573   -0.0060 C   0  0  0  0  0  0  0  0  0  0  0  0
    0.9839    0.7979    0.7923 C   0  0  0  0  0  0  0  0  0  0  0  0
    2.3135    0.6363    0.3224 N   0  0  0  0  0  0  0  0  0  0  0  0
    3.0888   -0.5216    0.5883 C   0  0  0  0  0  0  0  0  0  0  0  0
    2.5586   -1.4267    1.2679 O   0  0  0  0  0  0  0  0  0  0  0  0
    4.4449   -0.6279    0.0793 C   0  0  0  0  0  0  0  0  0  0  0  0
    5.1901   -1.7365    0.3326 C   0  0  0  0  0  0  0  0  0  0  0  0
    6.4867   -1.8715   -0.1373 C   0  0  0  0  0  0  0  0  0  0  0  0
    7.0156   -0.8467   -0.8770 C   0  0  0  0  0  0  0  0  0  0  0  0
    8.8005   -0.9415   -1.5699 Br  0  0  0  0  0  0  0  0  0  0  0  0
    6.2415    0.2606   -1.1176 C   0  0  0  0  0  0  0  0  0  0  0  0
    4.9768    0.3617   -0.6438 N   0  0  0  0  0  0  0  0  0  0  0  0
    0.7638    1.3890    2.0297 C   0  0  0  0  0  0  0  0  0  0  0  0
   -0.5439    1.5266    2.4480 C   0  0  0  0  0  0  0  0  0  0  0  0
   -0.7749    2.1041    3.6583 F   0  0  0  0  0  0  0  0  0  0  0  0
   -1.5790    1.0825    1.6429 C   0  0  0  0  0  0  0  0  0  0  0  0
   -2.8245    1.2386    2.0929 F   0  0  0  0  0  0  0  0  0  0  0  0
   -2.0488   -0.6766   -1.6786 C   0  0  0  0  0  0  0  0  0  0  0  0
   -1.2461   -1.7606   -1.3928 F   0  0  0  0  0  0  0  0  0  0  0  0
   -3.1887   -1.2216   -2.2691 F   0  0  0  0  0  0  0  0  0  0  0  0
   -3.3275    1.2161   -0.8558 C   0  0  1  0  0  0  0  0  0  0  0  0
   -4.4314    1.1466   -1.8061 C   0  0  0  0  0  0  0  0  0  0  0  0
   -4.6698    1.3432   -0.3111 C   0  0  1  0  0  0  0  0  0  0  0  0
   -5.1842    0.2848    0.4280 O   0  0  0  0  0  0  0  0  0  0  0  0
   -4.4934   -2.3726    2.2698 H   0  0  0  0  0  0  0  0  0  0  0  0
   -5.9658   -2.2399    1.2452 H   0  0  0  0  0  0  0  0  0  0  0  0
    0.2028   -0.0874   -0.9558 H   0  0  0  0  0  0  0  0  0  0  0  0
    2.7348    1.4024   -0.2414 H   0  0  0  0  0  0  0  0  0  0  0  0
    4.7635   -2.5446    0.9198 H   0  0  0  0  0  0  0  0  0  0  0  0
    7.0843   -2.7392    0.0550 H   0  0  0  0  0  0  0  0  0  0  0  0
    6.6546    1.0696   -1.6997 H   0  0  0  0  0  0  0  0  0  0  0  0
    1.6035    1.7252    2.6335 H   0  0  0  0  0  0  0  0  0  0  0  0
   -1.6200    0.0232   -2.3972 H   0  0  0  0  0  0  0  0  0  0  0  0
   -2.7133    2.1659   -0.9080 H   0  0  0  0  0  0  0  0  0  0  0  0
   -4.9223    0.2558   -2.1891 H   0  0  0  0  0  0  0  0  0  0  0  0
   -4.6451    2.0487   -2.4518 H   0  0  0  0  0  0  0  0  0  0  0  0
   -5.0946    2.3450   -0.0088 H   0  0  0  0  0  0  0  0  0  0  0  0
  1  2  1  0
  2  3  2  0
  3  4  1  0
  4  5  1  0
  5  6  2  0
  6  7  1  0
  7  8  1  0
  8  9  1  0
  9 10  2  0
  9 11  1  0
 11 12  2  0
 12 13  1  0
 13 14  2  0
 14 15  1  0
 14 16  1  0
 16 17  2  0
  7 18  2  0
 18 19  1  0
 19 20  1  0
 19 21  2  0
 21 22  1  0
  4 23  1  6
 23 24  1  0
 23 25  1  0
  4 26  1  0
 26 27  1  0
 27 28  1  0
 28 29  1  0
 29  2  1  0
 21  5  1  0
 28 26  1  0
 17 11  1  0
  1 30  1  0
  1 31  1  0
  6 32  1  0
  8 33  1  0
 12 34  1  0
 13 35  1  0
 16 36  1  0
 18 37  1  0
 23 38  1  0
 26 39  1  6
 27 40  1  0
 27 41  1  0
 28 42  1  6
M  END
$$$$
