
     RDKit          3D

 64 68  0  0  0  0  0  0  0  0999 V2000
    6.3359    0.0943    1.3151 C   0  0  0  0  0  0  0  0  0  0  0  0
    5.8437    0.9112    0.1472 C   0  0  0  0  0  0  0  0  0  0  0  0
    6.1315    2.3539    0.4218 C   0  0  0  0  0  0  0  0  0  0  0  0
    6.6925    0.5067   -1.0601 C   0  0  0  0  0  0  0  0  0  0  0  0
    4.4089    0.6565   -0.1055 C   0  0  0  0  0  0  0  0  0  0  0  0
    3.6961    1.2599   -1.1042 C   0  0  0  0  0  0  0  0  0  0  0  0
    2.3593    0.9892   -1.2996 C   0  0  0  0  0  0  0  0  0  0  0  0
    1.7068    0.0920   -0.4799 C   0  0  0  0  0  0  0  0  0  0  0  0
    0.3387   -0.1740   -0.6931 N   0  0  0  0  0  0  0  0  0  0  0  0
   -0.2048   -1.3382   -1.1512 C   0  0  0  0  0  0  0  0  0  0  0  0
    0.5559   -2.5363   -1.5180 C   0  0  0  0  0  0  0  0  0  0  0  0
    0.0579   -3.5945   -1.9453 O   0  0  0  0  0  0  0  0  0  0  0  0
    1.9564   -2.5478   -1.3984 O   0  0  0  0  0  0  0  0  0  0  0  0
   -1.5617   -1.2297   -1.2299 C   0  0  0  0  0  0  0  0  0  0  0  0
   -2.5765   -2.0738   -1.6143 O   0  0  0  0  0  0  0  0  0  0  0  0
   -3.2536   -2.9910   -0.8832 C   0  0  0  0  0  0  0  0  0  0  0  0
   -4.1751   -2.6288    0.0724 C   0  0  0  0  0  0  0  0  0  0  0  0
   -4.8814   -3.5720    0.8308 C   0  0  0  0  0  0  0  0  0  0  0  0
   -4.6358   -4.9073    0.6025 C   0  0  0  0  0  0  0  0  0  0  0  0
   -3.7286   -5.3035   -0.3378 C   0  0  0  0  0  0  0  0  0  0  0  0
   -3.4368   -6.7416   -0.6120 C   0  0  0  0  0  0  0  0  0  0  0  0
   -4.0112   -7.0817   -1.8167 F   0  0  0  0  0  0  0  0  0  0  0  0
   -2.0747   -6.9716   -0.7090 F   0  0  0  0  0  0  0  0  0  0  0  0
   -3.9313   -7.4803    0.4374 F   0  0  0  0  0  0  0  0  0  0  0  0
   -3.0550   -4.3332   -1.0631 C   0  0  0  0  0  0  0  0  0  0  0  0
   -1.8547    0.0747   -0.7966 C   0  0  0  0  0  0  0  0  0  0  0  0
   -3.0057    0.8169   -0.6438 C   0  0  0  0  0  0  0  0  0  0  0  0
   -3.0383    2.1227   -0.1929 C   0  0  0  0  0  0  0  0  0  0  0  0
   -4.2422    2.7996   -0.0671 O   0  0  0  0  0  0  0  0  0  0  0  0
   -4.3621    4.0879    0.3698 C   0  0  0  0  0  0  0  0  0  0  0  0
   -3.9510    5.2018   -0.3318 C   0  0  0  0  0  0  0  0  0  0  0  0
   -4.2411    6.2946    0.4339 C   0  0  0  0  0  0  0  0  0  0  0  0
   -3.9070    7.9660   -0.0259 Cl  0  0  0  0  0  0  0  0  0  0  0  0
   -4.8185    5.8225    1.5764 C   0  0  0  0  0  0  0  0  0  0  0  0
   -4.8933    4.4828    1.5402 N   0  0  0  0  0  0  0  0  0  0  0  0
   -1.8143    2.7109    0.1228 C   0  0  0  0  0  0  0  0  0  0  0  0
   -0.6326    2.0198   -0.0105 C   0  0  0  0  0  0  0  0  0  0  0  0
   -0.6507    0.7034   -0.4699 C   0  0  0  0  0  0  0  0  0  0  0  0
    2.4071   -0.5195    0.5235 C   0  0  0  0  0  0  0  0  0  0  0  0
    3.7400   -0.2325    0.6980 C   0  0  0  0  0  0  0  0  0  0  0  0
    5.8031    0.3805    2.2465 H   0  0  0  0  0  0  0  0  0  0  0  0
    6.2482   -0.9752    1.0887 H   0  0  0  0  0  0  0  0  0  0  0  0
    7.4346    0.2874    1.4445 H   0  0  0  0  0  0  0  0  0  0  0  0
    7.2294    2.5066    0.3391 H   0  0  0  0  0  0  0  0  0  0  0  0
    5.8461    2.6862    1.4343 H   0  0  0  0  0  0  0  0  0  0  0  0
    5.6811    2.9931   -0.3744 H   0  0  0  0  0  0  0  0  0  0  0  0
    6.4495    1.1081   -1.9522 H   0  0  0  0  0  0  0  0  0  0  0  0
    7.7383    0.7301   -0.7817 H   0  0  0  0  0  0  0  0  0  0  0  0
    6.5435   -0.5818   -1.2115 H   0  0  0  0  0  0  0  0  0  0  0  0
    4.2034    1.9688   -1.7551 H   0  0  0  0  0  0  0  0  0  0  0  0
    1.8276    1.5028   -2.1204 H   0  0  0  0  0  0  0  0  0  0  0  0
    2.4979   -3.1597   -1.9933 H   0  0  0  0  0  0  0  0  0  0  0  0
   -4.4138   -1.6053    0.3044 H   0  0  0  0  0  0  0  0  0  0  0  0
   -5.5958   -3.2907    1.5715 H   0  0  0  0  0  0  0  0  0  0  0  0
   -5.1573   -5.6924    1.1647 H   0  0  0  0  0  0  0  0  0  0  0  0
   -2.3433   -4.6662   -1.8244 H   0  0  0  0  0  0  0  0  0  0  0  0
   -3.9412    0.3257   -0.9125 H   0  0  0  0  0  0  0  0  0  0  0  0
   -3.4798    5.2172   -1.3174 H   0  0  0  0  0  0  0  0  0  0  0  0
   -5.1601    6.4591    2.3842 H   0  0  0  0  0  0  0  0  0  0  0  0
   -5.2828    3.8305    2.2628 H   0  0  0  0  0  0  0  0  0  0  0  0
   -1.8657    3.7307    0.4730 H   0  0  0  0  0  0  0  0  0  0  0  0
    0.2903    2.5060    0.2422 H   0  0  0  0  0  0  0  0  0  0  0  0
    1.8858   -1.2386    1.1813 H   0  0  0  0  0  0  0  0  0  0  0  0
    4.2684   -0.7328    1.5018 H   0  0  0  0  0  0  0  0  0  0  0  0
  1  2  1  0
  2  3  1  0
  2  4  1  0
  2  5  1  0
  5  6  2  0
  6  7  1  0
  7  8  2  0
  8  9  1  0
  9 10  1  0
 10 11  1  0
 11 12  2  0
 11 13  1  0
 10 14  2  0
 14 15  1  0
 15 16  1  0
 16 17  2  0
 17 18  1  0
 18 19  2  0
 19 20  1  0
 20 21  1  0
 21 22  1  0
 21 23  1  0
 21 24  1  0
 20 25  2  0
 14 26  1  0
 26 27  2  0
 27 28  1  0
 28 29  1  0
 29 30  1  0
 30 31  2  0
 31 32  1  0
 32 33  1  0
 32 34  2  0
 34 35  1  0
 28 36  2  0
 36 37  1  0
 37 38  2  0
  8 39  1  0
 39 40  2  0
 40  5  1  0
 38  9  1  0
 25 16  1  0
 38 26  1  0
 35 30  1  0
  1 41  1  0
  1 42  1  0
  1 43  1  0
  3 44  1  0
  3 45  1  0
  3 46  1  0
  4 47  1  0
  4 48  1  0
  4 49  1  0
  6 50  1  0
  7 51  1  0
 13 52  1  0
 17 53  1  0
 18 54  1  0
 19 55  1  0
 25 56  1  0
 27 57  1  0
 31 58  1  0
 34 59  1  0
 35 60  1  0
 36 61  1  0
 37 62  1  0
 39 63  1  0
 40 64  1  0
M  END
$$$$
