@<TRIPOS>MOLECULE
*****
 64 68 0 0 0
SMALL
GASTEIGER

@<TRIPOS>ATOM
      1 C           6.3359    0.0943    1.3151 C.3     1  UNL1       -0.0560
      2 C           5.8437    0.9112    0.1472 C.3     1  UNL1       -0.0127
      3 C           6.1315    2.3539    0.4218 C.3     1  UNL1       -0.0560
      4 C           6.6925    0.5067   -1.0601 C.3     1  UNL1       -0.0560
      5 C           4.4089    0.6565   -0.1055 C.ar    1  UNL1       -0.0418
      6 C           3.6961    1.2599   -1.1042 C.ar    1  UNL1       -0.0561
      7 C           2.3593    0.9892   -1.2996 C.ar    1  UNL1       -0.0375
      8 C           1.7068    0.0920   -0.4799 C.ar    1  UNL1        0.0475
      9 N           0.3387   -0.1740   -0.6931 N.ar    1  UNL1       -0.3004
     10 C          -0.2048   -1.3382   -1.1512 C.ar    1  UNL1        0.1750
     11 C           0.5559   -2.5363   -1.5180 C.2     1  UNL1        0.3575
     12 O           0.0579   -3.5945   -1.9453 O.2     1  UNL1       -0.2433
     13 O           1.9564   -2.5478   -1.3984 O.3     1  UNL1       -0.4760
     14 C          -1.5617   -1.2297   -1.2299 C.ar    1  UNL1        0.1684
     15 O          -2.5765   -2.0738   -1.6143 O.3     1  UNL1       -0.4530
     16 C          -3.2536   -2.9910   -0.8832 C.ar    1  UNL1        0.1291
     17 C          -4.1751   -2.6288    0.0724 C.ar    1  UNL1       -0.0193
     18 C          -4.8814   -3.5720    0.8308 C.ar    1  UNL1       -0.0578
     19 C          -4.6358   -4.9073    0.6025 C.ar    1  UNL1       -0.0499
     20 C          -3.7286   -5.3035   -0.3378 C.ar    1  UNL1        0.0583
     21 C          -3.4368   -6.7416   -0.6120 C.3     1  UNL1        0.4175
     22 F          -4.0112   -7.0817   -1.8167 F       1  UNL1       -0.1659
     23 F          -2.0747   -6.9716   -0.7090 F       1  UNL1       -0.1659
     24 F          -3.9313   -7.4803    0.4374 F       1  UNL1       -0.1659
     25 C          -3.0550   -4.3332   -1.0631 C.ar    1  UNL1       -0.0077
     26 C          -1.8547    0.0747   -0.7966 C.ar    1  UNL1        0.0469
     27 C          -3.0057    0.8169   -0.6438 C.ar    1  UNL1       -0.0065
     28 C          -3.0383    2.1227   -0.1929 C.ar    1  UNL1        0.1311
     29 O          -4.2422    2.7996   -0.0671 O.3     1  UNL1       -0.4399
     30 C          -4.3621    4.0879    0.3698 C.ar    1  UNL1        0.2004
     31 C          -3.9510    5.2018   -0.3318 C.ar    1  UNL1        0.0182
     32 C          -4.2411    6.2946    0.4339 C.ar    1  UNL1        0.0619
     33 CL         -3.9070    7.9660   -0.0259 Cl      1  UNL1       -0.0819
     34 C          -4.8185    5.8225    1.5764 C.ar    1  UNL1        0.0233
     35 N          -4.8933    4.4828    1.5402 N.ar    1  UNL1       -0.3310
     36 C          -1.8143    2.7109    0.1228 C.ar    1  UNL1       -0.0173
     37 C          -0.6326    2.0198   -0.0105 C.ar    1  UNL1       -0.0337
     38 C          -0.6507    0.7034   -0.4699 C.ar    1  UNL1        0.0584
     39 C           2.4071   -0.5195    0.5235 C.ar    1  UNL1       -0.0375
     40 C           3.7400   -0.2325    0.6980 C.ar    1  UNL1       -0.0561
     41 H           5.8031    0.3805    2.2465 H       1  UNL1        0.0238
     42 H           6.2482   -0.9752    1.0887 H       1  UNL1        0.0238
     43 H           7.4346    0.2874    1.4445 H       1  UNL1        0.0238
     44 H           7.2294    2.5066    0.3391 H       1  UNL1        0.0238
     45 H           5.8461    2.6862    1.4343 H       1  UNL1        0.0238
     46 H           5.6811    2.9931   -0.3744 H       1  UNL1        0.0238
     47 H           6.4495    1.1081   -1.9522 H       1  UNL1        0.0238
     48 H           7.7383    0.7301   -0.7817 H       1  UNL1        0.0238
     49 H           6.5435   -0.5818   -1.2115 H       1  UNL1        0.0238
     50 H           4.2034    1.9688   -1.7551 H       1  UNL1        0.0621
     51 H           1.8276    1.5028   -2.1204 H       1  UNL1        0.0638
     52 H           2.4979   -3.1597   -1.9933 H       1  UNL1        0.2955
     53 H          -4.4138   -1.6053    0.3044 H       1  UNL1        0.0654
     54 H          -5.5958   -3.2907    1.5715 H       1  UNL1        0.0619
     55 H          -5.1573   -5.6924    1.1647 H       1  UNL1        0.0623
     56 H          -2.3433   -4.6662   -1.8244 H       1  UNL1        0.0660
     57 H          -3.9412    0.3257   -0.9125 H       1  UNL1        0.0662
     58 H          -3.4798    5.2172   -1.3174 H       1  UNL1        0.0685
     59 H          -5.1601    6.4591    2.3842 H       1  UNL1        0.0823
     60 H          -5.2828    3.8305    2.2628 H       1  UNL1        0.1682
     61 H          -1.8657    3.7307    0.4730 H       1  UNL1        0.0655
     62 H           0.2903    2.5060    0.2422 H       1  UNL1        0.0640
     63 H           1.8858   -1.2386    1.1813 H       1  UNL1        0.0638
     64 H           4.2684   -0.7328    1.5018 H       1  UNL1        0.0621
@<TRIPOS>BOND
     1     1     2    1
     2     2     3    1
     3     2     4    1
     4     2     5    1
     5     5     6   ar
     6     6     7   ar
     7     7     8   ar
     8     8     9    1
     9     9    10   ar
    10    10    11    1
    11    11    12    2
    12    11    13    1
    13    10    14   ar
    14    14    15    1
    15    15    16    1
    16    16    17   ar
    17    17    18   ar
    18    18    19   ar
    19    19    20   ar
    20    20    21    1
    21    21    22    1
    22    21    23    1
    23    21    24    1
    24    20    25   ar
    25    14    26   ar
    26    26    27   ar
    27    27    28   ar
    28    28    29    1
    29    29    30    1
    30    30    31   ar
    31    31    32   ar
    32    32    33    1
    33    32    34   ar
    34    34    35   ar
    35    28    36   ar
    36    36    37   ar
    37    37    38   ar
    38     8    39   ar
    39    39    40   ar
    40    40     5   ar
    41    38     9   ar
    42    25    16   ar
    43    38    26   ar
    44    35    30   ar
    45     1    41    1
    46     1    42    1
    47     1    43    1
    48     3    44    1
    49     3    45    1
    50     3    46    1
    51     4    47    1
    52     4    48    1
    53     4    49    1
    54     6    50    1
    55     7    51    1
    56    13    52    1
    57    17    53    1
    58    18    54    1
    59    19    55    1
    60    25    56    1
    61    27    57    1
    62    31    58    1
    63    34    59    1
    64    35    60    1
    65    36    61    1
    66    37    62    1
    67    39    63    1
    68    40    64    1
