@<TRIPOS>MOLECULE
*****
 56 59 0 0 0
SMALL
GASTEIGER

@<TRIPOS>ATOM
      1 C           6.0801    4.5085    3.2995 C.3     1  UNL1        0.0820
      2 O           5.6015    3.5128    2.3828 O.3     1  UNL1       -0.4634
      3 C           4.5466    2.6882    2.6724 C.2     1  UNL1        0.3592
      4 O           3.9735    2.8058    3.7833 O.2     1  UNL1       -0.2432
      5 C           4.0708    1.6751    1.7221 C.ar    1  UNL1        0.1702
      6 C           3.0266    0.7934    1.8984 C.ar    1  UNL1       -0.0015
      7 C           2.9333    0.0271    0.7550 C.ar    1  UNL1        0.0755
      8 C           1.9628   -1.0142    0.5450 C.ar    1  UNL1        0.0040
      9 C           2.3508   -2.2252    0.0137 C.ar    1  UNL1       -0.0523
     10 C           1.4326   -3.2235   -0.1899 C.ar    1  UNL1       -0.0577
     11 C           0.0989   -3.0522    0.1273 C.ar    1  UNL1       -0.0191
     12 C          -0.3110   -1.8589    0.6560 C.ar    1  UNL1        0.1339
     13 O          -1.6094   -1.5931    1.0023 O.3     1  UNL1       -0.4115
     14 C          -2.5480   -1.0452    0.1509 C.2     1  UNL1        0.4058
     15 O          -2.1275   -0.7999   -0.9878 O.2     1  UNL1       -0.2260
     16 N          -3.8800   -0.7630    0.4768 N.am    1  UNL1       -0.2779
     17 C          -4.7765   -0.1772   -0.5301 C.3     1  UNL1        0.0263
     18 C          -5.9229   -1.0935   -0.8236 C.3     1  UNL1       -0.0344
     19 C          -7.0492   -1.0092    0.1438 C.3     1  UNL1       -0.0514
     20 C          -7.5137    0.4496    0.2363 C.3     1  UNL1       -0.0529
     21 C          -6.3378    1.1909    0.8854 C.3     1  UNL1       -0.0514
     22 C          -5.1983    1.1924   -0.0727 C.3     1  UNL1       -0.0344
     23 C           0.6118   -0.8493    0.8631 C.ar    1  UNL1       -0.0100
     24 N           3.8829    0.4265   -0.0838 N.ar    1  UNL1       -0.2313
     25 C           4.1714   -0.0835   -1.4029 C.ar    1  UNL1        0.0660
     26 C           5.3447   -0.7898   -1.6076 C.ar    1  UNL1       -0.0362
     27 C           5.6750   -1.3013   -2.8446 C.ar    1  UNL1       -0.0598
     28 C           4.8099   -1.0988   -3.8946 C.ar    1  UNL1       -0.0616
     29 C           3.6268   -0.3908   -3.7040 C.ar    1  UNL1       -0.0598
     30 C           3.3230    0.1105   -2.4497 C.ar    1  UNL1       -0.0362
     31 N           4.5557    1.4060    0.4963 N.ar    1  UNL1       -0.1592
     32 H           6.8723    5.0685    2.7894 H       1  UNL1        0.0661
     33 H           5.2408    5.1395    3.6442 H       1  UNL1        0.0661
     34 H           6.5576    4.0094    4.1766 H       1  UNL1        0.0661
     35 H           2.4161    0.7437    2.7867 H       1  UNL1        0.0663
     36 H           3.3773   -2.4429   -0.2629 H       1  UNL1        0.0624
     37 H           1.6976   -4.2017   -0.6100 H       1  UNL1        0.0619
     38 H          -0.6495   -3.7998   -0.0137 H       1  UNL1        0.0654
     39 H          -4.2112   -0.9756    1.4337 H       1  UNL1        0.1523
     40 H          -4.2101   -0.0370   -1.4741 H       1  UNL1        0.0499
     41 H          -6.3141   -0.8864   -1.8397 H       1  UNL1        0.0283
     42 H          -5.5382   -2.1350   -0.8188 H       1  UNL1        0.0283
     43 H          -7.9165   -1.5590   -0.2898 H       1  UNL1        0.0266
     44 H          -6.8046   -1.3239    1.1624 H       1  UNL1        0.0266
     45 H          -8.4215    0.5156    0.8570 H       1  UNL1        0.0265
     46 H          -7.7366    0.8670   -0.7607 H       1  UNL1        0.0265
     47 H          -6.1201    0.6419    1.8264 H       1  UNL1        0.0266
     48 H          -6.6601    2.2192    1.0610 H       1  UNL1        0.0266
     49 H          -5.4677    1.8365   -0.9310 H       1  UNL1        0.0283
     50 H          -4.3141    1.6765    0.4060 H       1  UNL1        0.0283
     51 H           0.3013    0.1171    1.2872 H       1  UNL1        0.0661
     52 H           6.0457   -0.9628   -0.7905 H       1  UNL1        0.0639
     53 H           6.6128   -1.8527   -2.9588 H       1  UNL1        0.0618
     54 H           5.0842   -1.5082   -4.8637 H       1  UNL1        0.0618
     55 H           2.9556   -0.2344   -4.5213 H       1  UNL1        0.0618
     56 H           2.3983    0.6662   -2.2920 H       1  UNL1        0.0639
@<TRIPOS>BOND
     1     1     2    1
     2     2     3    1
     3     3     4    2
     4     3     5    1
     5     5     6   ar
     6     6     7   ar
     7     7     8    1
     8     8     9   ar
     9     9    10   ar
    10    10    11   ar
    11    11    12   ar
    12    12    13    1
    13    13    14    1
    14    14    15    2
    15    14    16   am
    16    16    17    1
    17    17    18    1
    18    18    19    1
    19    19    20    1
    20    20    21    1
    21    21    22    1
    22    12    23   ar
    23     7    24   ar
    24    24    25    1
    25    25    26   ar
    26    26    27   ar
    27    27    28   ar
    28    28    29   ar
    29    29    30   ar
    30    24    31   ar
    31    31     5   ar
    32    23     8   ar
    33    30    25   ar
    34    22    17    1
    35     1    32    1
    36     1    33    1
    37     1    34    1
    38     6    35    1
    39     9    36    1
    40    10    37    1
    41    11    38    1
    42    16    39    1
    43    17    40    1
    44    18    41    1
    45    18    42    1
    46    19    43    1
    47    19    44    1
    48    20    45    1
    49    20    46    1
    50    21    47    1
    51    21    48    1
    52    22    49    1
    53    22    50    1
    54    23    51    1
    55    26    52    1
    56    27    53    1
    57    28    54    1
    58    29    55    1
    59    30    56    1
