@<TRIPOS>MOLECULE
*****
 41 44 0 0 0
SMALL
GASTEIGER

@<TRIPOS>ATOM
      1 C          -4.3534    1.9652    0.0272 C.3     1  UNL1        0.0306
      2 N          -3.4916    1.2119   -0.8511 N.ar    1  UNL1       -0.2687
      3 N          -3.4047    1.4093   -2.1464 N.ar    1  UNL1       -0.1796
      4 C          -2.5325    0.5730   -2.7086 C.ar    1  UNL1        0.0497
      5 C          -2.0476   -0.2031   -1.6490 C.ar    1  UNL1       -0.0183
      6 C          -2.6646    0.2192   -0.5021 C.ar    1  UNL1        0.0728
      7 C          -2.4393   -0.3457    0.8212 C.3     1  UNL1        0.1698
      8 C          -1.4214   -1.4337    0.9152 C.3     1  UNL1        0.0476
      9 N          -0.0876   -1.1799    0.5361 N.am    1  UNL1       -0.3059
     10 C           0.8652   -0.3060    1.1001 C.2     1  UNL1        0.2795
     11 O           0.5548    0.3624    2.0938 O.2     1  UNL1       -0.2668
     12 C           2.2121   -0.1750    0.5330 C.ar    1  UNL1        0.1905
     13 C           2.7090   -0.8435   -0.5620 C.ar    1  UNL1       -0.0034
     14 C           4.0105   -0.4182   -0.7409 C.ar    1  UNL1        0.0223
     15 C           5.0157   -0.7023   -1.6359 C.ar    1  UNL1       -0.0326
     16 C           6.2355   -0.0705   -1.5155 C.ar    1  UNL1        0.0418
     17 CL          7.5204   -0.4067   -2.6263 Cl      1  UNL1       -0.0835
     18 C           6.4450    0.8417   -0.5019 C.ar    1  UNL1       -0.0399
     19 C           5.4488    1.1210    0.3824 C.ar    1  UNL1       -0.0174
     20 C           4.2312    0.5028    0.2776 C.ar    1  UNL1        0.1360
     21 O           3.1515    0.6003    0.9823 O.2     1  UNL1       -0.4502
     22 N          -3.7219   -1.0400    1.2169 N.am    1  UNL1       -0.2789
     23 C          -3.6644   -1.1531    2.6092 C.2     1  UNL1        0.3070
     24 O          -4.2629   -1.9951    3.3198 O.2     1  UNL1       -0.2524
     25 N          -2.7795   -0.1089    3.0700 N.am    1  UNL1       -0.2380
     26 C          -2.3270    0.6137    1.9051 C.2     1  UNL1        0.2515
     27 O          -1.9492    1.7814    1.8984 O.2     1  UNL1       -0.2725
     28 H          -3.9105    2.9841    0.2309 H       1  UNL1        0.0473
     29 H          -5.2936    2.1727   -0.5279 H       1  UNL1        0.0473
     30 H          -4.6324    1.4456    0.9428 H       1  UNL1        0.0473
     31 H          -2.2307    0.4752   -3.7488 H       1  UNL1        0.0848
     32 H          -1.3120   -0.9794   -1.8370 H       1  UNL1        0.0652
     33 H          -1.3738   -1.6764    2.0409 H       1  UNL1        0.0492
     34 H          -1.7984   -2.3865    0.4411 H       1  UNL1        0.0492
     35 H           0.2787   -1.7379   -0.3055 H       1  UNL1        0.1492
     36 H           2.1964   -1.5597   -1.1694 H       1  UNL1        0.0663
     37 H           4.8019   -1.4217   -2.4090 H       1  UNL1        0.0639
     38 H           7.4140    1.3359   -0.4158 H       1  UNL1        0.0633
     39 H           5.5897    1.8303    1.1824 H       1  UNL1        0.0655
     40 H          -4.4162   -1.3280    0.5523 H       1  UNL1        0.1517
     41 H          -2.5655    0.0254    4.0718 H       1  UNL1        0.1591
@<TRIPOS>BOND
     1     1     2    1
     2     2     3   ar
     3     3     4   ar
     4     4     5   ar
     5     5     6   ar
     6     6     7    1
     7     7     8    1
     8     8     9    1
     9     9    10   am
    10    10    11    2
    11    10    12    1
    12    12    13   ar
    13    13    14   ar
    14    14    15   ar
    15    15    16   ar
    16    16    17    1
    17    16    18   ar
    18    18    19   ar
    19    19    20   ar
    20    20    21   ar
    21     7    22    1
    22    22    23   am
    23    23    24    2
    24    23    25   am
    25    25    26   am
    26    26    27    2
    27     6     2   ar
    28    26     7    1
    29    21    12   ar
    30    20    14   ar
    31     1    28    1
    32     1    29    1
    33     1    30    1
    34     4    31    1
    35     5    32    1
    36     8    33    1
    37     8    34    1
    38     9    35    1
    39    13    36    1
    40    15    37    1
    41    18    38    1
    42    19    39    1
    43    22    40    1
    44    25    41    1
