
     RDKit          3D

 41 44  0  0  0  0  0  0  0  0999 V2000
   -4.3534    1.9652    0.0272 C   0  0  0  0  0  0  0  0  0  0  0  0
   -3.4916    1.2119   -0.8511 N   0  0  0  0  0  0  0  0  0  0  0  0
   -3.4047    1.4093   -2.1464 N   0  0  0  0  0  0  0  0  0  0  0  0
   -2.5325    0.5730   -2.7086 C   0  0  0  0  0  0  0  0  0  0  0  0
   -2.0476   -0.2031   -1.6490 C   0  0  0  0  0  0  0  0  0  0  0  0
   -2.6646    0.2192   -0.5021 C   0  0  0  0  0  0  0  0  0  0  0  0
   -2.4393   -0.3457    0.8212 C   0  0  2  0  0  0  0  0  0  0  0  0
   -1.4214   -1.4337    0.9152 C   0  0  0  0  0  0  0  0  0  0  0  0
   -0.0876   -1.1799    0.5361 N   0  0  0  0  0  0  0  0  0  0  0  0
    0.8652   -0.3060    1.1001 C   0  0  0  0  0  0  0  0  0  0  0  0
    0.5548    0.3624    2.0938 O   0  0  0  0  0  0  0  0  0  0  0  0
    2.2121   -0.1750    0.5330 C   0  0  0  0  0  0  0  0  0  0  0  0
    2.7090   -0.8435   -0.5620 C   0  0  0  0  0  0  0  0  0  0  0  0
    4.0105   -0.4182   -0.7409 C   0  0  0  0  0  0  0  0  0  0  0  0
    5.0157   -0.7023   -1.6359 C   0  0  0  0  0  0  0  0  0  0  0  0
    6.2355   -0.0705   -1.5155 C   0  0  0  0  0  0  0  0  0  0  0  0
    7.5204   -0.4067   -2.6263 Cl  0  0  0  0  0  0  0  0  0  0  0  0
    6.4450    0.8417   -0.5019 C   0  0  0  0  0  0  0  0  0  0  0  0
    5.4488    1.1210    0.3824 C   0  0  0  0  0  0  0  0  0  0  0  0
    4.2312    0.5028    0.2776 C   0  0  0  0  0  0  0  0  0  0  0  0
    3.1515    0.6003    0.9823 O   0  0  0  0  0  0  0  0  0  0  0  0
   -3.7219   -1.0400    1.2169 N   0  0  0  0  0  0  0  0  0  0  0  0
   -3.6644   -1.1531    2.6092 C   0  0  0  0  0  0  0  0  0  0  0  0
   -4.2629   -1.9951    3.3198 O   0  0  0  0  0  0  0  0  0  0  0  0
   -2.7795   -0.1089    3.0700 N   0  0  0  0  0  0  0  0  0  0  0  0
   -2.3270    0.6137    1.9051 C   0  0  0  0  0  0  0  0  0  0  0  0
   -1.9492    1.7814    1.8984 O   0  0  0  0  0  0  0  0  0  0  0  0
   -3.9105    2.9841    0.2309 H   0  0  0  0  0  0  0  0  0  0  0  0
   -5.2936    2.1727   -0.5279 H   0  0  0  0  0  0  0  0  0  0  0  0
   -4.6324    1.4456    0.9428 H   0  0  0  0  0  0  0  0  0  0  0  0
   -2.2307    0.4752   -3.7488 H   0  0  0  0  0  0  0  0  0  0  0  0
   -1.3120   -0.9794   -1.8370 H   0  0  0  0  0  0  0  0  0  0  0  0
   -1.3738   -1.6764    2.0409 H   0  0  0  0  0  0  0  0  0  0  0  0
   -1.7984   -2.3865    0.4411 H   0  0  0  0  0  0  0  0  0  0  0  0
    0.2787   -1.7379   -0.3055 H   0  0  0  0  0  0  0  0  0  0  0  0
    2.1964   -1.5597   -1.1694 H   0  0  0  0  0  0  0  0  0  0  0  0
    4.8019   -1.4217   -2.4090 H   0  0  0  0  0  0  0  0  0  0  0  0
    7.4140    1.3359   -0.4158 H   0  0  0  0  0  0  0  0  0  0  0  0
    5.5897    1.8303    1.1824 H   0  0  0  0  0  0  0  0  0  0  0  0
   -4.4162   -1.3280    0.5523 H   0  0  0  0  0  0  0  0  0  0  0  0
   -2.5655    0.0254    4.0718 H   0  0  0  0  0  0  0  0  0  0  0  0
  1  2  1  0
  2  3  1  0
  3  4  2  0
  4  5  1  0
  5  6  2  0
  6  7  1  0
  7  8  1  6
  8  9  1  0
  9 10  1  0
 10 11  2  0
 10 12  1  0
 12 13  2  0
 13 14  1  0
 14 15  2  0
 15 16  1  0
 16 17  1  0
 16 18  2  0
 18 19  1  0
 19 20  2  0
 20 21  1  0
  7 22  1  0
 22 23  1  0
 23 24  2  0
 23 25  1  0
 25 26  1  0
 26 27  2  0
  6  2  1  0
 26  7  1  0
 21 12  1  0
 20 14  1  0
  1 28  1  0
  1 29  1  0
  1 30  1  0
  4 31  1  0
  5 32  1  0
  8 33  1  0
  8 34  1  0
  9 35  1  0
 13 36  1  0
 15 37  1  0
 18 38  1  0
 19 39  1  0
 22 40  1  0
 25 41  1  0
M  END
$$$$
