@<TRIPOS>MOLECULE
*****
 36 39 0 0 0
SMALL
GASTEIGER

@<TRIPOS>ATOM
      1 C          -1.9033    3.5412   -0.0958 C.3     1  UNL1        0.0789
      2 O          -1.0785    2.4126   -0.0153 O.3     1  UNL1       -0.4932
      3 C          -1.6348    1.1316   -0.0772 C.ar    1  UNL1        0.1432
      4 C          -2.9752    0.9476   -0.2146 C.ar    1  UNL1        0.0079
      5 C          -3.4589   -0.3521   -0.2712 C.ar    1  UNL1        0.0745
      6 N          -4.7849   -0.5102   -0.3859 N.ar    1  UNL1       -0.2549
      7 C          -5.2928   -1.7455   -0.4281 C.ar    1  UNL1        0.0283
      8 C          -4.5083   -2.8830   -0.3557 C.ar    1  UNL1       -0.0430
      9 C          -3.1491   -2.7599   -0.2367 C.ar    1  UNL1       -0.0511
     10 C          -2.6396   -1.4713   -0.1964 C.ar    1  UNL1        0.0024
     11 C          -1.2733   -1.2617   -0.0572 C.ar    1  UNL1       -0.0277
     12 C          -0.7726    0.0296    0.0039 C.ar    1  UNL1        0.0765
     13 N           0.5819    0.3264    0.1772 N.am    1  UNL1       -0.2785
     14 C           1.5278    0.7034   -0.7939 C.2     1  UNL1        0.2509
     15 O           1.2457    0.8319   -1.9804 O.2     1  UNL1       -0.2698
     16 C           2.9380    0.9556   -0.3125 C.ar    1  UNL1        0.0700
     17 C           3.3490    2.2606   -0.2020 C.ar    1  UNL1       -0.0095
     18 S           5.0370    2.0388    0.4810 S.2     1  UNL1       -0.0928
     19 C           5.0112    0.3032    0.5399 C.ar    1  UNL1        0.0564
     20 C           5.9470   -0.6571    0.9534 C.ar    1  UNL1        0.0451
     21 N           5.6563   -1.9651    0.8886 N.ar    1  UNL1       -0.2426
     22 C           4.4304   -2.2579    0.4117 C.ar    1  UNL1        0.1166
     23 N           3.5287   -1.3715    0.0174 N.ar    1  UNL1       -0.2341
     24 C           3.7961   -0.0143    0.0688 C.ar    1  UNL1        0.0933
     25 H          -2.2521    3.6309   -1.1331 H       1  UNL1        0.0660
     26 H          -2.7266    3.4240    0.6225 H       1  UNL1        0.0660
     27 H          -1.3197    4.4580    0.1822 H       1  UNL1        0.0660
     28 H          -3.6661    1.8000   -0.2721 H       1  UNL1        0.0676
     29 H          -6.3487   -1.8461   -0.5126 H       1  UNL1        0.0830
     30 H          -4.9997   -3.8687   -0.3912 H       1  UNL1        0.0633
     31 H          -2.5071   -3.6355   -0.1770 H       1  UNL1        0.0625
     32 H          -0.6100   -2.0983    0.0000 H       1  UNL1        0.0644
     33 H           0.9594    0.2626    1.1814 H       1  UNL1        0.1552
     34 H           2.8895    3.1748   -0.4159 H       1  UNL1        0.0702
     35 H           6.8652   -0.2275    1.3061 H       1  UNL1        0.0842
     36 H           4.1380   -3.3071    0.3355 H       1  UNL1        0.1047
@<TRIPOS>BOND
     1     1     2    1
     2     2     3    1
     3     3     4   ar
     4     4     5   ar
     5     5     6   ar
     6     6     7   ar
     7     7     8   ar
     8     8     9   ar
     9     9    10   ar
    10    10    11   ar
    11    11    12   ar
    12    12    13    1
    13    13    14   am
    14    14    15    2
    15    14    16    1
    16    16    17   ar
    17    17    18   ar
    18    18    19   ar
    19    19    20   ar
    20    20    21   ar
    21    21    22   ar
    22    22    23   ar
    23    23    24   ar
    24    12     3   ar
    25    24    16   ar
    26    10     5   ar
    27    24    19   ar
    28     1    25    1
    29     1    26    1
    30     1    27    1
    31     4    28    1
    32     7    29    1
    33     8    30    1
    34     9    31    1
    35    11    32    1
    36    13    33    1
    37    17    34    1
    38    20    35    1
    39    22    36    1
