@<TRIPOS>MOLECULE
*****
 16 16 0 0 0
SMALL
GASTEIGER

@<TRIPOS>ATOM
      1 O           3.0434    0.0370    0.7513 O.3     1  UNL1        0.0000
      2 S           2.1673   -0.0635   -0.6801 S.O2    1  UNL1        0.0000
      3 O           2.5125    1.0982   -1.5554 O.2     1  UNL1        0.0000
      4 O           2.4675   -1.3830   -1.3215 O.2     1  UNL1        0.0000
      5 C           0.4583    0.0509   -0.2677 C.ar    1  UNL1        0.0000
      6 C          -0.2165    1.2648   -0.2056 C.ar    1  UNL1        0.0000
      7 C          -1.5602    1.3241    0.1213 C.ar    1  UNL1        0.0000
      8 C          -2.1994    0.1206    0.3829 C.ar    1  UNL1        0.0000
      9 HG         -4.2149    0.1568    0.8778 Hg      1  UNL1        0.0000
     10 C          -1.5325   -1.0993    0.3232 C.ar    1  UNL1        0.0000
     11 C          -0.1909   -1.1430   -0.0045 C.ar    1  UNL1        0.0000
     12 H           2.6585   -0.6512    1.3652 H       1  UNL1        0.0000
     13 H           0.3802    2.1461   -0.4290 H       1  UNL1        0.0000
     14 H          -2.0647    2.2800    0.1636 H       1  UNL1        0.0000
     15 H          -2.0351   -2.0433    0.5288 H       1  UNL1        0.0000
     16 H           0.3265   -2.0952   -0.0503 H       1  UNL1        0.0000
@<TRIPOS>BOND
     1     1     2    1
     2     2     3    2
     3     2     4    2
     4     2     5    1
     5     5     6   ar
     6     6     7   ar
     7     7     8   ar
     8     8     9    1
     9     8    10   ar
    10    10    11   ar
    11    11     5   ar
    12     1    12    1
    13     6    13    1
    14     7    14    1
    15    10    15    1
    16    11    16    1
