@<TRIPOS>MOLECULE
*****
 47 51 0 0 0
SMALL
GASTEIGER

@<TRIPOS>ATOM
      1 N           8.5417    3.2455   -0.1503 N.1     1  UNL1       -0.1893
      2 C           8.1189    2.4742   -0.0224 C.1     1  UNL1        0.1191
      3 C           7.2880    0.8961    0.2466 C.ar    1  UNL1        0.1407
      4 C           6.0406    1.0492    0.4614 C.ar    1  UNL1       -0.0160
      5 C           5.3255   -0.1867    0.2390 C.ar    1  UNL1        0.0131
      6 C           6.1119   -1.2898   -0.1747 C.ar    1  UNL1        0.0670
      7 C           7.4543   -1.3132   -0.3248 C.ar    1  UNL1        0.0530
      8 N           8.1046   -0.0616   -0.0743 N.ar    1  UNL1       -0.2426
      9 N           5.2505   -2.3046   -0.3701 N.ar    1  UNL1       -0.3379
     10 C           3.9934   -1.9484   -0.0942 C.ar    1  UNL1        0.1392
     11 N           2.8492   -2.5856   -0.1142 N.ar    1  UNL1       -0.2369
     12 C           1.7379   -2.0052    0.1750 C.ar    1  UNL1        0.0376
     13 C           1.7118   -0.6334    0.5978 C.ar    1  UNL1        0.0009
     14 C           0.3568   -0.1465    0.8245 C.ar    1  UNL1       -0.0164
     15 C           0.1302    1.0993    0.1585 C.ar    1  UNL1       -0.0537
     16 C          -1.1098    1.4028   -0.2351 C.ar    1  UNL1       -0.0568
     17 C          -2.1965    0.5465    0.0635 C.ar    1  UNL1       -0.0333
     18 C          -3.5064    0.9256   -0.4288 C.3     1  UNL1        0.0242
     19 N          -4.4649   -0.0984   -0.6950 N.3     1  UNL1       -0.2938
     20 C          -5.1707   -0.5024    0.5172 C.3     1  UNL1        0.0228
     21 C          -6.6713   -0.2630    0.4001 C.3     1  UNL1        0.0604
     22 O          -7.0111    1.0118    0.0344 O.3     1  UNL1       -0.3772
     23 C          -6.2180    1.5323   -0.9733 C.3     1  UNL1        0.0604
     24 C          -5.4664    0.4009   -1.6108 C.3     1  UNL1        0.0228
     25 C          -1.9583   -0.5975    0.7563 C.ar    1  UNL1       -0.0568
     26 C          -0.6509   -0.9513    1.1465 C.ar    1  UNL1       -0.0537
     27 C           2.8991   -0.0313    0.6208 C.ar    1  UNL1       -0.0413
     28 C           4.0532   -0.5613    0.2691 C.ar    1  UNL1        0.0271
     29 H           5.4430    1.8340    0.7924 H       1  UNL1        0.0653
     30 H           8.0224   -2.1651   -0.4613 H       1  UNL1        0.0851
     31 H           5.5286   -3.2727   -0.7687 H       1  UNL1        0.1674
     32 H           0.7679   -2.5027    0.0095 H       1  UNL1        0.0836
     33 H           0.9783    1.7798    0.0894 H       1  UNL1        0.0624
     34 H          -1.2704    2.2892   -0.8103 H       1  UNL1        0.0621
     35 H          -3.3567    1.4484   -1.4185 H       1  UNL1        0.0476
     36 H          -3.8489    1.6868    0.3290 H       1  UNL1        0.0476
     37 H          -5.0625   -1.5827    0.7153 H       1  UNL1        0.0449
     38 H          -4.7783    0.1445    1.3451 H       1  UNL1        0.0449
     39 H          -7.0838   -1.0580   -0.2665 H       1  UNL1        0.0572
     40 H          -7.0879   -0.4792    1.3960 H       1  UNL1        0.0572
     41 H          -6.8180    2.0675   -1.7517 H       1  UNL1        0.0572
     42 H          -5.5414    2.3066   -0.5508 H       1  UNL1        0.0572
     43 H          -6.1952   -0.3349   -1.9498 H       1  UNL1        0.0449
     44 H          -4.9532    0.7902   -2.5247 H       1  UNL1        0.0449
     45 H          -2.7341   -1.2498    1.0884 H       1  UNL1        0.0621
     46 H          -0.4817   -1.8593    1.6420 H       1  UNL1        0.0624
     47 H           2.9285    1.0535    0.9943 H       1  UNL1        0.0631
@<TRIPOS>BOND
     1     1     2    3
     2     2     3    1
     3     3     4   ar
     4     4     5   ar
     5     5     6   ar
     6     6     7   ar
     7     7     8   ar
     8     6     9   ar
     9     9    10   ar
    10    10    11   ar
    11    11    12   ar
    12    12    13   ar
    13    13    14    1
    14    14    15   ar
    15    15    16   ar
    16    16    17   ar
    17    17    18    1
    18    18    19    1
    19    19    20    1
    20    20    21    1
    21    21    22    1
    22    22    23    1
    23    23    24    1
    24    17    25   ar
    25    25    26   ar
    26    13    27   ar
    27    27    28   ar
    28     8     3   ar
    29    28    10   ar
    30    28     5   ar
    31    26    14   ar
    32    24    19    1
    33     4    29    1
    34     7    30    1
    35     9    31    1
    36    12    32    1
    37    15    33    1
    38    16    34    1
    39    18    35    1
    40    18    36    1
    41    20    37    1
    42    20    38    1
    43    21    39    1
    44    21    40    1
    45    23    41    1
    46    23    42    1
    47    24    43    1
    48    24    44    1
    49    25    45    1
    50    26    46    1
    51    27    47    1
