
     RDKit          3D

 47 51  0  0  0  0  0  0  0  0999 V2000
    8.5417    3.2455   -0.1503 N   0  0  0  0  0  0  0  0  0  0  0  0
    8.1189    2.4742   -0.0224 C   0  0  0  0  0  0  0  0  0  0  0  0
    7.2880    0.8961    0.2466 C   0  0  0  0  0  0  0  0  0  0  0  0
    6.0406    1.0492    0.4614 C   0  0  0  0  0  0  0  0  0  0  0  0
    5.3255   -0.1867    0.2390 C   0  0  0  0  0  0  0  0  0  0  0  0
    6.1119   -1.2898   -0.1747 C   0  0  0  0  0  0  0  0  0  0  0  0
    7.4543   -1.3132   -0.3248 C   0  0  0  0  0  0  0  0  0  0  0  0
    8.1046   -0.0616   -0.0743 N   0  0  0  0  0  0  0  0  0  0  0  0
    5.2505   -2.3046   -0.3701 N   0  0  0  0  0  0  0  0  0  0  0  0
    3.9934   -1.9484   -0.0942 C   0  0  0  0  0  0  0  0  0  0  0  0
    2.8492   -2.5856   -0.1142 N   0  0  0  0  0  0  0  0  0  0  0  0
    1.7379   -2.0052    0.1750 C   0  0  0  0  0  0  0  0  0  0  0  0
    1.7118   -0.6334    0.5978 C   0  0  0  0  0  0  0  0  0  0  0  0
    0.3568   -0.1465    0.8245 C   0  0  0  0  0  0  0  0  0  0  0  0
    0.1302    1.0993    0.1585 C   0  0  0  0  0  0  0  0  0  0  0  0
   -1.1098    1.4028   -0.2351 C   0  0  0  0  0  0  0  0  0  0  0  0
   -2.1965    0.5465    0.0635 C   0  0  0  0  0  0  0  0  0  0  0  0
   -3.5064    0.9256   -0.4288 C   0  0  0  0  0  0  0  0  0  0  0  0
   -4.4649   -0.0984   -0.6950 N   0  0  0  0  0  0  0  0  0  0  0  0
   -5.1707   -0.5024    0.5172 C   0  0  0  0  0  0  0  0  0  0  0  0
   -6.6713   -0.2630    0.4001 C   0  0  0  0  0  0  0  0  0  0  0  0
   -7.0111    1.0118    0.0344 O   0  0  0  0  0  0  0  0  0  0  0  0
   -6.2180    1.5323   -0.9733 C   0  0  0  0  0  0  0  0  0  0  0  0
   -5.4664    0.4009   -1.6108 C   0  0  0  0  0  0  0  0  0  0  0  0
   -1.9583   -0.5975    0.7563 C   0  0  0  0  0  0  0  0  0  0  0  0
   -0.6509   -0.9513    1.1465 C   0  0  0  0  0  0  0  0  0  0  0  0
    2.8991   -0.0313    0.6208 C   0  0  0  0  0  0  0  0  0  0  0  0
    4.0532   -0.5613    0.2691 C   0  0  0  0  0  0  0  0  0  0  0  0
    5.4430    1.8340    0.7924 H   0  0  0  0  0  0  0  0  0  0  0  0
    8.0224   -2.1651   -0.4613 H   0  0  0  0  0  0  0  0  0  0  0  0
    5.5286   -3.2727   -0.7687 H   0  0  0  0  0  0  0  0  0  0  0  0
    0.7679   -2.5027    0.0095 H   0  0  0  0  0  0  0  0  0  0  0  0
    0.9783    1.7798    0.0894 H   0  0  0  0  0  0  0  0  0  0  0  0
   -1.2704    2.2892   -0.8103 H   0  0  0  0  0  0  0  0  0  0  0  0
   -3.3567    1.4484   -1.4185 H   0  0  0  0  0  0  0  0  0  0  0  0
   -3.8489    1.6868    0.3290 H   0  0  0  0  0  0  0  0  0  0  0  0
   -5.0625   -1.5827    0.7153 H   0  0  0  0  0  0  0  0  0  0  0  0
   -4.7783    0.1445    1.3451 H   0  0  0  0  0  0  0  0  0  0  0  0
   -7.0838   -1.0580   -0.2665 H   0  0  0  0  0  0  0  0  0  0  0  0
   -7.0879   -0.4792    1.3960 H   0  0  0  0  0  0  0  0  0  0  0  0
   -6.8180    2.0675   -1.7517 H   0  0  0  0  0  0  0  0  0  0  0  0
   -5.5414    2.3066   -0.5508 H   0  0  0  0  0  0  0  0  0  0  0  0
   -6.1952   -0.3349   -1.9498 H   0  0  0  0  0  0  0  0  0  0  0  0
   -4.9532    0.7902   -2.5247 H   0  0  0  0  0  0  0  0  0  0  0  0
   -2.7341   -1.2498    1.0884 H   0  0  0  0  0  0  0  0  0  0  0  0
   -0.4817   -1.8593    1.6420 H   0  0  0  0  0  0  0  0  0  0  0  0
    2.9285    1.0535    0.9943 H   0  0  0  0  0  0  0  0  0  0  0  0
  1  2  3  0
  2  3  1  0
  3  4  2  0
  4  5  1  0
  5  6  2  0
  6  7  1  0
  7  8  2  0
  6  9  1  0
  9 10  1  0
 10 11  2  0
 11 12  1  0
 12 13  2  0
 13 14  1  0
 14 15  2  0
 15 16  1  0
 16 17  2  0
 17 18  1  0
 18 19  1  0
 19 20  1  0
 20 21  1  0
 21 22  1  0
 22 23  1  0
 23 24  1  0
 17 25  1  0
 25 26  2  0
 13 27  1  0
 27 28  2  0
  8  3  1  0
 28 10  1  0
 28  5  1  0
 26 14  1  0
 24 19  1  0
  4 29  1  0
  7 30  1  0
  9 31  1  0
 12 32  1  0
 15 33  1  0
 16 34  1  0
 18 35  1  0
 18 36  1  0
 20 37  1  0
 20 38  1  0
 21 39  1  0
 21 40  1  0
 23 41  1  0
 23 42  1  0
 24 43  1  0
 24 44  1  0
 25 45  1  0
 26 46  1  0
 27 47  1  0
M  END
$$$$
