@<TRIPOS>MOLECULE
*****
 15 15 0 0 0
SMALL
GASTEIGER

@<TRIPOS>ATOM
      1 C1          0.1821   -0.0445   -0.2194 C.3     1  <1>         0.1154
      2 C2          0.0507    1.3561    0.3584 C.3     1  <1>         0.0207
      3 S1         -1.7666    1.4919    0.1658 S.3     1  <1>        -0.1433
      4 C3         -2.0940   -0.3137    0.1746 C.3     1  <1>         0.0434
      5 N1         -0.7927   -0.8333    0.4712 N.3     1  <1>        -0.2945
      6 C4          1.5204   -0.5933    0.0084 C.2     1  <1>         0.3228
      7 O1          2.6293    0.0381   -0.5860 O.3     1  <1>        -0.4795
      8 O2          1.8679   -1.6113    0.6987 O.2     1  <1>        -0.2492
      9 H1         -0.0587    0.0252   -1.3014 H       1  <1>         0.0585
     10 H2          0.2886    1.3462    1.4230 H       1  <1>         0.0397
     11 H3          0.5892    2.1023   -0.2293 H       1  <1>         0.0397
     12 H4         -2.7947   -0.4598    1.0331 H       1  <1>         0.0539
     13 H5         -2.5417   -0.6662   -0.7604 H       1  <1>         0.0539
     14 H6         -0.6478   -1.8329    0.2790 H       1  <1>         0.1235
     15 H7          3.5679   -0.0048   -0.1706 H       1  <1>         0.2951
@<TRIPOS>BOND
     1     1     2    1
     2     2     3    1
     3     3     4    1
     4     4     5    1
     5     1     6    1
     6     6     7    1
     7     6     8    2
     8     5     1    1
     9     1     9    1
    10     2    10    1
    11     2    11    1
    12     4    12    1
    13     4    13    1
    14     5    14    1
    15     7    15    1
