@<TRIPOS>MOLECULE
*****
 58 61 0 0 0
SMALL
GASTEIGER

@<TRIPOS>ATOM
      1 C           6.2922   -1.3341    0.5910 C.3     1  UNL1       -0.0442
      2 C           4.7667   -1.1821    0.4886 C.3     1  UNL1        0.0276
      3 C           4.1488   -2.3098    1.2394 C.3     1  UNL1       -0.0442
      4 C           4.3544   -1.2505   -0.9848 C.3     1  UNL1       -0.0442
      5 N           4.4252    0.1115    0.9689 N.am    1  UNL1       -0.2947
      6 C           3.0818    0.6094    1.0130 C.2     1  UNL1        0.3003
      7 O           2.1696   -0.1221    0.6177 O.2     1  UNL1       -0.2528
      8 N           2.7812    1.8956    1.4877 N.am    1  UNL1       -0.2938
      9 C           1.4829    2.4977    1.5661 C.3     1  UNL1        0.0570
     10 C           0.9009    2.5399    0.2016 C.ar    1  UNL1        0.0802
     11 C           1.2912    3.4642   -0.7468 C.ar    1  UNL1        0.0529
     12 N           0.5406    3.2264   -1.8296 N.ar    1  UNL1       -0.2343
     13 C          -0.2804    2.1978   -1.5605 C.ar    1  UNL1        0.1544
     14 C          -1.2632    1.5678   -2.3247 C.ar    1  UNL1       -0.0153
     15 C          -1.9927    0.5342   -1.8045 C.ar    1  UNL1       -0.0290
     16 C          -1.7514    0.1065   -0.4977 C.ar    1  UNL1        0.1103
     17 C          -2.5531   -0.9773    0.0565 C.ar    1  UNL1        0.0968
     18 C          -3.9366   -0.9262    0.1857 C.ar    1  UNL1        0.0982
     19 C          -4.7502    0.2158   -0.2077 C.ar    1  UNL1        0.0027
     20 C          -4.6102    1.4651    0.3870 C.ar    1  UNL1       -0.0498
     21 C          -5.4015    2.5251   -0.0119 C.ar    1  UNL1       -0.0258
     22 C          -6.3558    2.3851   -1.0103 C.ar    1  UNL1        0.1234
     23 F          -7.1343    3.4289   -1.4021 F       1  UNL1       -0.2055
     24 C          -6.4978    1.1359   -1.6070 C.ar    1  UNL1       -0.0258
     25 C          -5.6991    0.0816   -1.1987 C.ar    1  UNL1       -0.0498
     26 N          -4.3233   -2.0987    0.7241 N.ar    1  UNL1       -0.2351
     27 C          -3.2385   -2.8682    0.9320 C.ar    1  UNL1        0.0973
     28 N          -2.1472   -2.1522    0.5104 N.ar    1  UNL1       -0.3229
     29 C          -0.7924   -2.6514    0.5940 C.3     1  UNL1        0.0852
     30 C          -0.1658   -2.3240    1.9349 C.3     1  UNL1        0.2569
     31 F           1.1102   -2.8378    1.9297 F       1  UNL1       -0.2073
     32 F          -0.9177   -2.7560    2.9832 F       1  UNL1       -0.2073
     33 N          -0.7918    0.7547    0.1789 N.ar    1  UNL1       -0.1632
     34 N          -0.0695    1.7543   -0.2916 N.ar    1  UNL1       -0.2151
     35 H           6.6318   -2.2295    0.0713 H       1  UNL1        0.0250
     36 H           6.7613   -0.3949    0.2581 H       1  UNL1        0.0250
     37 H           6.4844   -1.4043    1.7011 H       1  UNL1        0.0250
     38 H           3.4680   -2.9339    0.6215 H       1  UNL1        0.0250
     39 H           4.9414   -2.9936    1.5927 H       1  UNL1        0.0250
     40 H           3.6438   -1.9216    2.1502 H       1  UNL1        0.0250
     41 H           4.1069   -0.2357   -1.3549 H       1  UNL1        0.0250
     42 H           5.2559   -1.5611   -1.5903 H       1  UNL1        0.0250
     43 H           3.5206   -1.9740   -1.1151 H       1  UNL1        0.0250
     44 H           5.1751    0.7481    1.3119 H       1  UNL1        0.1507
     45 H           3.6122    2.4734    1.8213 H       1  UNL1        0.1506
     46 H           0.8330    1.8532    2.2271 H       1  UNL1        0.0528
     47 H           1.5660    3.5225    1.9924 H       1  UNL1        0.0528
     48 H           2.0650    4.2426   -0.6367 H       1  UNL1        0.0849
     49 H          -1.4280    1.9299   -3.3515 H       1  UNL1        0.0655
     50 H          -2.7424    0.0560   -2.3925 H       1  UNL1        0.0641
     51 H          -3.8635    1.5479    1.1587 H       1  UNL1        0.0625
     52 H          -5.2825    3.5062    0.4644 H       1  UNL1        0.0646
     53 H          -7.2468    1.0259   -2.3906 H       1  UNL1        0.0646
     54 H          -5.8320   -0.8803   -1.6817 H       1  UNL1        0.0625
     55 H          -3.2307   -3.8736    1.3567 H       1  UNL1        0.1029
     56 H          -0.1927   -2.2410   -0.2373 H       1  UNL1        0.0548
     57 H          -0.8374   -3.7477    0.4289 H       1  UNL1        0.0548
     58 H          -0.0829   -1.2217    2.0153 H       1  UNL1        0.1037
@<TRIPOS>BOND
     1     1     2    1
     2     2     3    1
     3     2     4    1
     4     2     5    1
     5     5     6   am
     6     6     7    2
     7     6     8   am
     8     8     9    1
     9     9    10    1
    10    10    11   ar
    11    11    12   ar
    12    12    13   ar
    13    13    14   ar
    14    14    15   ar
    15    15    16   ar
    16    16    17    1
    17    17    18   ar
    18    18    19    1
    19    19    20   ar
    20    20    21   ar
    21    21    22   ar
    22    22    23    1
    23    22    24   ar
    24    24    25   ar
    25    18    26   ar
    26    26    27   ar
    27    27    28   ar
    28    28    29    1
    29    29    30    1
    30    30    31    1
    31    30    32    1
    32    16    33   ar
    33    33    34   ar
    34    34    10   ar
    35    34    13   ar
    36    28    17   ar
    37    25    19   ar
    38     1    35    1
    39     1    36    1
    40     1    37    1
    41     3    38    1
    42     3    39    1
    43     3    40    1
    44     4    41    1
    45     4    42    1
    46     4    43    1
    47     5    44    1
    48     8    45    1
    49     9    46    1
    50     9    47    1
    51    11    48    1
    52    14    49    1
    53    15    50    1
    54    20    51    1
    55    21    52    1
    56    24    53    1
    57    25    54    1
    58    27    55    1
    59    29    56    1
    60    29    57    1
    61    30    58    1
