
     RDKit          3D

 58 61  0  0  0  0  0  0  0  0999 V2000
    6.2922   -1.3341    0.5910 C   0  0  0  0  0  0  0  0  0  0  0  0
    4.7667   -1.1821    0.4886 C   0  0  0  0  0  0  0  0  0  0  0  0
    4.1488   -2.3098    1.2394 C   0  0  0  0  0  0  0  0  0  0  0  0
    4.3544   -1.2505   -0.9848 C   0  0  0  0  0  0  0  0  0  0  0  0
    4.4252    0.1115    0.9689 N   0  0  0  0  0  0  0  0  0  0  0  0
    3.0818    0.6094    1.0130 C   0  0  0  0  0  0  0  0  0  0  0  0
    2.1696   -0.1221    0.6177 O   0  0  0  0  0  0  0  0  0  0  0  0
    2.7812    1.8956    1.4877 N   0  0  0  0  0  0  0  0  0  0  0  0
    1.4829    2.4977    1.5661 C   0  0  0  0  0  0  0  0  0  0  0  0
    0.9009    2.5399    0.2016 C   0  0  0  0  0  0  0  0  0  0  0  0
    1.2912    3.4642   -0.7468 C   0  0  0  0  0  0  0  0  0  0  0  0
    0.5406    3.2264   -1.8296 N   0  0  0  0  0  0  0  0  0  0  0  0
   -0.2804    2.1978   -1.5605 C   0  0  0  0  0  0  0  0  0  0  0  0
   -1.2632    1.5678   -2.3247 C   0  0  0  0  0  0  0  0  0  0  0  0
   -1.9927    0.5342   -1.8045 C   0  0  0  0  0  0  0  0  0  0  0  0
   -1.7514    0.1065   -0.4977 C   0  0  0  0  0  0  0  0  0  0  0  0
   -2.5531   -0.9773    0.0565 C   0  0  0  0  0  0  0  0  0  0  0  0
   -3.9366   -0.9262    0.1857 C   0  0  0  0  0  0  0  0  0  0  0  0
   -4.7502    0.2158   -0.2077 C   0  0  0  0  0  0  0  0  0  0  0  0
   -4.6102    1.4651    0.3870 C   0  0  0  0  0  0  0  0  0  0  0  0
   -5.4015    2.5251   -0.0119 C   0  0  0  0  0  0  0  0  0  0  0  0
   -6.3558    2.3851   -1.0103 C   0  0  0  0  0  0  0  0  0  0  0  0
   -7.1343    3.4289   -1.4021 F   0  0  0  0  0  0  0  0  0  0  0  0
   -6.4978    1.1359   -1.6070 C   0  0  0  0  0  0  0  0  0  0  0  0
   -5.6991    0.0816   -1.1987 C   0  0  0  0  0  0  0  0  0  0  0  0
   -4.3233   -2.0987    0.7241 N   0  0  0  0  0  0  0  0  0  0  0  0
   -3.2385   -2.8682    0.9320 C   0  0  0  0  0  0  0  0  0  0  0  0
   -2.1472   -2.1522    0.5104 N   0  0  0  0  0  0  0  0  0  0  0  0
   -0.7924   -2.6514    0.5940 C   0  0  0  0  0  0  0  0  0  0  0  0
   -0.1658   -2.3240    1.9349 C   0  0  0  0  0  0  0  0  0  0  0  0
    1.1102   -2.8378    1.9297 F   0  0  0  0  0  0  0  0  0  0  0  0
   -0.9177   -2.7560    2.9832 F   0  0  0  0  0  0  0  0  0  0  0  0
   -0.7918    0.7547    0.1789 N   0  0  0  0  0  0  0  0  0  0  0  0
   -0.0695    1.7543   -0.2916 N   0  0  0  0  0  0  0  0  0  0  0  0
    6.6318   -2.2295    0.0713 H   0  0  0  0  0  0  0  0  0  0  0  0
    6.7613   -0.3949    0.2581 H   0  0  0  0  0  0  0  0  0  0  0  0
    6.4844   -1.4043    1.7011 H   0  0  0  0  0  0  0  0  0  0  0  0
    3.4680   -2.9339    0.6215 H   0  0  0  0  0  0  0  0  0  0  0  0
    4.9414   -2.9936    1.5927 H   0  0  0  0  0  0  0  0  0  0  0  0
    3.6438   -1.9216    2.1502 H   0  0  0  0  0  0  0  0  0  0  0  0
    4.1069   -0.2357   -1.3549 H   0  0  0  0  0  0  0  0  0  0  0  0
    5.2559   -1.5611   -1.5903 H   0  0  0  0  0  0  0  0  0  0  0  0
    3.5206   -1.9740   -1.1151 H   0  0  0  0  0  0  0  0  0  0  0  0
    5.1751    0.7481    1.3119 H   0  0  0  0  0  0  0  0  0  0  0  0
    3.6122    2.4734    1.8213 H   0  0  0  0  0  0  0  0  0  0  0  0
    0.8330    1.8532    2.2271 H   0  0  0  0  0  0  0  0  0  0  0  0
    1.5660    3.5225    1.9924 H   0  0  0  0  0  0  0  0  0  0  0  0
    2.0650    4.2426   -0.6367 H   0  0  0  0  0  0  0  0  0  0  0  0
   -1.4280    1.9299   -3.3515 H   0  0  0  0  0  0  0  0  0  0  0  0
   -2.7424    0.0560   -2.3925 H   0  0  0  0  0  0  0  0  0  0  0  0
   -3.8635    1.5479    1.1587 H   0  0  0  0  0  0  0  0  0  0  0  0
   -5.2825    3.5062    0.4644 H   0  0  0  0  0  0  0  0  0  0  0  0
   -7.2468    1.0259   -2.3906 H   0  0  0  0  0  0  0  0  0  0  0  0
   -5.8320   -0.8803   -1.6817 H   0  0  0  0  0  0  0  0  0  0  0  0
   -3.2307   -3.8736    1.3567 H   0  0  0  0  0  0  0  0  0  0  0  0
   -0.1927   -2.2410   -0.2373 H   0  0  0  0  0  0  0  0  0  0  0  0
   -0.8374   -3.7477    0.4289 H   0  0  0  0  0  0  0  0  0  0  0  0
   -0.0829   -1.2217    2.0153 H   0  0  0  0  0  0  0  0  0  0  0  0
  1  2  1  0
  2  3  1  0
  2  4  1  0
  2  5  1  0
  5  6  1  0
  6  7  2  0
  6  8  1  0
  8  9  1  0
  9 10  1  0
 10 11  2  0
 11 12  1  0
 12 13  2  0
 13 14  1  0
 14 15  2  0
 15 16  1  0
 16 17  1  0
 17 18  2  0
 18 19  1  0
 19 20  2  0
 20 21  1  0
 21 22  2  0
 22 23  1  0
 22 24  1  0
 24 25  2  0
 18 26  1  0
 26 27  2  0
 27 28  1  0
 28 29  1  0
 29 30  1  0
 30 31  1  0
 30 32  1  0
 16 33  2  0
 33 34  1  0
 34 10  1  0
 34 13  1  0
 28 17  1  0
 25 19  1  0
  1 35  1  0
  1 36  1  0
  1 37  1  0
  3 38  1  0
  3 39  1  0
  3 40  1  0
  4 41  1  0
  4 42  1  0
  4 43  1  0
  5 44  1  0
  8 45  1  0
  9 46  1  0
  9 47  1  0
 11 48  1  0
 14 49  1  0
 15 50  1  0
 20 51  1  0
 21 52  1  0
 24 53  1  0
 25 54  1  0
 27 55  1  0
 29 56  1  0
 29 57  1  0
 30 58  1  0
M  END
$$$$
