@<TRIPOS>MOLECULE
*****
 30 31 0 0 0
SMALL
GASTEIGER

@<TRIPOS>ATOM
      1 C          -2.6291   -1.8113   -0.4500 C.3     1  UNL1        0.0004
      2 N          -2.4664   -0.3759   -0.7157 N.pl3   1  UNL1       -0.3355
      3 C          -3.3576    0.1081   -1.7559 C.3     1  UNL1        0.0004
      4 C          -1.5140    0.3712    0.0180 C.ar    1  UNL1        0.0370
      5 C          -0.1532    0.1456    0.0573 C.ar    1  UNL1        0.0032
      6 C           0.3231   -0.9103   -0.6915 C.ar    1  UNL1       -0.0504
      7 C           1.6715   -1.1787   -0.6876 C.ar    1  UNL1       -0.0337
      8 C           2.5593   -0.3995    0.0610 C.ar    1  UNL1        0.1174
      9 C           2.0614    0.6543    0.8046 C.ar    1  UNL1       -0.0266
     10 C           0.7050    0.9267    0.8026 C.ar    1  UNL1       -0.0142
     11 C           0.1648    1.9723    1.5331 C.ar    1  UNL1       -0.0539
     12 C          -1.1883    2.2459    1.5325 C.ar    1  UNL1       -0.0594
     13 C          -2.0087    1.4247    0.7619 C.ar    1  UNL1       -0.0401
     14 S           4.2652   -0.7351    0.0687 S.O2    1  UNL1        0.1096
     15 O           5.0389    0.1041   -1.1497 O.3     1  UNL1       -0.2498
     16 O           4.5021   -2.1974   -0.1824 O.2     1  UNL1       -0.1421
     17 O           4.9091   -0.3837    1.3864 O.2     1  UNL1       -0.1421
     18 H          -2.5606   -2.4199   -1.3761 H       1  UNL1        0.0428
     19 H          -3.6666   -1.9460   -0.0619 H       1  UNL1        0.0428
     20 H          -1.9660   -2.1629    0.3662 H       1  UNL1        0.0428
     21 H          -3.5155    1.2056   -1.7179 H       1  UNL1        0.0428
     22 H          -3.0146   -0.2330   -2.7718 H       1  UNL1        0.0428
     23 H          -4.3846   -0.3208   -1.6443 H       1  UNL1        0.0428
     24 H          -0.3228   -1.5209   -1.2702 H       1  UNL1        0.0625
     25 H           2.0897   -2.0028   -1.2646 H       1  UNL1        0.0637
     26 H           2.7385    1.2605    1.3848 H       1  UNL1        0.0643
     27 H           0.8622    2.5660    2.1069 H       1  UNL1        0.0624
     28 H          -1.5876    3.0768    2.1178 H       1  UNL1        0.0618
     29 H          -3.0761    1.6609    0.7773 H       1  UNL1        0.0636
     30 H           5.5211    0.8755   -0.7538 H       1  UNL1        0.2449
@<TRIPOS>BOND
     1     1     2    1
     2     2     3    1
     3     2     4    1
     4     4     5   ar
     5     5     6   ar
     6     6     7   ar
     7     7     8   ar
     8     8     9   ar
     9     9    10   ar
    10    10    11   ar
    11    11    12   ar
    12    12    13   ar
    13     8    14    1
    14    14    15    1
    15    14    16    2
    16    14    17    2
    17    13     4   ar
    18    10     5   ar
    19     1    18    1
    20     1    19    1
    21     1    20    1
    22     3    21    1
    23     3    22    1
    24     3    23    1
    25     6    24    1
    26     7    25    1
    27     9    26    1
    28    11    27    1
    29    12    28    1
    30    13    29    1
    31    15    30    1
