
     RDKit          3D

 30 31  0  0  0  0  0  0  0  0999 V2000
   -2.6291   -1.8113   -0.4500 C   0  0  0  0  0  0  0  0  0  0  0  0
   -2.4664   -0.3759   -0.7157 N   0  0  0  0  0  0  0  0  0  0  0  0
   -3.3576    0.1081   -1.7559 C   0  0  0  0  0  0  0  0  0  0  0  0
   -1.5140    0.3712    0.0180 C   0  0  0  0  0  0  0  0  0  0  0  0
   -0.1532    0.1456    0.0573 C   0  0  0  0  0  0  0  0  0  0  0  0
    0.3231   -0.9103   -0.6915 C   0  0  0  0  0  0  0  0  0  0  0  0
    1.6715   -1.1787   -0.6876 C   0  0  0  0  0  0  0  0  0  0  0  0
    2.5593   -0.3995    0.0610 C   0  0  0  0  0  0  0  0  0  0  0  0
    2.0614    0.6543    0.8046 C   0  0  0  0  0  0  0  0  0  0  0  0
    0.7050    0.9267    0.8026 C   0  0  0  0  0  0  0  0  0  0  0  0
    0.1648    1.9723    1.5331 C   0  0  0  0  0  0  0  0  0  0  0  0
   -1.1883    2.2459    1.5325 C   0  0  0  0  0  0  0  0  0  0  0  0
   -2.0087    1.4247    0.7619 C   0  0  0  0  0  0  0  0  0  0  0  0
    4.2652   -0.7351    0.0687 S   0  0  0  0  0  0  0  0  0  0  0  0
    5.0389    0.1041   -1.1497 O   0  0  0  0  0  0  0  0  0  0  0  0
    4.5021   -2.1974   -0.1824 O   0  0  0  0  0  0  0  0  0  0  0  0
    4.9091   -0.3837    1.3864 O   0  0  0  0  0  0  0  0  0  0  0  0
   -2.5606   -2.4199   -1.3761 H   0  0  0  0  0  0  0  0  0  0  0  0
   -3.6666   -1.9460   -0.0619 H   0  0  0  0  0  0  0  0  0  0  0  0
   -1.9660   -2.1629    0.3662 H   0  0  0  0  0  0  0  0  0  0  0  0
   -3.5155    1.2056   -1.7179 H   0  0  0  0  0  0  0  0  0  0  0  0
   -3.0146   -0.2330   -2.7718 H   0  0  0  0  0  0  0  0  0  0  0  0
   -4.3846   -0.3208   -1.6443 H   0  0  0  0  0  0  0  0  0  0  0  0
   -0.3228   -1.5209   -1.2702 H   0  0  0  0  0  0  0  0  0  0  0  0
    2.0897   -2.0028   -1.2646 H   0  0  0  0  0  0  0  0  0  0  0  0
    2.7385    1.2605    1.3848 H   0  0  0  0  0  0  0  0  0  0  0  0
    0.8622    2.5660    2.1069 H   0  0  0  0  0  0  0  0  0  0  0  0
   -1.5876    3.0768    2.1178 H   0  0  0  0  0  0  0  0  0  0  0  0
   -3.0761    1.6609    0.7773 H   0  0  0  0  0  0  0  0  0  0  0  0
    5.5211    0.8755   -0.7538 H   0  0  0  0  0  0  0  0  0  0  0  0
  1  2  1  0
  2  3  1  0
  2  4  1  0
  4  5  2  0
  5  6  1  0
  6  7  2  0
  7  8  1  0
  8  9  2  0
  9 10  1  0
 10 11  2  0
 11 12  1  0
 12 13  2  0
  8 14  1  0
 14 15  1  0
 14 16  2  0
 14 17  2  0
 13  4  1  0
 10  5  1  0
  1 18  1  0
  1 19  1  0
  1 20  1  0
  3 21  1  0
  3 22  1  0
  3 23  1  0
  6 24  1  0
  7 25  1  0
  9 26  1  0
 11 27  1  0
 12 28  1  0
 13 29  1  0
 15 30  1  0
M  END
$$$$
