@<TRIPOS>MOLECULE
*****
 56 59 0 0 0
SMALL
GASTEIGER

@<TRIPOS>ATOM
      1 C          -4.7599   -2.5635   -1.6610 C.3     1  UNL1        0.0196
      2 N          -3.4474   -2.4383   -1.0676 N.ar    1  UNL1       -0.2623
      3 C          -2.8575   -1.2222   -1.1612 C.ar    1  UNL1        0.2806
      4 O          -3.4040   -0.2571   -1.7230 O.2     1  UNL1       -0.2652
      5 C          -1.5990   -1.1079   -0.5909 C.ar    1  UNL1        0.1329
      6 C          -1.0148   -2.1901    0.0269 C.ar    1  UNL1        0.0780
      7 C           0.2029   -1.7803    0.4906 C.ar    1  UNL1        0.0025
      8 C           0.3979   -0.4286    0.1667 C.ar    1  UNL1        0.1043
      9 N           1.5742    0.2892    0.4973 N.pl3   1  UNL1       -0.3147
     10 C           1.8360    1.6785    0.3901 C.3     1  UNL1        0.0136
     11 C           2.8113    1.8990   -0.7589 C.3     1  UNL1       -0.0355
     12 C           3.6872    0.6771   -0.9210 C.3     1  UNL1       -0.0322
     13 C           4.0115    0.0933    0.4554 C.3     1  UNL1        0.0296
     14 C           4.9854   -1.0515    0.2717 C.3     1  UNL1       -0.0455
     15 N           4.6403    1.0801    1.2757 N.3     1  UNL1       -0.3236
     16 C           2.7360   -0.4768    1.0210 C.3     1  UNL1        0.0313
     17 N          -0.7158   -0.0656   -0.4863 N.ar    1  UNL1       -0.3187
     18 C          -1.0053    1.1926   -1.0568 C.3     1  UNL1        0.0515
     19 C          -1.7033    2.2093   -0.2822 C.ar    1  UNL1       -0.0077
     20 C          -1.9352    3.4259   -0.9484 C.ar    1  UNL1       -0.0203
     21 C          -2.5833    4.4618   -0.3268 C.ar    1  UNL1        0.1238
     22 F          -2.7922    5.6260   -1.0008 F       1  UNL1       -0.2055
     23 C          -3.0311    4.3364    0.9868 C.ar    1  UNL1       -0.0252
     24 C          -2.8113    3.1653    1.6372 C.ar    1  UNL1       -0.0413
     25 C          -2.1539    2.1134    1.0077 C.ar    1  UNL1        0.0568
     26 C          -1.9716    0.9190    1.7814 C.1     1  UNL1        0.0995
     27 N          -1.8352   -0.0257    2.4146 N.1     1  UNL1       -0.1909
     28 N          -1.6288   -3.3850    0.1025 N.ar    1  UNL1       -0.2947
     29 C          -1.0243   -4.5370    0.7517 C.3     1  UNL1        0.0167
     30 C          -2.8510   -3.4852   -0.4551 C.ar    1  UNL1        0.3320
     31 O          -3.4375   -4.5888   -0.3948 O.2     1  UNL1       -0.2463
     32 H          -5.0945   -3.6056   -1.5410 H       1  UNL1        0.0458
     33 H          -4.6935   -2.3540   -2.7373 H       1  UNL1        0.0458
     34 H          -5.4251   -1.8417   -1.1262 H       1  UNL1        0.0458
     35 H           0.9114   -2.3739    1.0228 H       1  UNL1        0.0673
     36 H           2.4683    1.9927    1.3079 H       1  UNL1        0.0464
     37 H           1.0111    2.3745    0.4298 H       1  UNL1        0.0464
     38 H           3.4655    2.7797   -0.5518 H       1  UNL1        0.0281
     39 H           2.2335    2.0655   -1.6731 H       1  UNL1        0.0281
     40 H           4.6097    0.9400   -1.4679 H       1  UNL1        0.0284
     41 H           3.1423   -0.0809   -1.5183 H       1  UNL1        0.0284
     42 H           4.4183   -1.9424   -0.0619 H       1  UNL1        0.0248
     43 H           5.4094   -1.2861    1.2684 H       1  UNL1        0.0248
     44 H           5.8253   -0.7892   -0.4013 H       1  UNL1        0.0248
     45 H           5.1672    1.7472    0.6436 H       1  UNL1        0.1188
     46 H           5.3548    0.6910    1.9276 H       1  UNL1        0.1188
     47 H           2.6360   -1.4921    0.5487 H       1  UNL1        0.0482
     48 H           2.7112   -0.5076    2.1206 H       1  UNL1        0.0482
     49 H          -1.5915    1.0415   -2.0201 H       1  UNL1        0.0542
     50 H          -0.0827    1.7116   -1.4676 H       1  UNL1        0.0542
     51 H          -1.6077    3.5767   -1.9726 H       1  UNL1        0.0650
     52 H          -3.5397    5.1822    1.4389 H       1  UNL1        0.0646
     53 H          -3.1404    3.0315    2.6473 H       1  UNL1        0.0631
     54 H          -1.7873   -5.2140    1.1861 H       1  UNL1        0.0457
     55 H          -0.3626   -5.0669    0.0175 H       1  UNL1        0.0457
     56 H          -0.3597   -4.1429    1.5373 H       1  UNL1        0.0457
@<TRIPOS>BOND
     1     1     2    1
     2     2     3   ar
     3     3     4    2
     4     3     5   ar
     5     5     6   ar
     6     6     7   ar
     7     7     8   ar
     8     8     9    1
     9     9    10    1
    10    10    11    1
    11    11    12    1
    12    12    13    1
    13    13    14    1
    14    13    15    1
    15    13    16    1
    16     8    17   ar
    17    17    18    1
    18    18    19    1
    19    19    20   ar
    20    20    21   ar
    21    21    22    1
    22    21    23   ar
    23    23    24   ar
    24    24    25   ar
    25    25    26    1
    26    26    27    3
    27     6    28   ar
    28    28    29    1
    29    28    30   ar
    30    30    31    2
    31    30     2   ar
    32    17     5   ar
    33    25    19   ar
    34    16     9    1
    35     1    32    1
    36     1    33    1
    37     1    34    1
    38     7    35    1
    39    10    36    1
    40    10    37    1
    41    11    38    1
    42    11    39    1
    43    12    40    1
    44    12    41    1
    45    14    42    1
    46    14    43    1
    47    14    44    1
    48    15    45    1
    49    15    46    1
    50    16    47    1
    51    16    48    1
    52    18    49    1
    53    18    50    1
    54    20    51    1
    55    23    52    1
    56    24    53    1
    57    29    54    1
    58    29    55    1
    59    29    56    1
