@<TRIPOS>MOLECULE
*****
 55 59 0 0 0
SMALL
GASTEIGER

@<TRIPOS>ATOM
      1 C          -5.5056    0.9100    3.4026 C.3     1  UNL1       -0.0223
      2 C          -4.6557    0.8887    2.1943 C.ar    1  UNL1        0.0392
      3 C          -5.2149    1.1843    0.9641 C.ar    1  UNL1       -0.0386
      4 C          -4.4930    1.1851   -0.1938 C.ar    1  UNL1       -0.0306
      5 C          -3.1144    0.8727   -0.1526 C.ar    1  UNL1        0.1165
      6 N          -2.4033    0.8956   -1.3859 N.ar    1  UNL1       -0.1481
      7 N          -1.4999    1.7340   -1.8472 N.ar    1  UNL1       -0.1555
      8 C          -1.1208    1.3826   -3.1020 C.ar    1  UNL1        0.0697
      9 C          -1.8361    0.2656   -3.4156 C.ar    1  UNL1        0.0697
     10 N          -2.6041    0.0000   -2.3487 N.ar    1  UNL1       -0.1555
     11 C          -2.5880    0.5865    1.0508 C.ar    1  UNL1        0.1528
     12 C          -1.1577    0.2250    1.2113 C.2     1  UNL1        0.2675
     13 O          -0.3893    1.1848    1.5358 O.2     1  UNL1       -0.2682
     14 N          -0.7219   -1.1017    1.0248 N.am    1  UNL1       -0.2885
     15 C          -1.6587   -2.0886    0.5601 C.3     1  UNL1        0.0388
     16 C          -1.2690   -3.4927    0.8108 C.3     1  UNL1        0.0635
     17 O          -0.3262   -3.7498    1.7479 O.3     1  UNL1       -0.3764
     18 C           0.3073   -2.7194    2.3555 C.3     1  UNL1        0.0666
     19 C           0.5813   -1.5326    1.3944 C.3     1  UNL1        0.0537
     20 C           1.5729   -1.8878    0.3815 C.3     1  UNL1       -0.0068
     21 C           2.0347   -0.8507   -0.5570 C.ar    1  UNL1       -0.0435
     22 C           1.5034   -0.5745   -1.7917 C.ar    1  UNL1       -0.0584
     23 C           2.0188    0.4051   -2.6265 C.ar    1  UNL1       -0.0595
     24 C           3.1063    1.1596   -2.2478 C.ar    1  UNL1       -0.0363
     25 C           3.6754    0.9145   -1.0060 C.ar    1  UNL1        0.0656
     26 N           4.8094    1.6663   -0.5411 N.ar    1  UNL1       -0.2399
     27 C           6.0884    1.3433   -0.6600 C.ar    1  UNL1        0.0312
     28 C           6.8828    2.3342   -0.0747 C.ar    1  UNL1       -0.0238
     29 C           5.9932    3.2736    0.4019 C.ar    1  UNL1        0.0498
     30 N           4.7641    2.8317    0.0995 N.ar    1  UNL1       -0.1748
     31 C           3.1433   -0.0574   -0.2089 C.ar    1  UNL1       -0.0330
     32 N          -3.3533    0.5977    2.1941 N.ar    1  UNL1       -0.2451
     33 H          -6.1242    1.8369    3.4443 H       1  UNL1        0.0292
     34 H          -4.8599    0.8737    4.2991 H       1  UNL1        0.0292
     35 H          -6.1852    0.0180    3.4542 H       1  UNL1        0.0292
     36 H          -6.2869    1.4244    0.9540 H       1  UNL1        0.0636
     37 H          -4.9240    1.4140   -1.1485 H       1  UNL1        0.0641
     38 H          -0.3898    1.9050   -3.7219 H       1  UNL1        0.0864
     39 H          -1.7986   -0.3064   -4.3423 H       1  UNL1        0.0864
     40 H          -2.6759   -1.8934    0.9570 H       1  UNL1        0.0487
     41 H          -1.7488   -1.9422   -0.5560 H       1  UNL1        0.0487
     42 H          -0.9605   -4.0377   -0.1341 H       1  UNL1        0.0575
     43 H          -2.1997   -4.0676    1.1046 H       1  UNL1        0.0575
     44 H          -0.3634   -2.2680    3.1421 H       1  UNL1        0.0578
     45 H           1.2383   -3.0499    2.8282 H       1  UNL1        0.0578
     46 H           1.0808   -0.7826    2.0909 H       1  UNL1        0.0526
     47 H           1.0941   -2.6853   -0.2741 H       1  UNL1        0.0332
     48 H           2.4486   -2.3571    0.9074 H       1  UNL1        0.0332
     49 H           0.6429   -1.1499   -2.1268 H       1  UNL1        0.0620
     50 H           1.6095    0.6264   -3.6049 H       1  UNL1        0.0618
     51 H           3.5399    1.9324   -2.8575 H       1  UNL1        0.0639
     52 H           6.4636    0.4382   -1.1428 H       1  UNL1        0.0831
     53 H           7.9513    2.3632   -0.0037 H       1  UNL1        0.0648
     54 H           6.2912    4.1833    0.9196 H       1  UNL1        0.0848
     55 H           3.5872   -0.2611    0.7752 H       1  UNL1        0.0641
@<TRIPOS>BOND
     1     1     2    1
     2     2     3   ar
     3     3     4   ar
     4     4     5   ar
     5     5     6    1
     6     6     7   ar
     7     7     8   ar
     8     8     9   ar
     9     9    10   ar
    10     5    11   ar
    11    11    12    1
    12    12    13    2
    13    12    14   am
    14    14    15    1
    15    15    16    1
    16    16    17    1
    17    17    18    1
    18    18    19    1
    19    19    20    1
    20    20    21    1
    21    21    22   ar
    22    22    23   ar
    23    23    24   ar
    24    24    25   ar
    25    25    26    1
    26    26    27   ar
    27    27    28   ar
    28    28    29   ar
    29    29    30   ar
    30    25    31   ar
    31    11    32   ar
    32    32     2   ar
    33    10     6   ar
    34    19    14    1
    35    31    21   ar
    36    30    26   ar
    37     1    33    1
    38     1    34    1
    39     1    35    1
    40     3    36    1
    41     4    37    1
    42     8    38    1
    43     9    39    1
    44    15    40    1
    45    15    41    1
    46    16    42    1
    47    16    43    1
    48    18    44    1
    49    18    45    1
    50    19    46    1
    51    20    47    1
    52    20    48    1
    53    22    49    1
    54    23    50    1
    55    24    51    1
    56    27    52    1
    57    28    53    1
    58    29    54    1
    59    31    55    1
