
     RDKit          3D

 45 49  0  0  0  0  0  0  0  0999 V2000
    5.0178    2.3082   -2.1167 N   0  0  0  0  0  0  0  0  0  0  0  0
    3.8267    1.6786   -1.6941 C   0  0  0  0  0  0  0  0  0  0  0  0
    2.8892    1.4634   -2.4956 O   0  0  0  0  0  0  0  0  0  0  0  0
    3.6769    1.2707   -0.3119 C   0  0  0  0  0  0  0  0  0  0  0  0
    4.6310    1.4484    0.6767 C   0  0  0  0  0  0  0  0  0  0  0  0
    4.1556    0.9558    1.8211 N   0  0  0  0  0  0  0  0  0  0  0  0
    2.9175    0.4759    1.5476 C   0  0  0  0  0  0  0  0  0  0  0  0
    1.9999   -0.1387    2.3933 C   0  0  0  0  0  0  0  0  0  0  0  0
    0.8044   -0.5370    1.8653 C   0  0  0  0  0  0  0  0  0  0  0  0
    0.4575   -0.3635    0.5410 C   0  0  0  0  0  0  0  0  0  0  0  0
   -0.8361   -0.8224    0.0515 C   0  0  0  0  0  0  0  0  0  0  0  0
   -1.9121   -0.0235   -0.2383 C   0  0  0  0  0  0  0  0  0  0  0  0
   -2.0572    1.4202   -0.1419 C   0  0  0  0  0  0  0  0  0  0  0  0
   -2.9229    2.0061    0.7578 C   0  0  0  0  0  0  0  0  0  0  0  0
   -3.0630    3.3805    0.8449 C   0  0  0  0  0  0  0  0  0  0  0  0
   -2.3237    4.1905    0.0167 C   0  0  0  0  0  0  0  0  0  0  0  0
   -2.4594    5.5368    0.1003 F   0  0  0  0  0  0  0  0  0  0  0  0
   -1.4444    3.6364   -0.8991 C   0  0  0  0  0  0  0  0  0  0  0  0
   -1.3325    2.2537   -0.9557 C   0  0  0  0  0  0  0  0  0  0  0  0
   -2.9154   -0.8254   -0.6640 N   0  0  0  0  0  0  0  0  0  0  0  0
   -2.5063   -2.0930   -0.6505 C   0  0  0  0  0  0  0  0  0  0  0  0
   -1.2367   -2.0785   -0.2124 N   0  0  0  0  0  0  0  0  0  0  0  0
   -0.5673   -3.3615   -0.1105 C   0  0  0  0  0  0  0  0  0  0  0  0
   -1.5870   -4.3149    0.5099 C   0  0  0  0  0  0  0  0  0  0  0  0
   -2.6470   -4.5277   -0.4210 N   0  0  0  0  0  0  0  0  0  0  0  0
   -3.1991   -3.3572   -1.0162 C   0  0  0  0  0  0  0  0  0  0  0  0
    1.4027    0.2505   -0.2529 C   0  0  0  0  0  0  0  0  0  0  0  0
    2.6001    0.6545    0.2561 N   0  0  0  0  0  0  0  0  0  0  0  0
    5.6556    2.7109   -1.4033 H   0  0  0  0  0  0  0  0  0  0  0  0
    5.2988    2.3938   -3.1229 H   0  0  0  0  0  0  0  0  0  0  0  0
    5.6160    1.9025    0.6005 H   0  0  0  0  0  0  0  0  0  0  0  0
    2.2622   -0.2832    3.4486 H   0  0  0  0  0  0  0  0  0  0  0  0
    0.0891   -1.0132    2.5136 H   0  0  0  0  0  0  0  0  0  0  0  0
   -3.5124    1.3824    1.4172 H   0  0  0  0  0  0  0  0  0  0  0  0
   -3.7348    3.8395    1.5426 H   0  0  0  0  0  0  0  0  0  0  0  0
   -0.8823    4.3093   -1.5316 H   0  0  0  0  0  0  0  0  0  0  0  0
   -0.6420    1.8666   -1.6812 H   0  0  0  0  0  0  0  0  0  0  0  0
   -0.2570   -3.7445   -1.1053 H   0  0  0  0  0  0  0  0  0  0  0  0
    0.3462   -3.3110    0.5142 H   0  0  0  0  0  0  0  0  0  0  0  0
   -1.9652   -3.8234    1.4090 H   0  0  0  0  0  0  0  0  0  0  0  0
   -1.0801   -5.2853    0.6972 H   0  0  0  0  0  0  0  0  0  0  0  0
   -2.2742   -5.1330   -1.2126 H   0  0  0  0  0  0  0  0  0  0  0  0
   -3.2108   -3.4053   -2.1350 H   0  0  0  0  0  0  0  0  0  0  0  0
   -4.2806   -3.3072   -0.7155 H   0  0  0  0  0  0  0  0  0  0  0  0
    1.2021    0.4142   -1.2912 H   0  0  0  0  0  0  0  0  0  0  0  0
  1  2  1  0
  2  3  2  0
  2  4  1  0
  4  5  2  0
  5  6  1  0
  6  7  2  0
  7  8  1  0
  8  9  2  0
  9 10  1  0
 10 11  1  0
 11 12  2  0
 12 13  1  0
 13 14  2  0
 14 15  1  0
 15 16  2  0
 16 17  1  0
 16 18  1  0
 18 19  2  0
 12 20  1  0
 20 21  2  0
 21 22  1  0
 22 23  1  0
 23 24  1  0
 24 25  1  0
 25 26  1  0
 10 27  2  0
 27 28  1  0
 28  4  1  0
 28  7  1  0
 22 11  1  0
 19 13  1  0
 26 21  1  0
  1 29  1  0
  1 30  1  0
  5 31  1  0
  8 32  1  0
  9 33  1  0
 14 34  1  0
 15 35  1  0
 18 36  1  0
 19 37  1  0
 23 38  1  0
 23 39  1  0
 24 40  1  0
 24 41  1  0
 25 42  1  0
 26 43  1  0
 26 44  1  0
 27 45  1  0
M  END
$$$$
