@<TRIPOS>MOLECULE
*****
 45 49 0 0 0
SMALL
GASTEIGER

@<TRIPOS>ATOM
      1 N           5.0178    2.3082   -2.1167 N.am    1  UNL1       -0.3241
      2 C           3.8267    1.6786   -1.6941 C.2     1  UNL1        0.2599
      3 O           2.8892    1.4634   -2.4956 O.2     1  UNL1       -0.2687
      4 C           3.6769    1.2707   -0.3119 C.ar    1  UNL1        0.1280
      5 C           4.6310    1.4484    0.6767 C.ar    1  UNL1        0.0588
      6 N           4.1556    0.9558    1.8211 N.ar    1  UNL1       -0.2353
      7 C           2.9175    0.4759    1.5476 C.ar    1  UNL1        0.1381
      8 C           1.9999   -0.1387    2.3933 C.ar    1  UNL1       -0.0182
      9 C           0.8044   -0.5370    1.8653 C.ar    1  UNL1       -0.0477
     10 C           0.4575   -0.3635    0.5410 C.ar    1  UNL1        0.0173
     11 C          -0.8361   -0.8224    0.0515 C.ar    1  UNL1        0.0781
     12 C          -1.9121   -0.0235   -0.2383 C.ar    1  UNL1        0.0971
     13 C          -2.0572    1.4202   -0.1419 C.ar    1  UNL1        0.0026
     14 C          -2.9229    2.0061    0.7578 C.ar    1  UNL1       -0.0498
     15 C          -3.0630    3.3805    0.8449 C.ar    1  UNL1       -0.0258
     16 C          -2.3237    4.1905    0.0167 C.ar    1  UNL1        0.1234
     17 F          -2.4594    5.5368    0.1003 F       1  UNL1       -0.2055
     18 C          -1.4444    3.6364   -0.8991 C.ar    1  UNL1       -0.0258
     19 C          -1.3325    2.2537   -0.9557 C.ar    1  UNL1       -0.0498
     20 N          -2.9154   -0.8254   -0.6640 N.ar    1  UNL1       -0.2303
     21 C          -2.5063   -2.0930   -0.6505 C.ar    1  UNL1        0.1248
     22 N          -1.2367   -2.0785   -0.2124 N.ar    1  UNL1       -0.3248
     23 C          -0.5673   -3.3615   -0.1105 C.3     1  UNL1        0.0375
     24 C          -1.5870   -4.3149    0.5099 C.3     1  UNL1        0.0143
     25 N          -2.6470   -4.5277   -0.4210 N.3     1  UNL1       -0.3077
     26 C          -3.1991   -3.3572   -1.0162 C.3     1  UNL1        0.0548
     27 C           1.4027    0.2505   -0.2529 C.ar    1  UNL1        0.0211
     28 N           2.6001    0.6545    0.2561 N.ar    1  UNL1       -0.2949
     29 H           5.6556    2.7109   -1.4033 H       1  UNL1        0.1453
     30 H           5.2988    2.3938   -3.1229 H       1  UNL1        0.1453
     31 H           5.6160    1.9025    0.6005 H       1  UNL1        0.0853
     32 H           2.2622   -0.2832    3.4486 H       1  UNL1        0.0654
     33 H           0.0891   -1.0132    2.5136 H       1  UNL1        0.0626
     34 H          -3.5124    1.3824    1.4172 H       1  UNL1        0.0625
     35 H          -3.7348    3.8395    1.5426 H       1  UNL1        0.0646
     36 H          -0.8823    4.3093   -1.5316 H       1  UNL1        0.0646
     37 H          -0.6420    1.8666   -1.6812 H       1  UNL1        0.0625
     38 H          -0.2570   -3.7445   -1.1053 H       1  UNL1        0.0505
     39 H           0.3462   -3.3110    0.5142 H       1  UNL1        0.0505
     40 H          -1.9652   -3.8234    1.4090 H       1  UNL1        0.0442
     41 H          -1.0801   -5.2853    0.6972 H       1  UNL1        0.0442
     42 H          -2.2742   -5.1330   -1.2126 H       1  UNL1        0.1224
     43 H          -3.2108   -3.4053   -2.1350 H       1  UNL1        0.0504
     44 H          -4.2806   -3.3072   -0.7155 H       1  UNL1        0.0504
     45 H           1.2021    0.4142   -1.2912 H       1  UNL1        0.0820
@<TRIPOS>BOND
     1     1     2   am
     2     2     3    2
     3     2     4    1
     4     4     5   ar
     5     5     6   ar
     6     6     7   ar
     7     7     8   ar
     8     8     9   ar
     9     9    10   ar
    10    10    11    1
    11    11    12   ar
    12    12    13    1
    13    13    14   ar
    14    14    15   ar
    15    15    16   ar
    16    16    17    1
    17    16    18   ar
    18    18    19   ar
    19    12    20   ar
    20    20    21   ar
    21    21    22   ar
    22    22    23    1
    23    23    24    1
    24    24    25    1
    25    25    26    1
    26    10    27   ar
    27    27    28   ar
    28    28     4   ar
    29    28     7   ar
    30    22    11   ar
    31    19    13   ar
    32    26    21    1
    33     1    29    1
    34     1    30    1
    35     5    31    1
    36     8    32    1
    37     9    33    1
    38    14    34    1
    39    15    35    1
    40    18    36    1
    41    19    37    1
    42    23    38    1
    43    23    39    1
    44    24    40    1
    45    24    41    1
    46    25    42    1
    47    26    43    1
    48    26    44    1
    49    27    45    1
