@<TRIPOS>MOLECULE
*****
 30 32 0 0 0
SMALL
GASTEIGER

@<TRIPOS>ATOM
      1 C          -2.3420   -2.3363   -0.0828 C.3     1  UNL1       -0.0377
      2 C          -2.6571   -0.8961   -0.0151 C.ar    1  UNL1       -0.0243
      3 C          -3.9661   -0.4949    0.0082 C.ar    1  UNL1       -0.0568
      4 C          -4.2687    0.8332    0.0707 C.ar    1  UNL1       -0.0607
      5 C          -3.2426    1.7555    0.1096 C.ar    1  UNL1       -0.0473
      6 C          -1.9093    1.3706    0.0870 C.ar    1  UNL1        0.0650
      7 C          -0.9018    2.3075    0.1266 C.ar    1  UNL1        0.2595
      8 O          -1.1652    3.5292    0.1840 O.2     1  UNL1       -0.2671
      9 N           0.3817    1.8400    0.1004 N.ar    1  UNL1       -0.3064
     10 C           0.6957    0.5503    0.0396 C.ar    1  UNL1        0.1415
     11 C           2.0793    0.0723    0.0126 C.ar    1  UNL1        0.0174
     12 C           3.1424    0.9309    0.0484 C.ar    1  UNL1       -0.0501
     13 C           4.4757    0.5026    0.0238 C.ar    1  UNL1       -0.0471
     14 C           4.6759   -0.8580   -0.0398 C.ar    1  UNL1        0.0179
     15 BR          6.4679   -1.5007   -0.0759 Br      1  UNL1       -0.0503
     16 C           3.6394   -1.7639   -0.0779 C.ar    1  UNL1       -0.0471
     17 C           2.3480   -1.2959   -0.0516 C.ar    1  UNL1       -0.0501
     18 N          -0.3353   -0.3329    0.0026 N.ar    1  UNL1       -0.2287
     19 C          -1.6200    0.0261    0.0238 C.ar    1  UNL1        0.0814
     20 H          -1.9364   -2.6836    0.8658 H       1  UNL1        0.0278
     21 H          -1.5627   -2.4631   -0.8642 H       1  UNL1        0.0278
     22 H          -3.2278   -2.9095   -0.4330 H       1  UNL1        0.0278
     23 H          -4.8019   -1.1917   -0.0209 H       1  UNL1        0.0621
     24 H          -5.3009    1.1711    0.0900 H       1  UNL1        0.0618
     25 H          -3.4210    2.8271    0.1598 H       1  UNL1        0.0626
     26 H           1.1028    2.5849    0.1322 H       1  UNL1        0.1704
     27 H           2.9886    1.9955    0.0981 H       1  UNL1        0.0625
     28 H           5.2965    1.2133    0.0537 H       1  UNL1        0.0629
     29 H           3.8645   -2.8262   -0.1278 H       1  UNL1        0.0629
     30 H           1.5003   -1.9572   -0.0791 H       1  UNL1        0.0625
@<TRIPOS>BOND
     1     1     2    1
     2     2     3   ar
     3     3     4   ar
     4     4     5   ar
     5     5     6   ar
     6     6     7   ar
     7     7     8    2
     8     7     9   ar
     9     9    10   ar
    10    10    11    1
    11    11    12   ar
    12    12    13   ar
    13    13    14   ar
    14    14    15    1
    15    14    16   ar
    16    16    17   ar
    17    10    18   ar
    18    18    19   ar
    19    19     2   ar
    20    19     6   ar
    21    17    11   ar
    22     1    20    1
    23     1    21    1
    24     1    22    1
    25     3    23    1
    26     4    24    1
    27     5    25    1
    28     9    26    1
    29    12    27    1
    30    13    28    1
    31    16    29    1
    32    17    30    1
