@<TRIPOS>MOLECULE
*****
 49 51 0 0 0
SMALL
GASTEIGER

@<TRIPOS>ATOM
      1 C           7.3509   -1.2859   -0.0386 C.3     1  UNL1        0.0788
      2 O           6.3843   -0.3362    0.3593 O.3     1  UNL1       -0.4951
      3 C           5.0610   -0.6962    0.6295 C.ar    1  UNL1        0.1204
      4 C           4.6867   -2.0336    0.5017 C.ar    1  UNL1       -0.0199
      5 C           3.3924   -2.4136    0.7614 C.ar    1  UNL1       -0.0580
      6 C           2.4419   -1.4671    1.1547 C.ar    1  UNL1       -0.0568
      7 C           2.7924   -0.1436    1.2861 C.ar    1  UNL1       -0.0266
      8 C           1.8372    0.9121    1.6963 C.3     1  UNL1        0.0414
      9 N           1.1645    1.5498    0.5886 N.am    1  UNL1       -0.2789
     10 C           1.7709    2.6916   -0.1097 C.3     1  UNL1        0.0397
     11 C           1.3469    3.9975    0.5447 C.3     1  UNL1        0.0600
     12 O           1.9714    5.0160   -0.1866 O.3     1  UNL1       -0.3935
     13 C          -0.0939    1.1063    0.1344 C.2     1  UNL1        0.3068
     14 O          -0.6270    1.6945   -0.8603 O.2     1  UNL1       -0.2523
     15 N          -0.8485    0.0417    0.6898 N.am    1  UNL1       -0.2693
     16 C          -2.1333   -0.3368    0.1458 C.ar    1  UNL1        0.0348
     17 C          -3.2686    0.2655    0.6422 C.ar    1  UNL1       -0.0399
     18 C          -4.4919   -0.0857    0.1344 C.ar    1  UNL1       -0.0522
     19 C          -4.6567   -1.0221   -0.8610 C.ar    1  UNL1       -0.0148
     20 C          -5.9660   -1.3825   -1.3885 C.ar    1  UNL1        0.0193
     21 C          -6.4120   -2.5861   -1.8996 C.ar    1  UNL1        0.0568
     22 N          -7.7132   -2.4310   -2.2666 N.ar    1  UNL1       -0.1817
     23 N          -8.0866   -1.1713   -1.9993 N.ar    1  UNL1       -0.2841
     24 C          -7.0392   -0.5227   -1.4668 C.ar    1  UNL1        0.0300
     25 C          -3.4996   -1.6193   -1.3497 C.ar    1  UNL1       -0.0522
     26 C          -2.2604   -1.2660   -0.8378 C.ar    1  UNL1       -0.0399
     27 C           4.1046    0.1833    1.0132 C.ar    1  UNL1       -0.0153
     28 H           8.2291   -0.7258   -0.4704 H       1  UNL1        0.0660
     29 H           6.9916   -1.9434   -0.8614 H       1  UNL1        0.0660
     30 H           7.7368   -1.8829    0.8275 H       1  UNL1        0.0660
     31 H           5.4430   -2.7446    0.1958 H       1  UNL1        0.0654
     32 H           3.1387   -3.4523    0.6528 H       1  UNL1        0.0619
     33 H           1.4536   -1.8418    1.3410 H       1  UNL1        0.0621
     34 H           1.1095    0.4810    2.4148 H       1  UNL1        0.0514
     35 H           2.4049    1.6661    2.3152 H       1  UNL1        0.0514
     36 H           1.4132    2.7505   -1.1629 H       1  UNL1        0.0488
     37 H           2.8743    2.5933   -0.1631 H       1  UNL1        0.0488
     38 H           1.6914    4.0876    1.5784 H       1  UNL1        0.0573
     39 H           0.2586    4.0768    0.4054 H       1  UNL1        0.0573
     40 H           1.6011    5.9087    0.0279 H       1  UNL1        0.2095
     41 H          -0.4436   -0.4525    1.5078 H       1  UNL1        0.1564
     42 H          -3.2098    1.0213    1.4372 H       1  UNL1        0.0636
     43 H          -5.4091    0.3748    0.5082 H       1  UNL1        0.0624
     44 H          -5.8122   -3.4782   -1.9819 H       1  UNL1        0.0854
     45 H          -9.0521   -0.8381   -2.2048 H       1  UNL1        0.1882
     46 H          -7.0627    0.5116   -1.1573 H       1  UNL1        0.0830
     47 H          -3.6068   -2.3453   -2.1190 H       1  UNL1        0.0624
     48 H          -1.3517   -1.7363   -1.2229 H       1  UNL1        0.0636
     49 H           4.3939    1.2307    1.1143 H       1  UNL1        0.0657
@<TRIPOS>BOND
     1     1     2    1
     2     2     3    1
     3     3     4   ar
     4     4     5   ar
     5     5     6   ar
     6     6     7   ar
     7     7     8    1
     8     8     9    1
     9     9    10    1
    10    10    11    1
    11    11    12    1
    12     9    13   am
    13    13    14    2
    14    13    15   am
    15    15    16    1
    16    16    17   ar
    17    17    18   ar
    18    18    19   ar
    19    19    20    1
    20    20    21   ar
    21    21    22   ar
    22    22    23   ar
    23    23    24   ar
    24    19    25   ar
    25    25    26   ar
    26     7    27   ar
    27    27     3   ar
    28    26    16   ar
    29    24    20   ar
    30     1    28    1
    31     1    29    1
    32     1    30    1
    33     4    31    1
    34     5    32    1
    35     6    33    1
    36     8    34    1
    37     8    35    1
    38    10    36    1
    39    10    37    1
    40    11    38    1
    41    11    39    1
    42    12    40    1
    43    15    41    1
    44    17    42    1
    45    18    43    1
    46    21    44    1
    47    23    45    1
    48    24    46    1
    49    25    47    1
    50    26    48    1
    51    27    49    1
