
     RDKit          3D

 49 51  0  0  0  0  0  0  0  0999 V2000
    7.3509   -1.2859   -0.0386 C   0  0  0  0  0  0  0  0  0  0  0  0
    6.3843   -0.3362    0.3593 O   0  0  0  0  0  0  0  0  0  0  0  0
    5.0610   -0.6962    0.6295 C   0  0  0  0  0  0  0  0  0  0  0  0
    4.6867   -2.0336    0.5017 C   0  0  0  0  0  0  0  0  0  0  0  0
    3.3924   -2.4136    0.7614 C   0  0  0  0  0  0  0  0  0  0  0  0
    2.4419   -1.4671    1.1547 C   0  0  0  0  0  0  0  0  0  0  0  0
    2.7924   -0.1436    1.2861 C   0  0  0  0  0  0  0  0  0  0  0  0
    1.8372    0.9121    1.6963 C   0  0  0  0  0  0  0  0  0  0  0  0
    1.1645    1.5498    0.5886 N   0  0  0  0  0  0  0  0  0  0  0  0
    1.7709    2.6916   -0.1097 C   0  0  0  0  0  0  0  0  0  0  0  0
    1.3469    3.9975    0.5447 C   0  0  0  0  0  0  0  0  0  0  0  0
    1.9714    5.0160   -0.1866 O   0  0  0  0  0  0  0  0  0  0  0  0
   -0.0939    1.1063    0.1344 C   0  0  0  0  0  0  0  0  0  0  0  0
   -0.6270    1.6945   -0.8603 O   0  0  0  0  0  0  0  0  0  0  0  0
   -0.8485    0.0417    0.6898 N   0  0  0  0  0  0  0  0  0  0  0  0
   -2.1333   -0.3368    0.1458 C   0  0  0  0  0  0  0  0  0  0  0  0
   -3.2686    0.2655    0.6422 C   0  0  0  0  0  0  0  0  0  0  0  0
   -4.4919   -0.0857    0.1344 C   0  0  0  0  0  0  0  0  0  0  0  0
   -4.6567   -1.0221   -0.8610 C   0  0  0  0  0  0  0  0  0  0  0  0
   -5.9660   -1.3825   -1.3885 C   0  0  0  0  0  0  0  0  0  0  0  0
   -6.4120   -2.5861   -1.8996 C   0  0  0  0  0  0  0  0  0  0  0  0
   -7.7132   -2.4310   -2.2666 N   0  0  0  0  0  0  0  0  0  0  0  0
   -8.0866   -1.1713   -1.9993 N   0  0  0  0  0  0  0  0  0  0  0  0
   -7.0392   -0.5227   -1.4668 C   0  0  0  0  0  0  0  0  0  0  0  0
   -3.4996   -1.6193   -1.3497 C   0  0  0  0  0  0  0  0  0  0  0  0
   -2.2604   -1.2660   -0.8378 C   0  0  0  0  0  0  0  0  0  0  0  0
    4.1046    0.1833    1.0132 C   0  0  0  0  0  0  0  0  0  0  0  0
    8.2291   -0.7258   -0.4704 H   0  0  0  0  0  0  0  0  0  0  0  0
    6.9916   -1.9434   -0.8614 H   0  0  0  0  0  0  0  0  0  0  0  0
    7.7368   -1.8829    0.8275 H   0  0  0  0  0  0  0  0  0  0  0  0
    5.4430   -2.7446    0.1958 H   0  0  0  0  0  0  0  0  0  0  0  0
    3.1387   -3.4523    0.6528 H   0  0  0  0  0  0  0  0  0  0  0  0
    1.4536   -1.8418    1.3410 H   0  0  0  0  0  0  0  0  0  0  0  0
    1.1095    0.4810    2.4148 H   0  0  0  0  0  0  0  0  0  0  0  0
    2.4049    1.6661    2.3152 H   0  0  0  0  0  0  0  0  0  0  0  0
    1.4132    2.7505   -1.1629 H   0  0  0  0  0  0  0  0  0  0  0  0
    2.8743    2.5933   -0.1631 H   0  0  0  0  0  0  0  0  0  0  0  0
    1.6914    4.0876    1.5784 H   0  0  0  0  0  0  0  0  0  0  0  0
    0.2586    4.0768    0.4054 H   0  0  0  0  0  0  0  0  0  0  0  0
    1.6011    5.9087    0.0279 H   0  0  0  0  0  0  0  0  0  0  0  0
   -0.4436   -0.4525    1.5078 H   0  0  0  0  0  0  0  0  0  0  0  0
   -3.2098    1.0213    1.4372 H   0  0  0  0  0  0  0  0  0  0  0  0
   -5.4091    0.3748    0.5082 H   0  0  0  0  0  0  0  0  0  0  0  0
   -5.8122   -3.4782   -1.9819 H   0  0  0  0  0  0  0  0  0  0  0  0
   -9.0521   -0.8381   -2.2048 H   0  0  0  0  0  0  0  0  0  0  0  0
   -7.0627    0.5116   -1.1573 H   0  0  0  0  0  0  0  0  0  0  0  0
   -3.6068   -2.3453   -2.1190 H   0  0  0  0  0  0  0  0  0  0  0  0
   -1.3517   -1.7363   -1.2229 H   0  0  0  0  0  0  0  0  0  0  0  0
    4.3939    1.2307    1.1143 H   0  0  0  0  0  0  0  0  0  0  0  0
  1  2  1  0
  2  3  1  0
  3  4  2  0
  4  5  1  0
  5  6  2  0
  6  7  1  0
  7  8  1  0
  8  9  1  0
  9 10  1  0
 10 11  1  0
 11 12  1  0
  9 13  1  0
 13 14  2  0
 13 15  1  0
 15 16  1  0
 16 17  2  0
 17 18  1  0
 18 19  2  0
 19 20  1  0
 20 21  1  0
 21 22  2  0
 22 23  1  0
 23 24  1  0
 19 25  1  0
 25 26  2  0
  7 27  2  0
 27  3  1  0
 26 16  1  0
 24 20  2  0
  1 28  1  0
  1 29  1  0
  1 30  1  0
  4 31  1  0
  5 32  1  0
  6 33  1  0
  8 34  1  0
  8 35  1  0
 10 36  1  0
 10 37  1  0
 11 38  1  0
 11 39  1  0
 12 40  1  0
 15 41  1  0
 17 42  1  0
 18 43  1  0
 21 44  1  0
 23 45  1  0
 24 46  1  0
 25 47  1  0
 26 48  1  0
 27 49  1  0
M  END
$$$$
