@<TRIPOS>MOLECULE
*****
 50 52 0 0 0
SMALL
GASTEIGER

@<TRIPOS>ATOM
      1 C           6.9664    0.1784   -0.8041 C.3     1  UNL1       -0.0652
      2 C           5.7045   -0.5326   -1.1560 C.3     1  UNL1       -0.0545
      3 C           5.1522   -1.2966    0.0072 C.3     1  UNL1       -0.0370
      4 C           4.7599   -0.4250    1.1429 C.3     1  UNL1        0.0203
      5 N           3.6948    0.5274    0.8312 N.am    1  UNL1       -0.2627
      6 C           3.8589    1.8502    0.3470 C.2     1  UNL1        0.2913
      7 O           4.9375    2.4609    0.1024 O.2     1  UNL1       -0.2661
      8 C           2.5454    2.4508    0.1581 C.2     1  UNL1        0.2496
      9 O           2.2618    3.5926   -0.2509 O.2     1  UNL1       -0.2817
     10 C           1.5811    1.4387    0.5481 C.ar    1  UNL1        0.0516
     11 C           0.1825    1.4674    0.5705 C.ar    1  UNL1       -0.0225
     12 C          -0.5405    0.3876    0.9810 C.ar    1  UNL1        0.1077
     13 S          -2.2784    0.4781    0.9887 S.O2    1  UNL1        0.0612
     14 O          -2.7841   -0.3410    2.1361 O.2     1  UNL1       -0.1528
     15 O          -2.6652    1.9122    1.2160 O.2     1  UNL1       -0.1528
     16 N          -2.8362   -0.0464   -0.5230 N.3     1  UNL1       -0.1713
     17 C          -2.4854   -1.3985   -0.8189 C.3     1  UNL1        0.0209
     18 C          -3.5835   -2.2247   -0.2106 C.3     1  UNL1       -0.0370
     19 C          -4.7959   -1.3277   -0.3092 C.3     1  UNL1       -0.0323
     20 C          -4.2497    0.0087   -0.7358 C.3     1  UNL1        0.0552
     21 C          -4.9518    1.1600   -0.1147 C.3     1  UNL1        0.0645
     22 O          -6.3062    1.0928   -0.3902 O.3     1  UNL1       -0.3814
     23 C          -6.6555    1.1225   -1.7102 C.3     1  UNL1        0.0365
     24 C           0.1118   -0.7434    1.3779 C.ar    1  UNL1       -0.0151
     25 C           1.5124   -0.7596    1.3508 C.ar    1  UNL1        0.0649
     26 CL          2.3303   -2.2254    1.8714 Cl      1  UNL1       -0.0815
     27 C           2.2667    0.3177    0.9403 C.ar    1  UNL1        0.0661
     28 H           7.8141   -0.3768   -1.2889 H       1  UNL1        0.0230
     29 H           6.9317    1.2095   -1.2688 H       1  UNL1        0.0230
     30 H           7.1813    0.2470    0.2732 H       1  UNL1        0.0230
     31 H           5.8838   -1.2703   -1.9880 H       1  UNL1        0.0263
     32 H           4.8997    0.1744   -1.4755 H       1  UNL1        0.0263
     33 H           4.2794   -1.9121   -0.3272 H       1  UNL1        0.0280
     34 H           5.9504   -1.9965    0.3667 H       1  UNL1        0.0280
     35 H           5.6240    0.2001    1.4849 H       1  UNL1        0.0469
     36 H           4.4812   -1.0246    2.0386 H       1  UNL1        0.0469
     37 H          -0.3096    2.3679    0.2539 H       1  UNL1        0.0645
     38 H          -2.4893   -1.5332   -1.9165 H       1  UNL1        0.0444
     39 H          -1.4800   -1.6883   -0.4502 H       1  UNL1        0.0444
     40 H          -3.3802   -2.4809    0.8433 H       1  UNL1        0.0279
     41 H          -3.7311   -3.1929   -0.7448 H       1  UNL1        0.0279
     42 H          -5.3292   -1.2172    0.6377 H       1  UNL1        0.0282
     43 H          -5.5167   -1.6952   -1.0808 H       1  UNL1        0.0282
     44 H          -4.3760    0.0884   -1.8582 H       1  UNL1        0.0502
     45 H          -4.5773    2.1072   -0.5222 H       1  UNL1        0.0576
     46 H          -4.8103    1.0879    0.9872 H       1  UNL1        0.0576
     47 H          -6.3036    2.0467   -2.2249 H       1  UNL1        0.0523
     48 H          -7.7708    1.1261   -1.8023 H       1  UNL1        0.0523
     49 H          -6.3146    0.2498   -2.2723 H       1  UNL1        0.0523
     50 H          -0.3906   -1.6420    1.7172 H       1  UNL1        0.0652
@<TRIPOS>BOND
     1     1     2    1
     2     2     3    1
     3     3     4    1
     4     4     5    1
     5     5     6   am
     6     6     7    2
     7     6     8    1
     8     8     9    2
     9     8    10    1
    10    10    11   ar
    11    11    12   ar
    12    12    13    1
    13    13    14    2
    14    13    15    2
    15    13    16    1
    16    16    17    1
    17    17    18    1
    18    18    19    1
    19    19    20    1
    20    20    21    1
    21    21    22    1
    22    22    23    1
    23    12    24   ar
    24    24    25   ar
    25    25    26    1
    26    25    27   ar
    27    27     5    1
    28    27    10   ar
    29    20    16    1
    30     1    28    1
    31     1    29    1
    32     1    30    1
    33     2    31    1
    34     2    32    1
    35     3    33    1
    36     3    34    1
    37     4    35    1
    38     4    36    1
    39    11    37    1
    40    17    38    1
    41    17    39    1
    42    18    40    1
    43    18    41    1
    44    19    42    1
    45    19    43    1
    46    20    44    1
    47    21    45    1
    48    21    46    1
    49    23    47    1
    50    23    48    1
    51    23    49    1
    52    24    50    1
