
     RDKit          3D

 50 52  0  0  0  0  0  0  0  0999 V2000
    6.9664    0.1784   -0.8041 C   0  0  0  0  0  0  0  0  0  0  0  0
    5.7045   -0.5326   -1.1560 C   0  0  0  0  0  0  0  0  0  0  0  0
    5.1522   -1.2966    0.0072 C   0  0  0  0  0  0  0  0  0  0  0  0
    4.7599   -0.4250    1.1429 C   0  0  0  0  0  0  0  0  0  0  0  0
    3.6948    0.5274    0.8312 N   0  0  0  0  0  0  0  0  0  0  0  0
    3.8589    1.8502    0.3470 C   0  0  0  0  0  0  0  0  0  0  0  0
    4.9375    2.4609    0.1024 O   0  0  0  0  0  0  0  0  0  0  0  0
    2.5454    2.4508    0.1581 C   0  0  0  0  0  0  0  0  0  0  0  0
    2.2618    3.5926   -0.2509 O   0  0  0  0  0  0  0  0  0  0  0  0
    1.5811    1.4387    0.5481 C   0  0  0  0  0  0  0  0  0  0  0  0
    0.1825    1.4674    0.5705 C   0  0  0  0  0  0  0  0  0  0  0  0
   -0.5405    0.3876    0.9810 C   0  0  0  0  0  0  0  0  0  0  0  0
   -2.2784    0.4781    0.9887 S   0  0  0  0  0  6  0  0  0  0  0  0
   -2.7841   -0.3410    2.1361 O   0  0  0  0  0  0  0  0  0  0  0  0
   -2.6652    1.9122    1.2160 O   0  0  0  0  0  0  0  0  0  0  0  0
   -2.8362   -0.0464   -0.5230 N   0  0  0  0  0  0  0  0  0  0  0  0
   -2.4854   -1.3985   -0.8189 C   0  0  0  0  0  0  0  0  0  0  0  0
   -3.5835   -2.2247   -0.2106 C   0  0  0  0  0  0  0  0  0  0  0  0
   -4.7959   -1.3277   -0.3092 C   0  0  0  0  0  0  0  0  0  0  0  0
   -4.2497    0.0087   -0.7358 C   0  0  1  0  0  0  0  0  0  0  0  0
   -4.9518    1.1600   -0.1147 C   0  0  0  0  0  0  0  0  0  0  0  0
   -6.3062    1.0928   -0.3902 O   0  0  0  0  0  0  0  0  0  0  0  0
   -6.6555    1.1225   -1.7102 C   0  0  0  0  0  0  0  0  0  0  0  0
    0.1118   -0.7434    1.3779 C   0  0  0  0  0  0  0  0  0  0  0  0
    1.5124   -0.7596    1.3508 C   0  0  0  0  0  0  0  0  0  0  0  0
    2.3303   -2.2254    1.8714 Cl  0  0  0  0  0  0  0  0  0  0  0  0
    2.2667    0.3177    0.9403 C   0  0  0  0  0  0  0  0  0  0  0  0
    7.8141   -0.3768   -1.2889 H   0  0  0  0  0  0  0  0  0  0  0  0
    6.9317    1.2095   -1.2688 H   0  0  0  0  0  0  0  0  0  0  0  0
    7.1813    0.2470    0.2732 H   0  0  0  0  0  0  0  0  0  0  0  0
    5.8838   -1.2703   -1.9880 H   0  0  0  0  0  0  0  0  0  0  0  0
    4.8997    0.1744   -1.4755 H   0  0  0  0  0  0  0  0  0  0  0  0
    4.2794   -1.9121   -0.3272 H   0  0  0  0  0  0  0  0  0  0  0  0
    5.9504   -1.9965    0.3667 H   0  0  0  0  0  0  0  0  0  0  0  0
    5.6240    0.2001    1.4849 H   0  0  0  0  0  0  0  0  0  0  0  0
    4.4812   -1.0246    2.0386 H   0  0  0  0  0  0  0  0  0  0  0  0
   -0.3096    2.3679    0.2539 H   0  0  0  0  0  0  0  0  0  0  0  0
   -2.4893   -1.5332   -1.9165 H   0  0  0  0  0  0  0  0  0  0  0  0
   -1.4800   -1.6883   -0.4502 H   0  0  0  0  0  0  0  0  0  0  0  0
   -3.3802   -2.4809    0.8433 H   0  0  0  0  0  0  0  0  0  0  0  0
   -3.7311   -3.1929   -0.7448 H   0  0  0  0  0  0  0  0  0  0  0  0
   -5.3292   -1.2172    0.6377 H   0  0  0  0  0  0  0  0  0  0  0  0
   -5.5167   -1.6952   -1.0808 H   0  0  0  0  0  0  0  0  0  0  0  0
   -4.3760    0.0884   -1.8582 H   0  0  0  0  0  0  0  0  0  0  0  0
   -4.5773    2.1072   -0.5222 H   0  0  0  0  0  0  0  0  0  0  0  0
   -4.8103    1.0879    0.9872 H   0  0  0  0  0  0  0  0  0  0  0  0
   -6.3036    2.0467   -2.2249 H   0  0  0  0  0  0  0  0  0  0  0  0
   -7.7708    1.1261   -1.8023 H   0  0  0  0  0  0  0  0  0  0  0  0
   -6.3146    0.2498   -2.2723 H   0  0  0  0  0  0  0  0  0  0  0  0
   -0.3906   -1.6420    1.7172 H   0  0  0  0  0  0  0  0  0  0  0  0
  1  2  1  0
  2  3  1  0
  3  4  1  0
  4  5  1  0
  5  6  1  0
  6  7  2  0
  6  8  1  0
  8  9  2  0
  8 10  1  0
 10 11  2  0
 11 12  1  0
 12 13  1  0
 13 14  2  0
 13 15  2  0
 13 16  1  0
 16 17  1  0
 17 18  1  0
 18 19  1  0
 19 20  1  0
 20 21  1  0
 21 22  1  0
 22 23  1  0
 12 24  2  0
 24 25  1  0
 25 26  1  0
 25 27  2  0
 27  5  1  0
 27 10  1  0
 20 16  1  0
  1 28  1  0
  1 29  1  0
  1 30  1  0
  2 31  1  0
  2 32  1  0
  3 33  1  0
  3 34  1  0
  4 35  1  0
  4 36  1  0
 11 37  1  0
 17 38  1  0
 17 39  1  0
 18 40  1  0
 18 41  1  0
 19 42  1  0
 19 43  1  0
 20 44  1  6
 21 45  1  0
 21 46  1  0
 23 47  1  0
 23 48  1  0
 23 49  1  0
 24 50  1  0
M  END
$$$$
