@<TRIPOS>MOLECULE
*****
 34 36 0 0 0
SMALL
GASTEIGER

@<TRIPOS>ATOM
      1 C          -0.7532   -2.6514    0.1422 C.3     1  UNL1       -0.0388
      2 C          -0.1980   -1.3039   -0.1234 C.ar    1  UNL1       -0.0379
      3 C          -1.0079   -0.3345   -0.6493 C.ar    1  UNL1       -0.0242
      4 C          -2.4874   -0.4298   -0.7912 C.3     1  UNL1        0.0494
      5 N          -3.1877    0.6307   -0.0396 N.ar    1  UNL1       -0.3325
      6 C          -3.6076    0.6837    1.2149 C.ar    1  UNL1        0.0244
      7 C          -4.2391    1.9073    1.4283 C.ar    1  UNL1        0.0454
      8 N          -4.1738    2.5697    0.2691 N.ar    1  UNL1       -0.2441
      9 C          -3.5443    1.8182   -0.6258 C.ar    1  UNL1        0.0962
     10 C          -0.4650    0.8985   -0.9551 C.ar    1  UNL1       -0.0560
     11 C           0.8694    1.1179   -0.7191 C.ar    1  UNL1       -0.0529
     12 C           1.7158    0.1662   -0.1905 C.ar    1  UNL1       -0.0037
     13 C           3.0460    0.4427   -0.0080 C.ar    1  UNL1        0.0665
     14 C           3.6624    1.7174   -0.3077 C.2     1  UNL1        0.3374
     15 O           3.1793    2.7478   -0.7614 O.2     1  UNL1       -0.2451
     16 O           5.0577    1.8186   -0.0399 O.3     1  UNL1       -0.4771
     17 C           3.8018   -0.6025    0.5017 C.ar    1  UNL1       -0.0472
     18 C           3.2734   -1.8243    0.8021 C.ar    1  UNL1       -0.0604
     19 C           1.9219   -2.0851    0.6111 C.ar    1  UNL1       -0.0537
     20 C           1.1432   -1.0659    0.1063 C.ar    1  UNL1       -0.0139
     21 H          -0.0333   -3.4664   -0.1505 H       1  UNL1        0.0278
     22 H          -1.1228   -2.7195    1.1676 H       1  UNL1        0.0278
     23 H          -1.6407   -2.8879   -0.5142 H       1  UNL1        0.0278
     24 H          -2.8298   -0.4584   -1.8373 H       1  UNL1        0.0542
     25 H          -2.7944   -1.3780   -0.2395 H       1  UNL1        0.0542
     26 H          -3.5102   -0.0728    1.9980 H       1  UNL1        0.0825
     27 H          -4.7081    2.2588    2.3642 H       1  UNL1        0.0845
     28 H          -3.3470    2.0631   -1.6471 H       1  UNL1        0.1029
     29 H          -1.0539    1.7064   -1.3791 H       1  UNL1        0.0621
     30 H           1.2610    2.1075   -0.9475 H       1  UNL1        0.0624
     31 H           5.4711    2.7453    0.1885 H       1  UNL1        0.2954
     32 H           4.8703   -0.4037    0.6516 H       1  UNL1        0.0626
     33 H           3.8832   -2.6410    1.1919 H       1  UNL1        0.0618
     34 H           1.5476   -3.0747    0.8558 H       1  UNL1        0.0624
@<TRIPOS>BOND
     1     1     2    1
     2     2     3   ar
     3     3     4    1
     4     4     5    1
     5     5     6   ar
     6     6     7   ar
     7     7     8   ar
     8     8     9   ar
     9     3    10   ar
    10    10    11   ar
    11    11    12   ar
    12    12    13   ar
    13    13    14    1
    14    14    15    2
    15    14    16    1
    16    13    17   ar
    17    17    18   ar
    18    18    19   ar
    19    19    20   ar
    20    20     2   ar
    21     9     5   ar
    22    20    12   ar
    23     1    21    1
    24     1    22    1
    25     1    23    1
    26     4    24    1
    27     4    25    1
    28     6    26    1
    29     7    27    1
    30     9    28    1
    31    10    29    1
    32    11    30    1
    33    16    31    1
    34    17    32    1
    35    18    33    1
    36    19    34    1
