
     RDKit          3D

 34 36  0  0  0  0  0  0  0  0999 V2000
   -0.7532   -2.6514    0.1422 C   0  0  0  0  0  0  0  0  0  0  0  0
   -0.1980   -1.3039   -0.1234 C   0  0  0  0  0  0  0  0  0  0  0  0
   -1.0079   -0.3345   -0.6493 C   0  0  0  0  0  0  0  0  0  0  0  0
   -2.4874   -0.4298   -0.7912 C   0  0  0  0  0  0  0  0  0  0  0  0
   -3.1877    0.6307   -0.0396 N   0  0  0  0  0  0  0  0  0  0  0  0
   -3.6076    0.6837    1.2149 C   0  0  0  0  0  0  0  0  0  0  0  0
   -4.2391    1.9073    1.4283 C   0  0  0  0  0  0  0  0  0  0  0  0
   -4.1738    2.5697    0.2691 N   0  0  0  0  0  0  0  0  0  0  0  0
   -3.5443    1.8182   -0.6258 C   0  0  0  0  0  0  0  0  0  0  0  0
   -0.4650    0.8985   -0.9551 C   0  0  0  0  0  0  0  0  0  0  0  0
    0.8694    1.1179   -0.7191 C   0  0  0  0  0  0  0  0  0  0  0  0
    1.7158    0.1662   -0.1905 C   0  0  0  0  0  0  0  0  0  0  0  0
    3.0460    0.4427   -0.0080 C   0  0  0  0  0  0  0  0  0  0  0  0
    3.6624    1.7174   -0.3077 C   0  0  0  0  0  0  0  0  0  0  0  0
    3.1793    2.7478   -0.7614 O   0  0  0  0  0  0  0  0  0  0  0  0
    5.0577    1.8186   -0.0399 O   0  0  0  0  0  0  0  0  0  0  0  0
    3.8018   -0.6025    0.5017 C   0  0  0  0  0  0  0  0  0  0  0  0
    3.2734   -1.8243    0.8021 C   0  0  0  0  0  0  0  0  0  0  0  0
    1.9219   -2.0851    0.6111 C   0  0  0  0  0  0  0  0  0  0  0  0
    1.1432   -1.0659    0.1063 C   0  0  0  0  0  0  0  0  0  0  0  0
   -0.0333   -3.4664   -0.1505 H   0  0  0  0  0  0  0  0  0  0  0  0
   -1.1228   -2.7195    1.1676 H   0  0  0  0  0  0  0  0  0  0  0  0
   -1.6407   -2.8879   -0.5142 H   0  0  0  0  0  0  0  0  0  0  0  0
   -2.8298   -0.4584   -1.8373 H   0  0  0  0  0  0  0  0  0  0  0  0
   -2.7944   -1.3780   -0.2395 H   0  0  0  0  0  0  0  0  0  0  0  0
   -3.5102   -0.0728    1.9980 H   0  0  0  0  0  0  0  0  0  0  0  0
   -4.7081    2.2588    2.3642 H   0  0  0  0  0  0  0  0  0  0  0  0
   -3.3470    2.0631   -1.6471 H   0  0  0  0  0  0  0  0  0  0  0  0
   -1.0539    1.7064   -1.3791 H   0  0  0  0  0  0  0  0  0  0  0  0
    1.2610    2.1075   -0.9475 H   0  0  0  0  0  0  0  0  0  0  0  0
    5.4711    2.7453    0.1885 H   0  0  0  0  0  0  0  0  0  0  0  0
    4.8703   -0.4037    0.6516 H   0  0  0  0  0  0  0  0  0  0  0  0
    3.8832   -2.6410    1.1919 H   0  0  0  0  0  0  0  0  0  0  0  0
    1.5476   -3.0747    0.8558 H   0  0  0  0  0  0  0  0  0  0  0  0
  1  2  1  0
  2  3  2  0
  3  4  1  0
  4  5  1  0
  5  6  1  0
  6  7  2  0
  7  8  1  0
  8  9  2  0
  3 10  1  0
 10 11  2  0
 11 12  1  0
 12 13  2  0
 13 14  1  0
 14 15  2  0
 14 16  1  0
 13 17  1  0
 17 18  2  0
 18 19  1  0
 19 20  2  0
 20  2  1  0
  9  5  1  0
 20 12  1  0
  1 21  1  0
  1 22  1  0
  1 23  1  0
  4 24  1  0
  4 25  1  0
  6 26  1  0
  7 27  1  0
  9 28  1  0
 10 29  1  0
 11 30  1  0
 16 31  1  0
 17 32  1  0
 18 33  1  0
 19 34  1  0
M  END
$$$$
