
     RDKit          3D

 33 35  0  0  0  0  0  0  0  0999 V2000
   -5.8911    0.0247   -0.5188 C   0  0  0  0  0  0  0  0  0  0  0  0
   -4.5309   -0.3480   -0.6484 O   0  0  0  0  0  0  0  0  0  0  0  0
   -3.5238    0.3482    0.0055 C   0  0  0  0  0  0  0  0  0  0  0  0
   -3.6361    1.4416    0.8359 C   0  0  0  0  0  0  0  0  0  0  0  0
   -2.5133    2.0067    1.4021 C   0  0  0  0  0  0  0  0  0  0  0  0
   -1.2465    1.5213    1.1747 C   0  0  0  0  0  0  0  0  0  0  0  0
   -1.1235    0.4202    0.3396 C   0  0  0  0  0  0  0  0  0  0  0  0
   -2.2420   -0.1587   -0.2367 C   0  0  0  0  0  0  0  0  0  0  0  0
    0.1978   -0.1445    0.0574 C   0  0  0  0  0  0  0  0  0  0  0  0
    1.3637    0.3166    0.5483 N   0  0  0  0  0  0  0  0  0  0  0  0
    2.3856   -0.4510    0.0748 C   0  0  0  0  0  0  0  0  0  0  0  0
    1.8199   -1.4173   -0.7362 C   0  0  0  0  0  0  0  0  0  0  0  0
    0.4848   -1.2014   -0.7246 N   0  0  0  0  0  0  0  0  0  0  0  0
    2.6658   -2.3251   -1.3383 C   0  0  0  0  0  0  0  0  0  0  0  0
    4.0375   -2.3171   -1.1730 C   0  0  0  0  0  0  0  0  0  0  0  0
    4.6076   -1.3389   -0.3523 C   0  0  0  0  0  0  0  0  0  0  0  0
    3.7546   -0.4347    0.2462 C   0  0  0  0  0  0  0  0  0  0  0  0
    4.3792    0.5722    1.0954 C   0  0  0  0  0  0  0  0  0  0  0  0
    3.6684    1.5839    1.7932 N   0  0  0  0  0  0  0  0  0  0  0  0
    5.6070    0.6954    1.3330 O   0  0  0  0  0  0  0  0  0  0  0  0
   -6.0834    0.8376   -1.2778 H   0  0  0  0  0  0  0  0  0  0  0  0
   -6.5238   -0.8628   -0.7286 H   0  0  0  0  0  0  0  0  0  0  0  0
   -6.1055    0.4513    0.4816 H   0  0  0  0  0  0  0  0  0  0  0  0
   -4.6450    1.7843    0.9832 H   0  0  0  0  0  0  0  0  0  0  0  0
   -2.6403    2.8594    2.0451 H   0  0  0  0  0  0  0  0  0  0  0  0
   -0.3749    1.9816    1.6309 H   0  0  0  0  0  0  0  0  0  0  0  0
   -2.0672   -1.0293   -0.8880 H   0  0  0  0  0  0  0  0  0  0  0  0
   -0.1787   -1.7897   -1.2554 H   0  0  0  0  0  0  0  0  0  0  0  0
    2.1591   -3.0633   -1.9666 H   0  0  0  0  0  0  0  0  0  0  0  0
    4.6131   -3.0657   -1.6837 H   0  0  0  0  0  0  0  0  0  0  0  0
    5.6796   -1.3255   -0.2176 H   0  0  0  0  0  0  0  0  0  0  0  0
    2.9698    2.1290    1.2066 H   0  0  0  0  0  0  0  0  0  0  0  0
    2.9323    2.2990    1.5737 H   0  0  0  0  0  0  0  0  0  0  0  0
  1  2  1  0
  2  3  1  0
  3  4  2  0
  4  5  1  0
  5  6  2  0
  6  7  1  0
  7  8  2  0
  7  9  1  0
  9 10  2  0
 10 11  1  0
 11 12  2  0
 12 13  1  0
 12 14  1  0
 14 15  2  0
 15 16  1  0
 16 17  2  0
 17 18  1  0
 18 19  1  0
 18 20  2  0
  8  3  1  0
 13  9  1  0
 17 11  1  0
  1 21  1  0
  1 22  1  0
  1 23  1  0
  4 24  1  0
  5 25  1  0
  6 26  1  0
  8 27  1  0
 13 28  1  0
 14 29  1  0
 15 30  1  0
 16 31  1  0
 19 32  1  0
 19 33  1  0
M  END
$$$$
