
     RDKit          3D

 46 46  0  0  0  0  0  0  0  0999 V2000
   -2.9105   -1.9426    0.2702 C   0  0  0  0  0  0  0  0  0  0  0  0
   -2.5080   -1.5645   -1.1397 C   0  0  0  0  0  0  0  0  0  0  0  0
   -1.8745   -0.2648   -1.1474 N   0  0  0  0  0  0  0  0  0  0  0  0
   -2.6114    0.9381   -1.3598 C   0  0  0  0  0  0  0  0  0  0  0  0
   -3.1392    1.6316   -0.1619 C   0  0  0  0  0  0  0  0  0  0  0  0
   -4.0527    0.9086    0.6572 N   0  0  0  0  0  0  0  0  0  0  0  0
   -5.3338    0.6694    0.0016 C   0  0  0  0  0  0  0  0  0  0  0  0
   -4.3492    1.6284    1.8795 C   0  0  0  0  0  0  0  0  0  0  0  0
   -0.4684   -0.2148   -0.9539 C   0  0  0  0  0  0  0  0  0  0  0  0
    0.1046    0.9134   -0.9564 O   0  0  0  0  0  0  0  0  0  0  0  0
    0.2681   -1.4780   -0.7580 C   0  0  0  0  0  0  0  0  0  0  0  0
    1.6725   -1.2717   -0.5738 N   0  0  0  0  0  0  0  0  0  0  0  0
    2.0269   -0.6120    0.6676 C   0  0  0  0  0  0  0  0  0  0  0  0
    3.5107   -0.5670    0.6869 C   0  0  0  0  0  0  0  0  0  0  0  0
    4.1295    0.5213    0.1232 C   0  0  0  0  0  0  0  0  0  0  0  0
    5.5014    0.5753    0.1346 C   0  0  0  0  0  0  0  0  0  0  0  0
    6.2340    1.6918   -0.4452 C   0  0  0  0  0  0  0  0  0  0  0  0
    5.6086    2.6252   -0.9753 O   0  0  0  0  0  0  0  0  0  0  0  0
    7.6422    1.7103   -0.4041 O   0  0  0  0  0  0  0  0  0  0  0  0
    6.1798   -0.4928    0.7254 C   0  0  0  0  0  0  0  0  0  0  0  0
    5.5194   -1.5646    1.2789 C   0  0  0  0  0  0  0  0  0  0  0  0
    4.1795   -1.5880    1.2522 N   0  0  0  0  0  0  0  0  0  0  0  0
   -2.3970   -1.2962    1.0226 H   0  0  0  0  0  0  0  0  0  0  0  0
   -4.0013   -1.8653    0.4221 H   0  0  0  0  0  0  0  0  0  0  0  0
   -2.5622   -2.9862    0.5269 H   0  0  0  0  0  0  0  0  0  0  0  0
   -3.3765   -1.6051   -1.8349 H   0  0  0  0  0  0  0  0  0  0  0  0
   -1.8388   -2.3843   -1.5023 H   0  0  0  0  0  0  0  0  0  0  0  0
   -3.4151    0.7764   -2.1391 H   0  0  0  0  0  0  0  0  0  0  0  0
   -1.9164    1.6787   -1.8628 H   0  0  0  0  0  0  0  0  0  0  0  0
   -2.3141    2.0331    0.4622 H   0  0  0  0  0  0  0  0  0  0  0  0
   -3.6903    2.5427   -0.5334 H   0  0  0  0  0  0  0  0  0  0  0  0
   -5.9205   -0.0045    0.6829 H   0  0  0  0  0  0  0  0  0  0  0  0
   -5.8710    1.6011   -0.1755 H   0  0  0  0  0  0  0  0  0  0  0  0
   -5.2100    0.0569   -0.9299 H   0  0  0  0  0  0  0  0  0  0  0  0
   -5.3308    2.1561    1.8150 H   0  0  0  0  0  0  0  0  0  0  0  0
   -3.5499    2.3363    2.1207 H   0  0  0  0  0  0  0  0  0  0  0  0
   -4.4113    0.8961    2.7140 H   0  0  0  0  0  0  0  0  0  0  0  0
   -0.1025   -2.0620    0.1243 H   0  0  0  0  0  0  0  0  0  0  0  0
    0.1669   -2.1681   -1.6275 H   0  0  0  0  0  0  0  0  0  0  0  0
    2.1194   -2.2340   -0.5139 H   0  0  0  0  0  0  0  0  0  0  0  0
    1.6349   -1.2240    1.5100 H   0  0  0  0  0  0  0  0  0  0  0  0
    1.6613    0.4302    0.7044 H   0  0  0  0  0  0  0  0  0  0  0  0
    3.5896    1.3537   -0.3376 H   0  0  0  0  0  0  0  0  0  0  0  0
    8.1048    2.6035   -0.2629 H   0  0  0  0  0  0  0  0  0  0  0  0
    7.2666   -0.4840    0.7513 H   0  0  0  0  0  0  0  0  0  0  0  0
    6.0346   -2.4036    1.7417 H   0  0  0  0  0  0  0  0  0  0  0  0
  1  2  1  0
  2  3  1  0
  3  4  1  0
  4  5  1  0
  5  6  1  0
  6  7  1  0
  6  8  1  0
  3  9  1  0
  9 10  2  0
  9 11  1  0
 11 12  1  0
 12 13  1  0
 13 14  1  0
 14 15  2  0
 15 16  1  0
 16 17  1  0
 17 18  2  0
 17 19  1  0
 16 20  2  0
 20 21  1  0
 21 22  2  0
 22 14  1  0
  1 23  1  0
  1 24  1  0
  1 25  1  0
  2 26  1  0
  2 27  1  0
  4 28  1  0
  4 29  1  0
  5 30  1  0
  5 31  1  0
  7 32  1  0
  7 33  1  0
  7 34  1  0
  8 35  1  0
  8 36  1  0
  8 37  1  0
 11 38  1  0
 11 39  1  0
 12 40  1  0
 13 41  1  0
 13 42  1  0
 15 43  1  0
 19 44  1  0
 20 45  1  0
 21 46  1  0
M  END
$$$$
