@<TRIPOS>MOLECULE
*****
 46 46 0 0 0
SMALL
GASTEIGER

@<TRIPOS>ATOM
      1 C          -2.9105   -1.9426    0.2702 C.3     1  UNL1       -0.0493
      2 C          -2.5080   -1.5645   -1.1397 C.3     1  UNL1        0.0119
      3 N          -1.8745   -0.2648   -1.1474 N.am    1  UNL1       -0.2995
      4 C          -2.6114    0.9381   -1.3598 C.3     1  UNL1        0.0274
      5 C          -3.1392    1.6316   -0.1619 C.3     1  UNL1        0.0141
      6 N          -4.0527    0.9086    0.6572 N.3     1  UNL1       -0.3069
      7 C          -5.3338    0.6694    0.0016 C.3     1  UNL1       -0.0130
      8 C          -4.3492    1.6284    1.8795 C.3     1  UNL1       -0.0130
      9 C          -0.4684   -0.2148   -0.9539 C.2     1  UNL1        0.2295
     10 O           0.1046    0.9134   -0.9564 O.2     1  UNL1       -0.2742
     11 C           0.2681   -1.4780   -0.7580 C.3     1  UNL1        0.0737
     12 N           1.6725   -1.2717   -0.5738 N.3     1  UNL1       -0.3027
     13 C           2.0269   -0.6120    0.6676 C.3     1  UNL1        0.0389
     14 C           3.5107   -0.5670    0.6869 C.ar    1  UNL1        0.0558
     15 C           4.1295    0.5213    0.1232 C.ar    1  UNL1       -0.0252
     16 C           5.5014    0.5753    0.1346 C.ar    1  UNL1        0.0620
     17 C           6.2340    1.6918   -0.4452 C.2     1  UNL1        0.3369
     18 O           5.6086    2.6252   -0.9753 O.2     1  UNL1       -0.2451
     19 O           7.6422    1.7103   -0.4041 O.3     1  UNL1       -0.4771
     20 C           6.1798   -0.4928    0.7254 C.ar    1  UNL1       -0.0296
     21 C           5.5194   -1.5646    1.2789 C.ar    1  UNL1        0.0287
     22 N           4.1795   -1.5880    1.2522 N.ar    1  UNL1       -0.2586
     23 H          -2.3970   -1.2962    1.0226 H       1  UNL1        0.0245
     24 H          -4.0013   -1.8653    0.4221 H       1  UNL1        0.0245
     25 H          -2.5622   -2.9862    0.5269 H       1  UNL1        0.0245
     26 H          -3.3765   -1.6051   -1.8349 H       1  UNL1        0.0462
     27 H          -1.8388   -2.3843   -1.5023 H       1  UNL1        0.0462
     28 H          -3.4151    0.7764   -2.1391 H       1  UNL1        0.0477
     29 H          -1.9164    1.6787   -1.8628 H       1  UNL1        0.0477
     30 H          -2.3141    2.0331    0.4622 H       1  UNL1        0.0442
     31 H          -3.6903    2.5427   -0.5334 H       1  UNL1        0.0442
     32 H          -5.9205   -0.0045    0.6829 H       1  UNL1        0.0391
     33 H          -5.8710    1.6011   -0.1755 H       1  UNL1        0.0391
     34 H          -5.2100    0.0569   -0.9299 H       1  UNL1        0.0391
     35 H          -5.3308    2.1561    1.8150 H       1  UNL1        0.0391
     36 H          -3.5499    2.3363    2.1207 H       1  UNL1        0.0391
     37 H          -4.4113    0.8961    2.7140 H       1  UNL1        0.0391
     38 H          -0.1025   -2.0620    0.1243 H       1  UNL1        0.0520
     39 H           0.1669   -2.1681   -1.6275 H       1  UNL1        0.0520
     40 H           2.1194   -2.2340   -0.5139 H       1  UNL1        0.1228
     41 H           1.6349   -1.2240    1.5100 H       1  UNL1        0.0489
     42 H           1.6613    0.4302    0.7044 H       1  UNL1        0.0489
     43 H           3.5896    1.3537   -0.3376 H       1  UNL1        0.0644
     44 H           8.1048    2.6035   -0.2629 H       1  UNL1        0.2954
     45 H           7.2666   -0.4840    0.7513 H       1  UNL1        0.0641
     46 H           6.0346   -2.4036    1.7417 H       1  UNL1        0.0830
@<TRIPOS>BOND
     1     1     2    1
     2     2     3    1
     3     3     4    1
     4     4     5    1
     5     5     6    1
     6     6     7    1
     7     6     8    1
     8     3     9   am
     9     9    10    2
    10     9    11    1
    11    11    12    1
    12    12    13    1
    13    13    14    1
    14    14    15   ar
    15    15    16   ar
    16    16    17    1
    17    17    18    2
    18    17    19    1
    19    16    20   ar
    20    20    21   ar
    21    21    22   ar
    22    22    14   ar
    23     1    23    1
    24     1    24    1
    25     1    25    1
    26     2    26    1
    27     2    27    1
    28     4    28    1
    29     4    29    1
    30     5    30    1
    31     5    31    1
    32     7    32    1
    33     7    33    1
    34     7    34    1
    35     8    35    1
    36     8    36    1
    37     8    37    1
    38    11    38    1
    39    11    39    1
    40    12    40    1
    41    13    41    1
    42    13    42    1
    43    15    43    1
    44    19    44    1
    45    20    45    1
    46    21    46    1
