@<TRIPOS>MOLECULE
*****
 60 65 0 0 0
SMALL
GASTEIGER

@<TRIPOS>ATOM
      1 C          -3.7108   -1.0979    2.4508 C.3     1  UNL1       -0.0377
      2 C          -3.4005   -1.9704    1.2992 C.ar    1  UNL1       -0.0265
      3 C          -3.7623   -3.2936    1.3713 C.ar    1  UNL1       -0.0569
      4 C          -3.5285   -4.1993    0.3458 C.ar    1  UNL1       -0.0614
      5 C          -2.8990   -3.6963   -0.7797 C.ar    1  UNL1       -0.0598
      6 C          -2.5193   -2.3795   -0.8950 C.ar    1  UNL1       -0.0374
      7 C          -2.7757   -1.5127    0.1598 C.ar    1  UNL1        0.0541
      8 N          -2.4303   -0.1469    0.1244 N.ar    1  UNL1       -0.2626
      9 C          -1.3963    0.3370    0.8162 C.ar    1  UNL1        0.1391
     10 C          -0.5148   -0.5548    1.6275 C.3     1  UNL1        0.1021
     11 N           0.8245   -0.6801    1.0286 N.ar    1  UNL1       -0.2383
     12 N           1.8460    0.1464    1.2724 N.ar    1  UNL1       -0.1682
     13 C           2.9437   -0.2308    0.5618 C.ar    1  UNL1        0.1054
     14 C           4.2544    0.4242    0.5855 C.ar    1  UNL1        0.0063
     15 C           4.8308    0.6420    1.8406 C.ar    1  UNL1       -0.0523
     16 C           6.0493    1.2787    1.9273 C.ar    1  UNL1       -0.0577
     17 C           6.6918    1.6971    0.7712 C.ar    1  UNL1       -0.0201
     18 C           6.1509    1.4982   -0.4795 C.ar    1  UNL1        0.1175
     19 O           6.8193    1.9273   -1.5942 O.3     1  UNL1       -0.5067
     20 C           4.9181    0.8525   -0.5398 C.ar    1  UNL1       -0.0109
     21 C           2.5662   -1.3459   -0.1484 C.ar    1  UNL1        0.0859
     22 C           3.1998   -2.1982   -1.0278 C.ar    1  UNL1        0.1308
     23 N           4.5910   -1.9621   -1.3426 N.pl3   1  UNL1       -0.3425
     24 N           2.5787   -3.2582   -1.5905 N.ar    1  UNL1       -0.2204
     25 C           1.2976   -3.4921   -1.2825 C.ar    1  UNL1        0.1204
     26 N           0.6703   -2.6798   -0.4338 N.ar    1  UNL1       -0.2161
     27 C           1.2264   -1.6151    0.1572 C.ar    1  UNL1        0.1642
     28 N          -1.0697    1.6734    0.8031 N.ar    1  UNL1       -0.2312
     29 C          -1.7676    2.5712    0.0956 C.ar    1  UNL1        0.0785
     30 C          -1.4208    3.9122    0.0967 C.ar    1  UNL1       -0.0355
     31 C          -2.1609    4.8060   -0.6426 C.ar    1  UNL1       -0.0595
     32 C          -3.2309    4.3568   -1.3698 C.ar    1  UNL1       -0.0580
     33 C          -3.5646    3.0078   -1.3594 C.ar    1  UNL1       -0.0361
     34 C          -4.7296    2.5651   -2.1604 C.3     1  UNL1       -0.0389
     35 C          -2.8382    2.0947   -0.6268 C.ar    1  UNL1        0.0681
     36 C          -3.1523    0.7569   -0.6034 C.ar    1  UNL1        0.2666
     37 O          -4.1307    0.2965   -1.2586 O.2     1  UNL1       -0.2666
     38 H          -3.2844   -0.0946    2.3726 H       1  UNL1        0.0278
     39 H          -3.2479   -1.5638    3.3665 H       1  UNL1        0.0278
     40 H          -4.8018   -1.1059    2.6472 H       1  UNL1        0.0278
     41 H          -4.2557   -3.6602    2.2687 H       1  UNL1        0.0621
     42 H          -3.8304   -5.2336    0.4448 H       1  UNL1        0.0618
     43 H          -2.7218   -4.4240   -1.5801 H       1  UNL1        0.0618
     44 H          -2.0308   -2.0286   -1.7903 H       1  UNL1        0.0638
     45 H          -0.3670   -0.0482    2.6021 H       1  UNL1        0.0590
     46 H          -0.9526   -1.5434    1.8177 H       1  UNL1        0.0590
     47 H           4.3556    0.3291    2.7463 H       1  UNL1        0.0624
     48 H           6.5547    1.4810    2.8622 H       1  UNL1        0.0619
     49 H           7.6632    2.2044    0.8392 H       1  UNL1        0.0654
     50 H           6.4245    2.0297   -2.5118 H       1  UNL1        0.2921
     51 H           4.5069    0.7257   -1.5223 H       1  UNL1        0.0661
     52 H           5.3367   -2.0912   -0.6385 H       1  UNL1        0.1437
     53 H           4.8153   -1.6579   -2.3021 H       1  UNL1        0.1437
     54 H           0.7795   -4.3438   -1.7279 H       1  UNL1        0.1048
     55 H          -0.5641    4.2107    0.6909 H       1  UNL1        0.0639
     56 H          -1.8644    5.8368   -0.6188 H       1  UNL1        0.0618
     57 H          -3.8370    5.0278   -1.9633 H       1  UNL1        0.0620
     58 H          -5.5378    2.1417   -1.5306 H       1  UNL1        0.0278
     59 H          -5.1791    3.4256   -2.6957 H       1  UNL1        0.0278
     60 H          -4.4177    1.8526   -2.9774 H       1  UNL1        0.0278
@<TRIPOS>BOND
     1     1     2    1
     2     2     3   ar
     3     3     4   ar
     4     4     5   ar
     5     5     6   ar
     6     6     7   ar
     7     7     8    1
     8     8     9   ar
     9     9    10    1
    10    10    11    1
    11    11    12   ar
    12    12    13   ar
    13    13    14    1
    14    14    15   ar
    15    15    16   ar
    16    16    17   ar
    17    17    18   ar
    18    18    19    1
    19    18    20   ar
    20    13    21   ar
    21    21    22   ar
    22    22    23    1
    23    22    24   ar
    24    24    25   ar
    25    25    26   ar
    26    26    27   ar
    27     9    28   ar
    28    28    29   ar
    29    29    30   ar
    30    30    31   ar
    31    31    32   ar
    32    32    33   ar
    33    33    34    1
    34    33    35   ar
    35    35    36   ar
    36    36    37    2
    37     7     2   ar
    38    36     8   ar
    39    27    11   ar
    40    35    29   ar
    41    20    14   ar
    42    27    21   ar
    43     1    38    1
    44     1    39    1
    45     1    40    1
    46     3    41    1
    47     4    42    1
    48     5    43    1
    49     6    44    1
    50    10    45    1
    51    10    46    1
    52    15    47    1
    53    16    48    1
    54    17    49    1
    55    19    50    1
    56    20    51    1
    57    23    52    1
    58    23    53    1
    59    25    54    1
    60    30    55    1
    61    31    56    1
    62    32    57    1
    63    34    58    1
    64    34    59    1
    65    34    60    1
