
     RDKit          3D

 60 65  0  0  0  0  0  0  0  0999 V2000
   -3.7108   -1.0979    2.4508 C   0  0  0  0  0  0  0  0  0  0  0  0
   -3.4005   -1.9704    1.2992 C   0  0  0  0  0  0  0  0  0  0  0  0
   -3.7623   -3.2936    1.3713 C   0  0  0  0  0  0  0  0  0  0  0  0
   -3.5285   -4.1993    0.3458 C   0  0  0  0  0  0  0  0  0  0  0  0
   -2.8990   -3.6963   -0.7797 C   0  0  0  0  0  0  0  0  0  0  0  0
   -2.5193   -2.3795   -0.8950 C   0  0  0  0  0  0  0  0  0  0  0  0
   -2.7757   -1.5127    0.1598 C   0  0  0  0  0  0  0  0  0  0  0  0
   -2.4303   -0.1469    0.1244 N   0  0  0  0  0  0  0  0  0  0  0  0
   -1.3963    0.3370    0.8162 C   0  0  0  0  0  0  0  0  0  0  0  0
   -0.5148   -0.5548    1.6275 C   0  0  0  0  0  0  0  0  0  0  0  0
    0.8245   -0.6801    1.0286 N   0  0  0  0  0  0  0  0  0  0  0  0
    1.8460    0.1464    1.2724 N   0  0  0  0  0  0  0  0  0  0  0  0
    2.9437   -0.2308    0.5618 C   0  0  0  0  0  0  0  0  0  0  0  0
    4.2544    0.4242    0.5855 C   0  0  0  0  0  0  0  0  0  0  0  0
    4.8308    0.6420    1.8406 C   0  0  0  0  0  0  0  0  0  0  0  0
    6.0493    1.2787    1.9273 C   0  0  0  0  0  0  0  0  0  0  0  0
    6.6918    1.6971    0.7712 C   0  0  0  0  0  0  0  0  0  0  0  0
    6.1509    1.4982   -0.4795 C   0  0  0  0  0  0  0  0  0  0  0  0
    6.8193    1.9273   -1.5942 O   0  0  0  0  0  0  0  0  0  0  0  0
    4.9181    0.8525   -0.5398 C   0  0  0  0  0  0  0  0  0  0  0  0
    2.5662   -1.3459   -0.1484 C   0  0  0  0  0  0  0  0  0  0  0  0
    3.1998   -2.1982   -1.0278 C   0  0  0  0  0  0  0  0  0  0  0  0
    4.5910   -1.9621   -1.3426 N   0  0  0  0  0  0  0  0  0  0  0  0
    2.5787   -3.2582   -1.5905 N   0  0  0  0  0  0  0  0  0  0  0  0
    1.2976   -3.4921   -1.2825 C   0  0  0  0  0  0  0  0  0  0  0  0
    0.6703   -2.6798   -0.4338 N   0  0  0  0  0  0  0  0  0  0  0  0
    1.2264   -1.6151    0.1572 C   0  0  0  0  0  0  0  0  0  0  0  0
   -1.0697    1.6734    0.8031 N   0  0  0  0  0  0  0  0  0  0  0  0
   -1.7676    2.5712    0.0956 C   0  0  0  0  0  0  0  0  0  0  0  0
   -1.4208    3.9122    0.0967 C   0  0  0  0  0  0  0  0  0  0  0  0
   -2.1609    4.8060   -0.6426 C   0  0  0  0  0  0  0  0  0  0  0  0
   -3.2309    4.3568   -1.3698 C   0  0  0  0  0  0  0  0  0  0  0  0
   -3.5646    3.0078   -1.3594 C   0  0  0  0  0  0  0  0  0  0  0  0
   -4.7296    2.5651   -2.1604 C   0  0  0  0  0  0  0  0  0  0  0  0
   -2.8382    2.0947   -0.6268 C   0  0  0  0  0  0  0  0  0  0  0  0
   -3.1523    0.7569   -0.6034 C   0  0  0  0  0  0  0  0  0  0  0  0
   -4.1307    0.2965   -1.2586 O   0  0  0  0  0  0  0  0  0  0  0  0
   -3.2844   -0.0946    2.3726 H   0  0  0  0  0  0  0  0  0  0  0  0
   -3.2479   -1.5638    3.3665 H   0  0  0  0  0  0  0  0  0  0  0  0
   -4.8018   -1.1059    2.6472 H   0  0  0  0  0  0  0  0  0  0  0  0
   -4.2557   -3.6602    2.2687 H   0  0  0  0  0  0  0  0  0  0  0  0
   -3.8304   -5.2336    0.4448 H   0  0  0  0  0  0  0  0  0  0  0  0
   -2.7218   -4.4240   -1.5801 H   0  0  0  0  0  0  0  0  0  0  0  0
   -2.0308   -2.0286   -1.7903 H   0  0  0  0  0  0  0  0  0  0  0  0
   -0.3670   -0.0482    2.6021 H   0  0  0  0  0  0  0  0  0  0  0  0
   -0.9526   -1.5434    1.8177 H   0  0  0  0  0  0  0  0  0  0  0  0
    4.3556    0.3291    2.7463 H   0  0  0  0  0  0  0  0  0  0  0  0
    6.5547    1.4810    2.8622 H   0  0  0  0  0  0  0  0  0  0  0  0
    7.6632    2.2044    0.8392 H   0  0  0  0  0  0  0  0  0  0  0  0
    6.4245    2.0297   -2.5118 H   0  0  0  0  0  0  0  0  0  0  0  0
    4.5069    0.7257   -1.5223 H   0  0  0  0  0  0  0  0  0  0  0  0
    5.3367   -2.0912   -0.6385 H   0  0  0  0  0  0  0  0  0  0  0  0
    4.8153   -1.6579   -2.3021 H   0  0  0  0  0  0  0  0  0  0  0  0
    0.7795   -4.3438   -1.7279 H   0  0  0  0  0  0  0  0  0  0  0  0
   -0.5641    4.2107    0.6909 H   0  0  0  0  0  0  0  0  0  0  0  0
   -1.8644    5.8368   -0.6188 H   0  0  0  0  0  0  0  0  0  0  0  0
   -3.8370    5.0278   -1.9633 H   0  0  0  0  0  0  0  0  0  0  0  0
   -5.5378    2.1417   -1.5306 H   0  0  0  0  0  0  0  0  0  0  0  0
   -5.1791    3.4256   -2.6957 H   0  0  0  0  0  0  0  0  0  0  0  0
   -4.4177    1.8526   -2.9774 H   0  0  0  0  0  0  0  0  0  0  0  0
  1  2  1  0
  2  3  2  0
  3  4  1  0
  4  5  2  0
  5  6  1  0
  6  7  2  0
  7  8  1  0
  8  9  1  0
  9 10  1  0
 10 11  1  0
 11 12  1  0
 12 13  2  0
 13 14  1  0
 14 15  2  0
 15 16  1  0
 16 17  2  0
 17 18  1  0
 18 19  1  0
 18 20  2  0
 13 21  1  0
 21 22  2  0
 22 23  1  0
 22 24  1  0
 24 25  2  0
 25 26  1  0
 26 27  2  0
  9 28  2  0
 28 29  1  0
 29 30  2  0
 30 31  1  0
 31 32  2  0
 32 33  1  0
 33 34  1  0
 33 35  2  0
 35 36  1  0
 36 37  2  0
  7  2  1  0
 36  8  1  0
 27 11  1  0
 35 29  1  0
 20 14  1  0
 27 21  1  0
  1 38  1  0
  1 39  1  0
  1 40  1  0
  3 41  1  0
  4 42  1  0
  5 43  1  0
  6 44  1  0
 10 45  1  0
 10 46  1  0
 15 47  1  0
 16 48  1  0
 17 49  1  0
 19 50  1  0
 20 51  1  0
 23 52  1  0
 23 53  1  0
 25 54  1  0
 30 55  1  0
 31 56  1  0
 32 57  1  0
 34 58  1  0
 34 59  1  0
 34 60  1  0
M  END
$$$$
