@<TRIPOS>MOLECULE
*****
 50 52 0 0 0
SMALL
GASTEIGER

@<TRIPOS>ATOM
      1 C           7.9709   -1.6973    2.2984 C.3     1  UNL1        0.0805
      2 O           7.1549   -2.3100    1.3187 O.3     1  UNL1       -0.4786
      3 C           5.9779   -1.6738    0.9172 C.ar    1  UNL1        0.2334
      4 C           5.1573   -2.2551   -0.0446 C.ar    1  UNL1        0.0899
      5 N           4.0230   -1.6122   -0.4117 N.ar    1  UNL1       -0.2433
      6 C           3.6658   -0.4324    0.1230 C.ar    1  UNL1        0.1468
      7 C           2.4310    0.2377   -0.2951 C.2     1  UNL1        0.2683
      8 O           2.1070    1.3323    0.2072 O.2     1  UNL1       -0.2681
      9 N           1.5632   -0.3125   -1.2690 N.am    1  UNL1       -0.2801
     10 C           0.3761    0.3750   -1.6416 C.ar    1  UNL1        0.0369
     11 C           0.3391    1.2920   -2.6715 C.ar    1  UNL1       -0.0023
     12 C          -0.7886    1.9722   -3.0563 C.ar    1  UNL1        0.1605
     13 F          -0.8092    2.8688   -4.0687 F       1  UNL1       -0.2024
     14 C          -1.9568    1.7012   -2.3457 C.ar    1  UNL1        0.1640
     15 F          -3.0763    2.3873   -2.7480 F       1  UNL1       -0.2021
     16 C          -1.9967    0.7993   -1.3064 C.ar    1  UNL1        0.0197
     17 C          -3.2787    0.5775   -0.5980 C.3     1  UNL1        0.0952
     18 C          -3.6994    1.8666    0.0418 C.3     1  UNL1       -0.0352
     19 C          -3.1641   -0.5199    0.4446 C.3     1  UNL1        0.0223
     20 C          -4.4764   -1.0346    0.9208 C.3     1  UNL1        0.1997
     21 C          -4.8321   -0.6414    2.3380 C.3     1  UNL1        0.4266
     22 F          -6.0858   -1.2267    2.5753 F       1  UNL1       -0.1669
     23 F          -5.0114    0.7005    2.5152 F       1  UNL1       -0.1669
     24 F          -3.9666   -1.1511    3.2638 F       1  UNL1       -0.1669
     25 O          -5.5472   -0.6951    0.0829 O.2     1  UNL1       -0.4534
     26 C          -5.3114   -0.5011   -1.2665 C.2     1  UNL1        0.2765
     27 N          -6.2599   -0.9729   -2.2188 N.pl3   1  UNL1       -0.3134
     28 N          -4.2292    0.1065   -1.6057 N.2     1  UNL1       -0.2257
     29 C          -0.8314    0.1513   -0.9711 C.ar    1  UNL1       -0.0321
     30 C           4.4674    0.1556    1.0759 C.ar    1  UNL1        0.0724
     31 C           4.1018    1.4768    1.6981 C.3     1  UNL1       -0.0200
     32 N           5.5905   -0.4933    1.4312 N.ar    1  UNL1       -0.2146
     33 H           9.0337   -1.8638    1.9795 H       1  UNL1        0.0660
     34 H           7.8246   -0.6048    2.3300 H       1  UNL1        0.0660
     35 H           7.7889   -2.1722    3.2901 H       1  UNL1        0.0660
     36 H           5.4567   -3.1993   -0.4632 H       1  UNL1        0.0884
     37 H           1.7670   -1.2182   -1.7300 H       1  UNL1        0.1552
     38 H           1.2657    1.4755   -3.1996 H       1  UNL1        0.0666
     39 H          -3.3615    2.7811   -0.5251 H       1  UNL1        0.0256
     40 H          -4.7972    1.9846    0.1358 H       1  UNL1        0.0256
     41 H          -3.1770    1.9848    1.0373 H       1  UNL1        0.0256
     42 H          -2.4974   -0.2464    1.2631 H       1  UNL1        0.0330
     43 H          -2.6472   -1.3659   -0.1008 H       1  UNL1        0.0330
     44 H          -4.4370   -2.1609    0.9358 H       1  UNL1        0.0826
     45 H          -7.0218   -0.3746   -2.6039 H       1  UNL1        0.1466
     46 H          -6.1969   -1.9581   -2.5506 H       1  UNL1        0.1466
     47 H          -0.8022   -0.5634   -0.1645 H       1  UNL1        0.0640
     48 H           4.1058    2.2931    0.9387 H       1  UNL1        0.0293
     49 H           4.9146    1.7382    2.4123 H       1  UNL1        0.0293
     50 H           3.1766    1.4218    2.2815 H       1  UNL1        0.0293
@<TRIPOS>BOND
     1     1     2    1
     2     2     3    1
     3     3     4   ar
     4     4     5   ar
     5     5     6   ar
     6     6     7    1
     7     7     8    2
     8     7     9   am
     9     9    10    1
    10    10    11   ar
    11    11    12   ar
    12    12    13    1
    13    12    14   ar
    14    14    15    1
    15    14    16   ar
    16    16    17    1
    17    17    18    1
    18    17    19    1
    19    19    20    1
    20    20    21    1
    21    21    22    1
    22    21    23    1
    23    21    24    1
    24    20    25    1
    25    25    26    1
    26    26    27    1
    27    26    28    2
    28    16    29   ar
    29     6    30   ar
    30    30    31    1
    31    30    32   ar
    32    32     3   ar
    33    29    10   ar
    34    28    17    1
    35     1    33    1
    36     1    34    1
    37     1    35    1
    38     4    36    1
    39     9    37    1
    40    11    38    1
    41    18    39    1
    42    18    40    1
    43    18    41    1
    44    19    42    1
    45    19    43    1
    46    20    44    1
    47    27    45    1
    48    27    46    1
    49    29    47    1
    50    31    48    1
    51    31    49    1
    52    31    50    1
