
     RDKit          3D

 56 60  0  0  0  0  0  0  0  0999 V2000
   -2.6398    4.8170    1.8922 C   0  0  0  0  0  0  0  0  0  0  0  0
   -3.7477    3.8534    1.6908 C   0  0  0  0  0  0  0  0  0  0  0  0
   -4.9287    4.2534    1.8105 O   0  0  0  0  0  0  0  0  0  0  0  0
   -3.4514    2.4790    1.3629 N   0  0  0  0  0  0  0  0  0  0  0  0
   -4.5721    1.5855    1.1826 C   0  0  0  0  0  0  0  0  0  0  0  0
   -4.0370    0.1614    1.3088 C   0  0  0  0  0  0  0  0  0  0  0  0
   -2.9881    0.0321    0.2777 C   0  0  0  0  0  0  0  0  0  0  0  0
   -1.9921    0.9881    0.2358 C   0  0  0  0  0  0  0  0  0  0  0  0
   -1.1486    0.6476   -0.7941 C   0  0  0  0  0  0  0  0  0  0  0  0
    0.0116    1.3343   -1.2019 N   0  0  0  0  0  0  0  0  0  0  0  0
    1.2890    0.8420   -0.8296 C   0  0  0  0  0  0  0  0  0  0  0  0
    2.1855    0.4846   -1.8290 C   0  0  0  0  0  0  0  0  0  0  0  0
    3.4375    0.0084   -1.5092 C   0  0  0  0  0  0  0  0  0  0  0  0
    3.8724   -0.1411   -0.2095 C   0  0  0  0  0  0  0  0  0  0  0  0
    5.1965   -0.6469    0.1376 C   0  0  0  0  0  0  0  0  0  0  0  0
    5.5597   -1.3759    1.2616 C   0  0  0  0  0  0  0  0  0  0  0  0
    6.8866   -1.6422    1.1903 N   0  0  0  0  0  0  0  0  0  0  0  0
    7.3912   -1.1257    0.0865 N   0  0  0  0  0  0  0  0  0  0  0  0
    8.7915   -1.2250   -0.3151 C   0  0  0  0  0  0  0  0  0  0  0  0
    6.3904   -0.5167   -0.5708 C   0  0  0  0  0  0  0  0  0  0  0  0
    2.9774    0.2158    0.7754 C   0  0  0  0  0  0  0  0  0  0  0  0
    1.7008    0.7015    0.4698 C   0  0  0  0  0  0  0  0  0  0  0  0
    0.8793    1.0327    1.4891 F   0  0  0  0  0  0  0  0  0  0  0  0
   -1.6580   -0.4753   -1.3212 N   0  0  0  0  0  0  0  0  0  0  0  0
   -2.7560   -0.8547   -0.6924 N   0  0  0  0  0  0  0  0  0  0  0  0
   -3.5802   -1.9955   -0.9672 C   0  0  0  0  0  0  0  0  0  0  0  0
   -3.0385   -3.1957   -0.2671 C   0  0  0  0  0  0  0  0  0  0  0  0
   -3.0443   -4.2681   -1.3200 C   0  0  0  0  0  0  0  0  0  0  0  0
   -3.7080   -3.7593   -2.4328 O   0  0  0  0  0  0  0  0  0  0  0  0
   -3.4625   -2.4020   -2.4276 C   0  0  0  0  0  0  0  0  0  0  0  0
   -2.0685    2.0777    1.2372 C   0  0  0  0  0  0  0  0  0  0  0  0
   -1.7758    4.3387    2.3857 H   0  0  0  0  0  0  0  0  0  0  0  0
   -2.2685    5.2234    0.9203 H   0  0  0  0  0  0  0  0  0  0  0  0
   -3.0255    5.6547    2.5067 H   0  0  0  0  0  0  0  0  0  0  0  0
   -4.9245    1.6881    0.1358 H   0  0  0  0  0  0  0  0  0  0  0  0
   -5.3789    1.7706    1.9213 H   0  0  0  0  0  0  0  0  0  0  0  0
   -3.6169    0.0279    2.3468 H   0  0  0  0  0  0  0  0  0  0  0  0
   -4.8604   -0.5423    1.1507 H   0  0  0  0  0  0  0  0  0  0  0  0
   -0.1119    2.2045   -1.7820 H   0  0  0  0  0  0  0  0  0  0  0  0
    1.8517    0.5982   -2.8625 H   0  0  0  0  0  0  0  0  0  0  0  0
    4.1425   -0.2730   -2.3020 H   0  0  0  0  0  0  0  0  0  0  0  0
    4.8753   -1.6778    2.0617 H   0  0  0  0  0  0  0  0  0  0  0  0
    9.3836   -1.6922    0.4807 H   0  0  0  0  0  0  0  0  0  0  0  0
    9.1422   -0.1847   -0.5491 H   0  0  0  0  0  0  0  0  0  0  0  0
    8.8273   -1.7861   -1.2762 H   0  0  0  0  0  0  0  0  0  0  0  0
    6.4580    0.0129   -1.5219 H   0  0  0  0  0  0  0  0  0  0  0  0
    3.3035    0.1043    1.7985 H   0  0  0  0  0  0  0  0  0  0  0  0
   -4.6384   -1.7631   -0.6985 H   0  0  0  0  0  0  0  0  0  0  0  0
   -2.0104   -3.0356    0.1288 H   0  0  0  0  0  0  0  0  0  0  0  0
   -3.6854   -3.4524    0.5945 H   0  0  0  0  0  0  0  0  0  0  0  0
   -3.5377   -5.1931   -0.9394 H   0  0  0  0  0  0  0  0  0  0  0  0
   -2.0047   -4.5053   -1.6079 H   0  0  0  0  0  0  0  0  0  0  0  0
   -2.4658   -2.1110   -2.7868 H   0  0  0  0  0  0  0  0  0  0  0  0
   -4.2240   -1.8494   -3.0052 H   0  0  0  0  0  0  0  0  0  0  0  0
   -1.4210    2.9317    0.9603 H   0  0  0  0  0  0  0  0  0  0  0  0
   -1.7818    1.6205    2.2185 H   0  0  0  0  0  0  0  0  0  0  0  0
  1  2  1  0
  2  3  2  0
  2  4  1  0
  4  5  1  0
  5  6  1  0
  6  7  1  0
  7  8  2  0
  8  9  1  0
  9 10  1  0
 10 11  1  0
 11 12  2  0
 12 13  1  0
 13 14  2  0
 14 15  1  0
 15 16  1  0
 16 17  2  0
 17 18  1  0
 18 19  1  0
 18 20  1  0
 14 21  1  0
 21 22  2  0
 22 23  1  0
  9 24  2  0
 24 25  1  0
 25 26  1  0
 26 27  1  0
 27 28  1  0
 28 29  1  0
 29 30  1  0
  8 31  1  0
 31  4  1  0
 25  7  1  0
 30 26  1  0
 22 11  1  0
 20 15  2  0
  1 32  1  0
  1 33  1  0
  1 34  1  0
  5 35  1  0
  5 36  1  0
  6 37  1  0
  6 38  1  0
 10 39  1  0
 12 40  1  0
 13 41  1  0
 16 42  1  0
 19 43  1  0
 19 44  1  0
 19 45  1  0
 20 46  1  0
 21 47  1  0
 26 48  1  0
 27 49  1  0
 27 50  1  0
 28 51  1  0
 28 52  1  0
 30 53  1  0
 30 54  1  0
 31 55  1  0
 31 56  1  0
M  END
$$$$
