@<TRIPOS>MOLECULE
*****
 56 60 0 0 0
SMALL
GASTEIGER

@<TRIPOS>ATOM
      1 C          -2.6398    4.8170    1.8922 C.3     1  UNL1        0.0124
      2 C          -3.7477    3.8534    1.6908 C.2     1  UNL1        0.2128
      3 O          -4.9287    4.2534    1.8105 O.2     1  UNL1       -0.2759
      4 N          -3.4514    2.4790    1.3629 N.am    1  UNL1       -0.2968
      5 C          -4.5721    1.5855    1.1826 C.3     1  UNL1        0.0204
      6 C          -4.0370    0.1614    1.3088 C.3     1  UNL1        0.0055
      7 C          -2.9881    0.0321    0.2777 C.ar    1  UNL1        0.0477
      8 C          -1.9921    0.9881    0.2358 C.ar    1  UNL1        0.0324
      9 C          -1.1486    0.6476   -0.7941 C.ar    1  UNL1        0.1499
     10 N           0.0116    1.3343   -1.2019 N.pl3   1  UNL1       -0.2955
     11 C           1.2890    0.8420   -0.8296 C.ar    1  UNL1        0.0681
     12 C           2.1855    0.4846   -1.8290 C.ar    1  UNL1       -0.0371
     13 C           3.4375    0.0084   -1.5092 C.ar    1  UNL1       -0.0520
     14 C           3.8724   -0.1411   -0.2095 C.ar    1  UNL1       -0.0121
     15 C           5.1965   -0.6469    0.1376 C.ar    1  UNL1        0.0196
     16 C           5.5597   -1.3759    1.2616 C.ar    1  UNL1        0.0571
     17 N           6.8866   -1.6422    1.1903 N.ar    1  UNL1       -0.1793
     18 N           7.3912   -1.1257    0.0865 N.ar    1  UNL1       -0.2739
     19 C           8.7915   -1.2250   -0.3151 C.3     1  UNL1        0.0302
     20 C           6.3904   -0.5167   -0.5708 C.ar    1  UNL1        0.0329
     21 C           2.9774    0.2158    0.7754 C.ar    1  UNL1       -0.0168
     22 C           1.7008    0.7015    0.4698 C.ar    1  UNL1        0.1450
     23 F           0.8793    1.0327    1.4891 F       1  UNL1       -0.2035
     24 N          -1.6580   -0.4753   -1.3212 N.ar    1  UNL1       -0.1551
     25 N          -2.7560   -0.8547   -0.6924 N.ar    1  UNL1       -0.2608
     26 C          -3.5802   -1.9955   -0.9672 C.3     1  UNL1        0.0784
     27 C          -3.0385   -3.1957   -0.2671 C.3     1  UNL1       -0.0048
     28 C          -3.0443   -4.2681   -1.3200 C.3     1  UNL1        0.0498
     29 O          -3.7080   -3.7593   -2.4328 O.3     1  UNL1       -0.3776
     30 C          -3.4625   -2.4020   -2.4276 C.3     1  UNL1        0.0701
     31 C          -2.0685    2.0777    1.2372 C.3     1  UNL1        0.0447
     32 H          -1.7758    4.3387    2.3857 H       1  UNL1        0.0323
     33 H          -2.2685    5.2234    0.9203 H       1  UNL1        0.0323
     34 H          -3.0255    5.6547    2.5067 H       1  UNL1        0.0323
     35 H          -4.9245    1.6881    0.1358 H       1  UNL1        0.0468
     36 H          -5.3789    1.7706    1.9213 H       1  UNL1        0.0468
     37 H          -3.6169    0.0279    2.3468 H       1  UNL1        0.0343
     38 H          -4.8604   -0.5423    1.1507 H       1  UNL1        0.0343
     39 H          -0.1119    2.2045   -1.7820 H       1  UNL1        0.1537
     40 H           1.8517    0.5982   -2.8625 H       1  UNL1        0.0637
     41 H           4.1425   -0.2730   -2.3020 H       1  UNL1        0.0624
     42 H           4.8753   -1.6778    2.0617 H       1  UNL1        0.0854
     43 H           9.3836   -1.6922    0.4807 H       1  UNL1        0.0473
     44 H           9.1422   -0.1847   -0.5491 H       1  UNL1        0.0473
     45 H           8.8273   -1.7861   -1.2762 H       1  UNL1        0.0473
     46 H           6.4580    0.0129   -1.5219 H       1  UNL1        0.0832
     47 H           3.3035    0.1043    1.7985 H       1  UNL1        0.0653
     48 H          -4.6384   -1.7631   -0.6985 H       1  UNL1        0.0568
     49 H          -2.0104   -3.0356    0.1288 H       1  UNL1        0.0309
     50 H          -3.6854   -3.4524    0.5945 H       1  UNL1        0.0309
     51 H          -3.5377   -5.1931   -0.9394 H       1  UNL1        0.0560
     52 H          -2.0047   -4.5053   -1.6079 H       1  UNL1        0.0560
     53 H          -2.4658   -2.1110   -2.7868 H       1  UNL1        0.0581
     54 H          -4.2240   -1.8494   -3.0052 H       1  UNL1        0.0581
     55 H          -1.4210    2.9317    0.9603 H       1  UNL1        0.0515
     56 H          -1.7818    1.6205    2.2185 H       1  UNL1        0.0515
@<TRIPOS>BOND
     1     1     2    1
     2     2     3    2
     3     2     4   am
     4     4     5    1
     5     5     6    1
     6     6     7    1
     7     7     8   ar
     8     8     9   ar
     9     9    10    1
    10    10    11    1
    11    11    12   ar
    12    12    13   ar
    13    13    14   ar
    14    14    15    1
    15    15    16   ar
    16    16    17   ar
    17    17    18   ar
    18    18    19    1
    19    18    20   ar
    20    14    21   ar
    21    21    22   ar
    22    22    23    1
    23     9    24   ar
    24    24    25   ar
    25    25    26    1
    26    26    27    1
    27    27    28    1
    28    28    29    1
    29    29    30    1
    30     8    31    1
    31    31     4    1
    32    25     7   ar
    33    30    26    1
    34    22    11   ar
    35    20    15   ar
    36     1    32    1
    37     1    33    1
    38     1    34    1
    39     5    35    1
    40     5    36    1
    41     6    37    1
    42     6    38    1
    43    10    39    1
    44    12    40    1
    45    13    41    1
    46    16    42    1
    47    19    43    1
    48    19    44    1
    49    19    45    1
    50    20    46    1
    51    21    47    1
    52    26    48    1
    53    27    49    1
    54    27    50    1
    55    28    51    1
    56    28    52    1
    57    30    53    1
    58    30    54    1
    59    31    55    1
    60    31    56    1
