@<TRIPOS>MOLECULE
*****
 68 71 0 0 0
SMALL
GASTEIGER

@<TRIPOS>ATOM
      1 N          -6.3240    3.7738    1.0088 N.pl3   1  UNL1       -0.1298
      2 C          -7.2265    2.9085    1.2320 C.cat   1  UNL1        0.3762
      3 N          -8.2347    3.2205    2.1703 N.pl3   1  UNL1       -0.2893
      4 N          -7.2195    1.6562    0.5525 N.pl3   1  UNL1       -0.2761
      5 C          -5.9801    1.1061   -0.0447 C.3     1  UNL1        0.0647
      6 C          -5.0969    0.7720    1.0846 C.3     1  UNL1       -0.0201
      7 C          -3.7677    0.2216    0.9011 C.3     1  UNL1       -0.0243
      8 C          -3.4656   -1.1217    0.3569 C.3     1  UNL1        0.0882
      9 N          -1.9588   -1.2216    0.3428 N.am    1  UNL1       -0.3039
     10 C          -1.2829   -2.1917    1.1059 C.2     1  UNL1        0.2310
     11 O          -1.9511   -2.9872    1.8141 O.2     1  UNL1       -0.2741
     12 C           0.1975   -2.3282    1.1186 C.3     1  UNL1        0.0911
     13 N           0.8542   -1.3784    0.2837 N.am    1  UNL1       -0.2903
     14 C           1.3211   -0.0560    0.7171 C.3     1  UNL1        0.0297
     15 C           2.7348    0.1832    0.2387 C.3     1  UNL1        0.0368
     16 N           2.9372   -0.1999   -1.1096 N.3     1  UNL1       -0.1663
     17 S           4.0893    0.6797   -1.9873 S.O2    1  UNL1        0.0613
     18 O           3.7174    2.1518   -2.0677 O.2     1  UNL1       -0.1528
     19 O           4.0980    0.1794   -3.4033 O.2     1  UNL1       -0.1528
     20 C           5.6764    0.5039   -1.2507 C.ar    1  UNL1        0.1061
     21 C           6.5231   -0.5334   -1.6272 C.ar    1  UNL1       -0.0347
     22 C           7.7735   -0.6905   -1.0689 C.ar    1  UNL1       -0.0508
     23 C           8.2403    0.1844   -0.1038 C.ar    1  UNL1        0.0005
     24 C           9.4994    0.0142    0.4469 C.ar    1  UNL1        0.0487
     25 CL         10.5258   -1.3187   -0.0708 Cl      1  UNL1       -0.0829
     26 C           9.9607    0.8860    1.4047 C.ar    1  UNL1       -0.0428
     27 C           9.1328    1.9184    1.7877 C.ar    1  UNL1       -0.0598
     28 C           7.8894    2.0786    1.2376 C.ar    1  UNL1       -0.0539
     29 C           7.4043    1.2131    0.2718 C.ar    1  UNL1       -0.0146
     30 C           6.1485    1.3709   -0.2889 C.ar    1  UNL1       -0.0276
     31 C           1.7700   -0.5885   -1.8539 C.3     1  UNL1        0.0971
     32 C           1.1147   -1.6634   -1.0768 C.2     1  UNL1        0.2318
     33 O           0.8153   -2.7480   -1.5980 O.2     1  UNL1       -0.2741
     34 C          -3.9372   -1.3996   -0.9744 C.2     1  UNL1        0.2079
     35 O          -3.1349   -1.1318   -1.9445 O.2     1  UNL1       -0.2879
     36 C          -5.2574   -1.9745   -1.2506 C.ar    1  UNL1        0.1453
     37 N          -6.2508   -2.3721   -0.7468 N.ar    1  UNL1       -0.2443
     38 C          -7.3260   -2.8688   -1.2679 C.ar    1  UNL1        0.0355
     39 C          -7.3106   -2.9494   -2.6703 C.ar    1  UNL1       -0.0041
     40 S          -5.7179   -2.2860   -3.0631 S.2     1  UNL1       -0.0728
     41 H          -5.5352    3.6878    0.3597 H       1  UNL1        0.3062
     42 H          -8.0059    3.8161    2.9805 H       1  UNL1        0.2546
     43 H          -9.1913    2.8591    2.0522 H       1  UNL1        0.2546
     44 H          -8.1178    1.1359    0.4889 H       1  UNL1        0.2579
     45 H          -5.5343    1.9501   -0.6540 H       1  UNL1        0.0655
     46 H          -6.3010    0.3674   -0.7403 H       1  UNL1        0.0655
     47 H          -4.9980    1.7207    1.7112 H       1  UNL1        0.0296
     48 H          -5.7174    0.1127    1.8024 H       1  UNL1        0.0296
     49 H          -3.2352    0.2514    1.9342 H       1  UNL1        0.0288
     50 H          -3.1371    0.9798    0.3061 H       1  UNL1        0.0288
     51 H          -3.7837   -1.9356    1.0512 H       1  UNL1        0.0582
     52 H          -1.4639   -0.5494   -0.2478 H       1  UNL1        0.1494
     53 H           0.5218   -3.3435    0.8155 H       1  UNL1        0.0560
     54 H           0.5258   -2.1395    2.1671 H       1  UNL1        0.0560
     55 H           1.2248    0.0927    1.7943 H       1  UNL1        0.0478
     56 H           0.6556    0.6704    0.1884 H       1  UNL1        0.0478
     57 H           3.4321   -0.4395    0.8748 H       1  UNL1        0.0459
     58 H           3.0397    1.2339    0.4608 H       1  UNL1        0.0459
     59 H           6.1679   -1.2203   -2.3790 H       1  UNL1        0.0637
     60 H           8.4516   -1.4981   -1.3514 H       1  UNL1        0.0625
     61 H          10.9555    0.7586    1.8451 H       1  UNL1        0.0632
     62 H           9.5154    2.5897    2.5399 H       1  UNL1        0.0618
     63 H           7.2541    2.9032    1.5582 H       1  UNL1        0.0624
     64 H           5.5148    2.2039    0.0389 H       1  UNL1        0.0643
     65 H           1.0219    0.2427   -1.9290 H       1  UNL1        0.0539
     66 H           2.0758   -0.9113   -2.8586 H       1  UNL1        0.0539
     67 H          -8.2042   -3.2126   -0.7021 H       1  UNL1        0.0835
     68 H          -8.1128   -3.3393   -3.3710 H       1  UNL1        0.0709
@<TRIPOS>BOND
     1     1     2    2
     2     2     3    1
     3     2     4    1
     4     4     5    1
     5     5     6    1
     6     6     7    1
     7     7     8    1
     8     8     9    1
     9     9    10   am
    10    10    11    2
    11    10    12    1
    12    12    13    1
    13    13    14    1
    14    14    15    1
    15    15    16    1
    16    16    17    1
    17    17    18    2
    18    17    19    2
    19    17    20    1
    20    20    21   ar
    21    21    22   ar
    22    22    23   ar
    23    23    24   ar
    24    24    25    1
    25    24    26   ar
    26    26    27   ar
    27    27    28   ar
    28    28    29   ar
    29    29    30   ar
    30    16    31    1
    31    31    32    1
    32    32    33    2
    33     8    34    1
    34    34    35    2
    35    34    36    1
    36    36    37   ar
    37    37    38   ar
    38    38    39   ar
    39    39    40   ar
    40    32    13   am
    41    40    36   ar
    42    30    20   ar
    43    29    23   ar
    44     1    41    1
    45     3    42    1
    46     3    43    1
    47     4    44    1
    48     5    45    1
    49     5    46    1
    50     6    47    1
    51     6    48    1
    52     7    49    1
    53     7    50    1
    54     8    51    1
    55     9    52    1
    56    12    53    1
    57    12    54    1
    58    14    55    1
    59    14    56    1
    60    15    57    1
    61    15    58    1
    62    21    59    1
    63    22    60    1
    64    26    61    1
    65    27    62    1
    66    28    63    1
    67    30    64    1
    68    31    65    1
    69    31    66    1
    70    38    67    1
    71    39    68    1
