
     RDKit          3D

 68 71  0  0  0  0  0  0  0  0999 V2000
   -6.3240    3.7738    1.0088 N   0  0  0  0  0  0  0  0  0  0  0  0
   -7.2265    2.9085    1.2320 C   0  0  0  0  0  0  0  0  0  0  0  0
   -8.2347    3.2205    2.1703 N   0  0  0  0  0  0  0  0  0  0  0  0
   -7.2195    1.6562    0.5525 N   0  0  0  0  0  0  0  0  0  0  0  0
   -5.9801    1.1061   -0.0447 C   0  0  0  0  0  0  0  0  0  0  0  0
   -5.0969    0.7720    1.0846 C   0  0  0  0  0  0  0  0  0  0  0  0
   -3.7677    0.2216    0.9011 C   0  0  0  0  0  0  0  0  0  0  0  0
   -3.4656   -1.1217    0.3569 C   0  0  0  0  0  0  0  0  0  0  0  0
   -1.9588   -1.2216    0.3428 N   0  0  0  0  0  0  0  0  0  0  0  0
   -1.2829   -2.1917    1.1059 C   0  0  0  0  0  0  0  0  0  0  0  0
   -1.9511   -2.9872    1.8141 O   0  0  0  0  0  0  0  0  0  0  0  0
    0.1975   -2.3282    1.1186 C   0  0  0  0  0  0  0  0  0  0  0  0
    0.8542   -1.3784    0.2837 N   0  0  0  0  0  0  0  0  0  0  0  0
    1.3211   -0.0560    0.7171 C   0  0  0  0  0  0  0  0  0  0  0  0
    2.7348    0.1832    0.2387 C   0  0  0  0  0  0  0  0  0  0  0  0
    2.9372   -0.1999   -1.1096 N   0  0  0  0  0  0  0  0  0  0  0  0
    4.0893    0.6797   -1.9873 S   0  0  0  0  0  6  0  0  0  0  0  0
    3.7174    2.1518   -2.0677 O   0  0  0  0  0  0  0  0  0  0  0  0
    4.0980    0.1794   -3.4033 O   0  0  0  0  0  0  0  0  0  0  0  0
    5.6764    0.5039   -1.2507 C   0  0  0  0  0  0  0  0  0  0  0  0
    6.5231   -0.5334   -1.6272 C   0  0  0  0  0  0  0  0  0  0  0  0
    7.7735   -0.6905   -1.0689 C   0  0  0  0  0  0  0  0  0  0  0  0
    8.2403    0.1844   -0.1038 C   0  0  0  0  0  0  0  0  0  0  0  0
    9.4994    0.0142    0.4469 C   0  0  0  0  0  0  0  0  0  0  0  0
   10.5258   -1.3187   -0.0708 Cl  0  0  0  0  0  0  0  0  0  0  0  0
    9.9607    0.8860    1.4047 C   0  0  0  0  0  0  0  0  0  0  0  0
    9.1328    1.9184    1.7877 C   0  0  0  0  0  0  0  0  0  0  0  0
    7.8894    2.0786    1.2376 C   0  0  0  0  0  0  0  0  0  0  0  0
    7.4043    1.2131    0.2718 C   0  0  0  0  0  0  0  0  0  0  0  0
    6.1485    1.3709   -0.2889 C   0  0  0  0  0  0  0  0  0  0  0  0
    1.7700   -0.5885   -1.8539 C   0  0  0  0  0  0  0  0  0  0  0  0
    1.1147   -1.6634   -1.0768 C   0  0  0  0  0  0  0  0  0  0  0  0
    0.8153   -2.7480   -1.5980 O   0  0  0  0  0  0  0  0  0  0  0  0
   -3.9372   -1.3996   -0.9744 C   0  0  0  0  0  0  0  0  0  0  0  0
   -3.1349   -1.1318   -1.9445 O   0  0  0  0  0  0  0  0  0  0  0  0
   -5.2574   -1.9745   -1.2506 C   0  0  0  0  0  0  0  0  0  0  0  0
   -6.2508   -2.3721   -0.7468 N   0  0  0  0  0  0  0  0  0  0  0  0
   -7.3260   -2.8688   -1.2679 C   0  0  0  0  0  0  0  0  0  0  0  0
   -7.3106   -2.9494   -2.6703 C   0  0  0  0  0  0  0  0  0  0  0  0
   -5.7179   -2.2860   -3.0631 S   0  0  0  0  0  0  0  0  0  0  0  0
   -5.5352    3.6878    0.3597 H   0  0  0  0  0  0  0  0  0  0  0  0
   -8.0059    3.8161    2.9805 H   0  0  0  0  0  0  0  0  0  0  0  0
   -9.1913    2.8591    2.0522 H   0  0  0  0  0  0  0  0  0  0  0  0
   -8.1178    1.1359    0.4889 H   0  0  0  0  0  0  0  0  0  0  0  0
   -5.5343    1.9501   -0.6540 H   0  0  0  0  0  0  0  0  0  0  0  0
   -6.3010    0.3674   -0.7403 H   0  0  0  0  0  0  0  0  0  0  0  0
   -4.9980    1.7207    1.7112 H   0  0  0  0  0  0  0  0  0  0  0  0
   -5.7174    0.1127    1.8024 H   0  0  0  0  0  0  0  0  0  0  0  0
   -3.2352    0.2514    1.9342 H   0  0  0  0  0  0  0  0  0  0  0  0
   -3.1371    0.9798    0.3061 H   0  0  0  0  0  0  0  0  0  0  0  0
   -3.7837   -1.9356    1.0512 H   0  0  0  0  0  0  0  0  0  0  0  0
   -1.4639   -0.5494   -0.2478 H   0  0  0  0  0  0  0  0  0  0  0  0
    0.5218   -3.3435    0.8155 H   0  0  0  0  0  0  0  0  0  0  0  0
    0.5258   -2.1395    2.1671 H   0  0  0  0  0  0  0  0  0  0  0  0
    1.2248    0.0927    1.7943 H   0  0  0  0  0  0  0  0  0  0  0  0
    0.6556    0.6704    0.1884 H   0  0  0  0  0  0  0  0  0  0  0  0
    3.4321   -0.4395    0.8748 H   0  0  0  0  0  0  0  0  0  0  0  0
    3.0397    1.2339    0.4608 H   0  0  0  0  0  0  0  0  0  0  0  0
    6.1679   -1.2203   -2.3790 H   0  0  0  0  0  0  0  0  0  0  0  0
    8.4516   -1.4981   -1.3514 H   0  0  0  0  0  0  0  0  0  0  0  0
   10.9555    0.7586    1.8451 H   0  0  0  0  0  0  0  0  0  0  0  0
    9.5154    2.5897    2.5399 H   0  0  0  0  0  0  0  0  0  0  0  0
    7.2541    2.9032    1.5582 H   0  0  0  0  0  0  0  0  0  0  0  0
    5.5148    2.2039    0.0389 H   0  0  0  0  0  0  0  0  0  0  0  0
    1.0219    0.2427   -1.9290 H   0  0  0  0  0  0  0  0  0  0  0  0
    2.0758   -0.9113   -2.8586 H   0  0  0  0  0  0  0  0  0  0  0  0
   -8.2042   -3.2126   -0.7021 H   0  0  0  0  0  0  0  0  0  0  0  0
   -8.1128   -3.3393   -3.3710 H   0  0  0  0  0  0  0  0  0  0  0  0
  1  2  2  3
  2  3  1  0
  2  4  1  0
  4  5  1  0
  5  6  1  0
  6  7  1  0
  7  8  1  0
  8  9  1  0
  9 10  1  0
 10 11  2  0
 10 12  1  0
 12 13  1  0
 13 14  1  0
 14 15  1  0
 15 16  1  0
 16 17  1  0
 17 18  2  0
 17 19  2  0
 17 20  1  0
 20 21  2  0
 21 22  1  0
 22 23  2  0
 23 24  1  0
 24 25  1  0
 24 26  2  0
 26 27  1  0
 27 28  2  0
 28 29  1  0
 29 30  2  0
 16 31  1  0
 31 32  1  0
 32 33  2  0
  8 34  1  0
 34 35  2  0
 34 36  1  0
 36 37  2  0
 37 38  1  0
 38 39  2  0
 39 40  1  0
 32 13  1  0
 40 36  1  0
 30 20  1  0
 29 23  1  0
  1 41  1  0
  3 42  1  0
  3 43  1  0
  4 44  1  0
  5 45  1  0
  5 46  1  0
  6 47  1  0
  6 48  1  0
  7 49  1  0
  7 50  1  0
  8 51  1  0
  9 52  1  0
 12 53  1  0
 12 54  1  0
 14 55  1  0
 14 56  1  0
 15 57  1  0
 15 58  1  0
 21 59  1  0
 22 60  1  0
 26 61  1  0
 27 62  1  0
 28 63  1  0
 30 64  1  0
 31 65  1  0
 31 66  1  0
 38 67  1  0
 39 68  1  0
M  END
$$$$
