@<TRIPOS>MOLECULE
*****
 58 62 0 0 0
SMALL
GASTEIGER

@<TRIPOS>ATOM
      1 C          -4.7874    1.4874    1.2285 C.3     1  UNL1       -0.0229
      2 C          -3.5633    1.7327    0.3799 C.3     1  UNL1        0.1321
      3 C          -3.9885    2.6309   -0.7636 C.3     1  UNL1       -0.0229
      4 O          -2.4961    2.3023    1.1121 O.3     1  UNL1       -0.4420
      5 C          -1.5448    1.3120    1.2820 C.2     1  UNL1        0.4043
      6 O          -0.7217    1.2806    2.2026 O.2     1  UNL1       -0.2262
      7 N          -1.6498    0.3414    0.2530 N.am    1  UNL1       -0.2535
      8 C          -0.7394   -0.5438   -0.3554 C.3     1  UNL1        0.0300
      9 C           0.2385    0.2169   -1.2151 C.3     1  UNL1       -0.0323
     10 C           1.4602    0.5678   -0.4467 C.3     1  UNL1       -0.0303
     11 C           2.1758   -0.6153    0.1350 C.3     1  UNL1        0.0395
     12 N           3.5120   -0.7337   -0.3705 N.ar    1  UNL1       -0.2891
     13 C           4.0550   -1.7850   -1.0200 C.ar    1  UNL1        0.3279
     14 O           3.5113   -2.8832   -1.3225 O.2     1  UNL1       -0.2465
     15 N           5.3318   -1.4886   -1.3212 N.ar    1  UNL1       -0.3036
     16 C           5.6346   -0.2489   -0.8747 C.ar    1  UNL1        0.1039
     17 C           6.7655    0.5581   -0.9005 C.ar    1  UNL1        0.1660
     18 F           7.8697    0.0846   -1.4846 F       1  UNL1       -0.2019
     19 C           6.7566    1.8154   -0.3410 C.ar    1  UNL1        0.0890
     20 C           7.9274    2.6766   -0.3574 C.1     1  UNL1        0.1021
     21 N           8.8533    3.3706   -0.3878 N.1     1  UNL1       -0.1908
     22 C           5.5950    2.2695    0.2535 C.ar    1  UNL1       -0.0395
     23 C           4.4734    1.4729    0.2808 C.ar    1  UNL1       -0.0346
     24 C           4.4762    0.2018   -0.2828 C.ar    1  UNL1        0.0729
     25 C           1.3431   -1.8336   -0.0843 C.3     1  UNL1       -0.0303
     26 C          -0.0483   -1.5284    0.4950 C.3     1  UNL1       -0.0323
     27 C          -3.0660    0.4351   -0.1443 C.3     1  UNL1        0.0938
     28 C          -3.7375   -0.7549    0.4282 C.ar    1  UNL1       -0.0231
     29 C          -3.4678   -1.0988    1.7295 C.ar    1  UNL1       -0.0567
     30 C          -4.0828   -2.2017    2.2712 C.ar    1  UNL1       -0.0614
     31 C          -4.9540   -2.9352    1.4971 C.ar    1  UNL1       -0.0617
     32 C          -5.2260   -2.5933    0.1939 C.ar    1  UNL1       -0.0614
     33 C          -4.6077   -1.4885   -0.3430 C.ar    1  UNL1       -0.0567
     34 H          -4.5529    1.2255    2.2776 H       1  UNL1        0.0269
     35 H          -5.4163    0.6715    0.8029 H       1  UNL1        0.0269
     36 H          -5.4255    2.4131    1.2255 H       1  UNL1        0.0269
     37 H          -4.4244    2.0162   -1.5604 H       1  UNL1        0.0269
     38 H          -4.7330    3.3589   -0.4295 H       1  UNL1        0.0269
     39 H          -3.0965    3.1649   -1.1447 H       1  UNL1        0.0269
     40 H          -1.3289   -1.1596   -1.1229 H       1  UNL1        0.0502
     41 H           0.4452   -0.4032   -2.1150 H       1  UNL1        0.0284
     42 H          -0.2029    1.1547   -1.6198 H       1  UNL1        0.0284
     43 H           1.1967    1.3090    0.3333 H       1  UNL1        0.0286
     44 H           2.2000    1.1495   -1.0976 H       1  UNL1        0.0286
     45 H           2.2345   -0.4644    1.2538 H       1  UNL1        0.0529
     46 H           6.0176   -2.1137   -1.8301 H       1  UNL1        0.1705
     47 H           5.6201    3.2669    0.6864 H       1  UNL1        0.0632
     48 H           3.5747    1.8297    0.7435 H       1  UNL1        0.0639
     49 H           1.7365   -2.6697    0.5497 H       1  UNL1        0.0286
     50 H           1.2872   -2.1907   -1.1104 H       1  UNL1        0.0286
     51 H           0.1352   -1.2390    1.5352 H       1  UNL1        0.0284
     52 H          -0.5723   -2.5071    0.5182 H       1  UNL1        0.0284
     53 H          -3.1584    0.4137   -1.2494 H       1  UNL1        0.0591
     54 H          -2.7782   -0.5250    2.3559 H       1  UNL1        0.0621
     55 H          -3.8751   -2.4909    3.3174 H       1  UNL1        0.0618
     56 H          -5.4303   -3.8004    1.9370 H       1  UNL1        0.0618
     57 H          -5.9227   -3.2117   -0.3673 H       1  UNL1        0.0618
     58 H          -4.8284   -1.2218   -1.3766 H       1  UNL1        0.0621
@<TRIPOS>BOND
     1     1     2    1
     2     2     3    1
     3     2     4    1
     4     4     5    1
     5     5     6    2
     6     5     7   am
     7     7     8    1
     8     8     9    1
     9     9    10    1
    10    10    11    1
    11    11    12    1
    12    12    13   ar
    13    13    14    2
    14    13    15   ar
    15    15    16   ar
    16    16    17   ar
    17    17    18    1
    18    17    19   ar
    19    19    20    1
    20    20    21    3
    21    19    22   ar
    22    22    23   ar
    23    23    24   ar
    24    11    25    1
    25    25    26    1
    26     7    27    1
    27    27    28    1
    28    28    29   ar
    29    29    30   ar
    30    30    31   ar
    31    31    32   ar
    32    32    33   ar
    33    27     2    1
    34    33    28   ar
    35    26     8    1
    36    24    12   ar
    37    24    16   ar
    38     1    34    1
    39     1    35    1
    40     1    36    1
    41     3    37    1
    42     3    38    1
    43     3    39    1
    44     8    40    1
    45     9    41    1
    46     9    42    1
    47    10    43    1
    48    10    44    1
    49    11    45    1
    50    15    46    1
    51    22    47    1
    52    23    48    1
    53    25    49    1
    54    25    50    1
    55    26    51    1
    56    26    52    1
    57    27    53    1
    58    29    54    1
    59    30    55    1
    60    31    56    1
    61    32    57    1
    62    33    58    1
