
     RDKit          3D

 58 62  0  0  0  0  0  0  0  0999 V2000
   -4.7874    1.4874    1.2285 C   0  0  0  0  0  0  0  0  0  0  0  0
   -3.5633    1.7327    0.3799 C   0  0  0  0  0  0  0  0  0  0  0  0
   -3.9885    2.6309   -0.7636 C   0  0  0  0  0  0  0  0  0  0  0  0
   -2.4961    2.3023    1.1121 O   0  0  0  0  0  0  0  0  0  0  0  0
   -1.5448    1.3120    1.2820 C   0  0  0  0  0  0  0  0  0  0  0  0
   -0.7217    1.2806    2.2026 O   0  0  0  0  0  0  0  0  0  0  0  0
   -1.6498    0.3414    0.2530 N   0  0  0  0  0  0  0  0  0  0  0  0
   -0.7394   -0.5438   -0.3554 C   0  0  1  0  0  0  0  0  0  0  0  0
    0.2385    0.2169   -1.2151 C   0  0  0  0  0  0  0  0  0  0  0  0
    1.4602    0.5678   -0.4467 C   0  0  0  0  0  0  0  0  0  0  0  0
    2.1758   -0.6153    0.1350 C   0  0  2  0  0  0  0  0  0  0  0  0
    3.5120   -0.7337   -0.3705 N   0  0  0  0  0  0  0  0  0  0  0  0
    4.0550   -1.7850   -1.0200 C   0  0  0  0  0  0  0  0  0  0  0  0
    3.5113   -2.8832   -1.3225 O   0  0  0  0  0  0  0  0  0  0  0  0
    5.3318   -1.4886   -1.3212 N   0  0  0  0  0  0  0  0  0  0  0  0
    5.6346   -0.2489   -0.8747 C   0  0  0  0  0  0  0  0  0  0  0  0
    6.7655    0.5581   -0.9005 C   0  0  0  0  0  0  0  0  0  0  0  0
    7.8697    0.0846   -1.4846 F   0  0  0  0  0  0  0  0  0  0  0  0
    6.7566    1.8154   -0.3410 C   0  0  0  0  0  0  0  0  0  0  0  0
    7.9274    2.6766   -0.3574 C   0  0  0  0  0  0  0  0  0  0  0  0
    8.8533    3.3706   -0.3878 N   0  0  0  0  0  0  0  0  0  0  0  0
    5.5950    2.2695    0.2535 C   0  0  0  0  0  0  0  0  0  0  0  0
    4.4734    1.4729    0.2808 C   0  0  0  0  0  0  0  0  0  0  0  0
    4.4762    0.2018   -0.2828 C   0  0  0  0  0  0  0  0  0  0  0  0
    1.3431   -1.8336   -0.0843 C   0  0  0  0  0  0  0  0  0  0  0  0
   -0.0483   -1.5284    0.4950 C   0  0  0  0  0  0  0  0  0  0  0  0
   -3.0660    0.4351   -0.1443 C   0  0  1  0  0  0  0  0  0  0  0  0
   -3.7375   -0.7549    0.4282 C   0  0  0  0  0  0  0  0  0  0  0  0
   -3.4678   -1.0988    1.7295 C   0  0  0  0  0  0  0  0  0  0  0  0
   -4.0828   -2.2017    2.2712 C   0  0  0  0  0  0  0  0  0  0  0  0
   -4.9540   -2.9352    1.4971 C   0  0  0  0  0  0  0  0  0  0  0  0
   -5.2260   -2.5933    0.1939 C   0  0  0  0  0  0  0  0  0  0  0  0
   -4.6077   -1.4885   -0.3430 C   0  0  0  0  0  0  0  0  0  0  0  0
   -4.5529    1.2255    2.2776 H   0  0  0  0  0  0  0  0  0  0  0  0
   -5.4163    0.6715    0.8029 H   0  0  0  0  0  0  0  0  0  0  0  0
   -5.4255    2.4131    1.2255 H   0  0  0  0  0  0  0  0  0  0  0  0
   -4.4244    2.0162   -1.5604 H   0  0  0  0  0  0  0  0  0  0  0  0
   -4.7330    3.3589   -0.4295 H   0  0  0  0  0  0  0  0  0  0  0  0
   -3.0965    3.1649   -1.1447 H   0  0  0  0  0  0  0  0  0  0  0  0
   -1.3289   -1.1596   -1.1229 H   0  0  0  0  0  0  0  0  0  0  0  0
    0.4452   -0.4032   -2.1150 H   0  0  0  0  0  0  0  0  0  0  0  0
   -0.2029    1.1547   -1.6198 H   0  0  0  0  0  0  0  0  0  0  0  0
    1.1967    1.3090    0.3333 H   0  0  0  0  0  0  0  0  0  0  0  0
    2.2000    1.1495   -1.0976 H   0  0  0  0  0  0  0  0  0  0  0  0
    2.2345   -0.4644    1.2538 H   0  0  0  0  0  0  0  0  0  0  0  0
    6.0176   -2.1137   -1.8301 H   0  0  0  0  0  0  0  0  0  0  0  0
    5.6201    3.2669    0.6864 H   0  0  0  0  0  0  0  0  0  0  0  0
    3.5747    1.8297    0.7435 H   0  0  0  0  0  0  0  0  0  0  0  0
    1.7365   -2.6697    0.5497 H   0  0  0  0  0  0  0  0  0  0  0  0
    1.2872   -2.1907   -1.1104 H   0  0  0  0  0  0  0  0  0  0  0  0
    0.1352   -1.2390    1.5352 H   0  0  0  0  0  0  0  0  0  0  0  0
   -0.5723   -2.5071    0.5182 H   0  0  0  0  0  0  0  0  0  0  0  0
   -3.1584    0.4137   -1.2494 H   0  0  0  0  0  0  0  0  0  0  0  0
   -2.7782   -0.5250    2.3559 H   0  0  0  0  0  0  0  0  0  0  0  0
   -3.8751   -2.4909    3.3174 H   0  0  0  0  0  0  0  0  0  0  0  0
   -5.4303   -3.8004    1.9370 H   0  0  0  0  0  0  0  0  0  0  0  0
   -5.9227   -3.2117   -0.3673 H   0  0  0  0  0  0  0  0  0  0  0  0
   -4.8284   -1.2218   -1.3766 H   0  0  0  0  0  0  0  0  0  0  0  0
  1  2  1  0
  2  3  1  0
  2  4  1  0
  4  5  1  0
  5  6  2  0
  5  7  1  0
  7  8  1  0
  8  9  1  0
  9 10  1  0
 10 11  1  0
 11 12  1  0
 12 13  1  0
 13 14  2  0
 13 15  1  0
 15 16  1  0
 16 17  2  0
 17 18  1  0
 17 19  1  0
 19 20  1  0
 20 21  3  0
 19 22  2  0
 22 23  1  0
 23 24  2  0
 11 25  1  0
 25 26  1  0
  7 27  1  0
 27 28  1  0
 28 29  2  0
 29 30  1  0
 30 31  2  0
 31 32  1  0
 32 33  2  0
 27  2  1  0
 33 28  1  0
 26  8  1  0
 24 12  1  0
 24 16  1  0
  1 34  1  0
  1 35  1  0
  1 36  1  0
  3 37  1  0
  3 38  1  0
  3 39  1  0
  8 40  1  6
  9 41  1  0
  9 42  1  0
 10 43  1  0
 10 44  1  0
 11 45  1  1
 15 46  1  0
 22 47  1  0
 23 48  1  0
 25 49  1  0
 25 50  1  0
 26 51  1  0
 26 52  1  0
 27 53  1  6
 29 54  1  0
 30 55  1  0
 31 56  1  0
 32 57  1  0
 33 58  1  0
M  END
$$$$
