@<TRIPOS>MOLECULE
*****
 62 66 0 0 0
SMALL
GASTEIGER

@<TRIPOS>ATOM
      1 C          -7.3414    1.7942    0.3270 C.3     1  UNL1       -0.0560
      2 C          -6.9176    0.3412    0.2838 C.3     1  UNL1       -0.0127
      3 C          -7.6319   -0.3918    1.3867 C.3     1  UNL1       -0.0560
      4 C          -7.2916   -0.1863   -1.0889 C.3     1  UNL1       -0.0560
      5 C          -5.4332    0.3012    0.4810 C.ar    1  UNL1       -0.0418
      6 C          -4.8644    0.2030    1.7226 C.ar    1  UNL1       -0.0561
      7 C          -3.4870    0.1668    1.8910 C.ar    1  UNL1       -0.0375
      8 C          -2.6280    0.2294    0.7971 C.ar    1  UNL1        0.0489
      9 N          -1.2291    0.1949    0.9324 N.ar    1  UNL1       -0.2849
     10 C          -0.3351    1.1734    0.6652 C.ar    1  UNL1        0.1762
     11 C          -0.7823    2.4737    0.1932 C.2     1  UNL1        0.3575
     12 O          -1.9898    2.7547   -0.0223 O.2     1  UNL1       -0.2433
     13 O           0.1201    3.4927   -0.0452 O.3     1  UNL1       -0.4760
     14 C           0.9333    0.7110    0.9376 C.ar    1  UNL1        0.1698
     15 O           2.0928    1.4179    0.7813 O.3     1  UNL1       -0.4530
     16 C           2.9151    1.2444   -0.3318 C.ar    1  UNL1        0.1292
     17 C           2.6762    1.7786   -1.5700 C.ar    1  UNL1       -0.0193
     18 C           3.5632    1.5458   -2.6138 C.ar    1  UNL1       -0.0577
     19 C           4.6968    0.7813   -2.4435 C.ar    1  UNL1       -0.0524
     20 C           4.9538    0.2349   -1.2022 C.ar    1  UNL1        0.0018
     21 C           6.1505   -0.5832   -0.9874 C.ar    1  UNL1        0.0471
     22 C           7.0921   -0.8838   -1.9242 C.ar    1  UNL1       -0.0248
     23 C           8.0370   -1.6742   -1.2890 C.ar    1  UNL1        0.0726
     24 C           9.2686   -2.2691   -1.8644 C.3     1  UNL1        0.4188
     25 F           9.8051   -1.3860   -2.7753 F       1  UNL1       -0.1658
     26 F           9.0053   -3.4702   -2.4996 F       1  UNL1       -0.1658
     27 F          10.2031   -2.4947   -0.8722 F       1  UNL1       -0.1658
     28 C           7.6503   -1.8388    0.0238 C.ar    1  UNL1        0.0138
     29 N           6.5010   -1.1584    0.1570 N.ar    1  UNL1       -0.3601
     30 C           4.0717    0.4751   -0.1907 C.ar    1  UNL1       -0.0102
     31 C           0.7948   -0.6079    1.3932 C.ar    1  UNL1        0.0625
     32 C           1.6898   -1.5776    1.8178 C.ar    1  UNL1       -0.0446
     33 C           1.2646   -2.8252    2.2248 C.ar    1  UNL1       -0.0240
     34 C          -0.0928   -3.0653    2.1906 C.ar    1  UNL1        0.1316
     35 CL         -0.6264   -4.6567    2.7102 Cl      1  UNL1       -0.0619
     36 N          -0.9440   -2.1221    1.7796 N.ar    1  UNL1       -0.2171
     37 C          -0.5560   -0.8810    1.3718 C.ar    1  UNL1        0.1511
     38 C          -3.2423    0.3273   -0.4286 C.ar    1  UNL1       -0.0375
     39 C          -4.6046    0.3644   -0.6143 C.ar    1  UNL1       -0.0561
     40 H          -7.2748    2.2026   -0.7021 H       1  UNL1        0.0238
     41 H          -6.6434    2.3964    0.9458 H       1  UNL1        0.0238
     42 H          -8.3895    1.8690    0.6815 H       1  UNL1        0.0238
     43 H          -7.2153   -1.4152    1.5500 H       1  UNL1        0.0238
     44 H          -8.6910   -0.5281    1.0722 H       1  UNL1        0.0238
     45 H          -7.6389    0.2242    2.2867 H       1  UNL1        0.0238
     46 H          -8.3248   -0.5484   -1.1223 H       1  UNL1        0.0238
     47 H          -7.1867    0.5883   -1.8766 H       1  UNL1        0.0238
     48 H          -6.5767   -1.0063   -1.3710 H       1  UNL1        0.0238
     49 H          -5.5377    0.1535    2.5854 H       1  UNL1        0.0621
     50 H          -3.1151    0.0898    2.8811 H       1  UNL1        0.0638
     51 H           0.0052    4.1459   -0.8244 H       1  UNL1        0.2955
     52 H           1.8031    2.3810   -1.7598 H       1  UNL1        0.0654
     53 H           3.3285    1.9934   -3.5812 H       1  UNL1        0.0619
     54 H           5.3710    0.6110   -3.2590 H       1  UNL1        0.0624
     55 H           7.1214   -0.5835   -2.9513 H       1  UNL1        0.0644
     56 H           8.1536   -2.3964    0.8024 H       1  UNL1        0.0812
     57 H           5.9822   -1.1154    1.0685 H       1  UNL1        0.1653
     58 H           4.2820    0.0514    0.7943 H       1  UNL1        0.0661
     59 H           2.7376   -1.3497    1.8333 H       1  UNL1        0.0627
     60 H           1.9874   -3.5731    2.5550 H       1  UNL1        0.0648
     61 H          -2.6150    0.3782   -1.3005 H       1  UNL1        0.0638
     62 H          -5.0507    0.4432   -1.6126 H       1  UNL1        0.0621
@<TRIPOS>BOND
     1     1     2    1
     2     2     3    1
     3     2     4    1
     4     2     5    1
     5     5     6   ar
     6     6     7   ar
     7     7     8   ar
     8     8     9    1
     9     9    10   ar
    10    10    11    1
    11    11    12    2
    12    11    13    1
    13    10    14   ar
    14    14    15    1
    15    15    16    1
    16    16    17   ar
    17    17    18   ar
    18    18    19   ar
    19    19    20   ar
    20    20    21    1
    21    21    22   ar
    22    22    23   ar
    23    23    24    1
    24    24    25    1
    25    24    26    1
    26    24    27    1
    27    23    28   ar
    28    28    29   ar
    29    20    30   ar
    30    14    31   ar
    31    31    32   ar
    32    32    33   ar
    33    33    34   ar
    34    34    35    1
    35    34    36   ar
    36    36    37   ar
    37     8    38   ar
    38    38    39   ar
    39    39     5   ar
    40    37     9   ar
    41    30    16   ar
    42    37    31   ar
    43    29    21   ar
    44     1    40    1
    45     1    41    1
    46     1    42    1
    47     3    43    1
    48     3    44    1
    49     3    45    1
    50     4    46    1
    51     4    47    1
    52     4    48    1
    53     6    49    1
    54     7    50    1
    55    13    51    1
    56    17    52    1
    57    18    53    1
    58    19    54    1
    59    22    55    1
    60    28    56    1
    61    29    57    1
    62    30    58    1
    63    32    59    1
    64    33    60    1
    65    38    61    1
    66    39    62    1
