@<TRIPOS>MOLECULE
*****
 59 61 0 0 0
SMALL
GASTEIGER

@<TRIPOS>ATOM
      1 C          -8.5348   -0.4839    0.9965 C.3     1  UNL1       -0.0607
      2 C          -7.5307   -0.8445   -0.0679 C.3     1  UNL1       -0.0194
      3 C          -8.0193   -0.3137   -1.3857 C.3     1  UNL1       -0.0607
      4 C          -6.1797   -0.2882    0.3155 C.3     1  UNL1        0.1276
      5 N          -6.1707    1.1355    0.4560 N.3     1  UNL1       -0.1759
      6 S          -5.1404    1.9461   -0.6223 S.O2    1  UNL1        0.0591
      7 O          -5.5487    1.7421   -2.0529 O.2     1  UNL1       -0.1530
      8 O          -5.2758    3.4349   -0.3584 O.2     1  UNL1       -0.1530
      9 C          -3.4680    1.5452   -0.4745 C.ar    1  UNL1        0.1053
     10 C          -2.6513    2.2599    0.3795 C.ar    1  UNL1       -0.0348
     11 C          -1.2979    1.9376    0.4980 C.ar    1  UNL1       -0.0522
     12 C          -0.7343    0.9080   -0.2231 C.ar    1  UNL1       -0.0178
     13 C           0.6859    0.5741   -0.0992 C.ar    1  UNL1       -0.0177
     14 C           1.3534    0.7545    1.0871 C.ar    1  UNL1       -0.0506
     15 C           2.7096    0.4362    1.2081 C.ar    1  UNL1       -0.0194
     16 C           3.4136   -0.0676    0.1395 C.ar    1  UNL1        0.1210
     17 O           4.7654   -0.3786    0.2811 O.3     1  UNL1       -0.4874
     18 C           5.5263   -0.8990   -0.7925 C.3     1  UNL1        0.1147
     19 C           6.9070   -1.1160   -0.3125 C.ar    1  UNL1       -0.0096
     20 C           7.2845   -2.3096    0.2459 C.ar    1  UNL1       -0.0553
     21 C           8.5867   -2.4577    0.6750 C.ar    1  UNL1       -0.0606
     22 C           9.5006   -1.4464    0.5557 C.ar    1  UNL1       -0.0478
     23 C           9.1429   -0.2527    0.0030 C.ar    1  UNL1        0.0592
     24 C          10.0986    0.8349   -0.1332 C.2     1  UNL1        0.3368
     25 O          11.2629    0.6766    0.2594 O.2     1  UNL1       -0.2451
     26 O           9.6870    2.0464   -0.7069 O.3     1  UNL1       -0.4771
     27 C           7.8251   -0.1095   -0.4287 C.ar    1  UNL1       -0.0414
     28 C           2.7434   -0.2481   -1.0492 C.ar    1  UNL1       -0.0194
     29 C           1.4066    0.0656   -1.1691 C.ar    1  UNL1       -0.0506
     30 C          -1.5559    0.1932   -1.0782 C.ar    1  UNL1       -0.0522
     31 C          -2.8710    0.5221   -1.1799 C.ar    1  UNL1       -0.0348
     32 C          -5.8176   -0.8870    1.6268 C.2     1  UNL1        0.3238
     33 O          -5.5627   -0.1718    2.6363 O.2     1  UNL1       -0.2492
     34 O          -5.7526   -2.2452    1.7660 O.3     1  UNL1       -0.4795
     35 H          -9.5549   -0.3181    0.5669 H       1  UNL1        0.0233
     36 H          -8.1517    0.4143    1.5242 H       1  UNL1        0.0233
     37 H          -8.5607   -1.2943    1.7732 H       1  UNL1        0.0233
     38 H          -7.4121   -1.9543   -0.1128 H       1  UNL1        0.0316
     39 H          -8.9677   -0.8743   -1.6164 H       1  UNL1        0.0233
     40 H          -8.3103    0.7378   -1.2752 H       1  UNL1        0.0233
     41 H          -7.3368   -0.5145   -2.2201 H       1  UNL1        0.0233
     42 H          -5.4802   -0.6121   -0.5039 H       1  UNL1        0.0595
     43 H          -6.0083    1.4818    1.4160 H       1  UNL1        0.1489
     44 H          -3.0518    3.0628    0.9536 H       1  UNL1        0.0637
     45 H          -0.6521    2.4846    1.1583 H       1  UNL1        0.0624
     46 H           0.8259    1.1496    1.9477 H       1  UNL1        0.0625
     47 H           3.2194    0.5842    2.1472 H       1  UNL1        0.0654
     48 H           5.0666   -1.8918   -1.0549 H       1  UNL1        0.0748
     49 H           5.4663   -0.2652   -1.6951 H       1  UNL1        0.0748
     50 H           6.5732   -3.1349    0.3533 H       1  UNL1        0.0621
     51 H           8.8741   -3.4164    1.1185 H       1  UNL1        0.0618
     52 H          10.5297   -1.5903    0.9050 H       1  UNL1        0.0626
     53 H          10.3454    2.6163   -1.1983 H       1  UNL1        0.2954
     54 H           7.5772    0.8676   -0.8683 H       1  UNL1        0.0629
     55 H           3.3140   -0.6439   -1.8735 H       1  UNL1        0.0654
     56 H           0.8904   -0.0797   -2.1061 H       1  UNL1        0.0625
     57 H          -1.1213   -0.6230   -1.6531 H       1  UNL1        0.0624
     58 H          -3.5040   -0.0408   -1.8490 H       1  UNL1        0.0637
     59 H          -5.3583   -2.6389    2.6128 H       1  UNL1        0.2951
@<TRIPOS>BOND
     1     1     2    1
     2     2     3    1
     3     2     4    1
     4     4     5    1
     5     5     6    1
     6     6     7    2
     7     6     8    2
     8     6     9    1
     9     9    10   ar
    10    10    11   ar
    11    11    12   ar
    12    12    13    1
    13    13    14   ar
    14    14    15   ar
    15    15    16   ar
    16    16    17    1
    17    17    18    1
    18    18    19    1
    19    19    20   ar
    20    20    21   ar
    21    21    22   ar
    22    22    23   ar
    23    23    24    1
    24    24    25    2
    25    24    26    1
    26    23    27   ar
    27    16    28   ar
    28    28    29   ar
    29    12    30   ar
    30    30    31   ar
    31     4    32    1
    32    32    33    2
    33    32    34    1
    34    31     9   ar
    35    29    13   ar
    36    27    19   ar
    37     1    35    1
    38     1    36    1
    39     1    37    1
    40     2    38    1
    41     3    39    1
    42     3    40    1
    43     3    41    1
    44     4    42    1
    45     5    43    1
    46    10    44    1
    47    11    45    1
    48    14    46    1
    49    15    47    1
    50    18    48    1
    51    18    49    1
    52    20    50    1
    53    21    51    1
    54    22    52    1
    55    26    53    1
    56    27    54    1
    57    28    55    1
    58    29    56    1
    59    30    57    1
    60    31    58    1
    61    34    59    1
