
     RDKit          3D

 59 61  0  0  0  0  0  0  0  0999 V2000
   -8.5348   -0.4839    0.9965 C   0  0  0  0  0  0  0  0  0  0  0  0
   -7.5307   -0.8445   -0.0679 C   0  0  0  0  0  0  0  0  0  0  0  0
   -8.0193   -0.3137   -1.3857 C   0  0  0  0  0  0  0  0  0  0  0  0
   -6.1797   -0.2882    0.3155 C   0  0  1  0  0  0  0  0  0  0  0  0
   -6.1707    1.1355    0.4560 N   0  0  0  0  0  0  0  0  0  0  0  0
   -5.1404    1.9461   -0.6223 S   0  0  0  0  0  6  0  0  0  0  0  0
   -5.5487    1.7421   -2.0529 O   0  0  0  0  0  0  0  0  0  0  0  0
   -5.2758    3.4349   -0.3584 O   0  0  0  0  0  0  0  0  0  0  0  0
   -3.4680    1.5452   -0.4745 C   0  0  0  0  0  0  0  0  0  0  0  0
   -2.6513    2.2599    0.3795 C   0  0  0  0  0  0  0  0  0  0  0  0
   -1.2979    1.9376    0.4980 C   0  0  0  0  0  0  0  0  0  0  0  0
   -0.7343    0.9080   -0.2231 C   0  0  0  0  0  0  0  0  0  0  0  0
    0.6859    0.5741   -0.0992 C   0  0  0  0  0  0  0  0  0  0  0  0
    1.3534    0.7545    1.0871 C   0  0  0  0  0  0  0  0  0  0  0  0
    2.7096    0.4362    1.2081 C   0  0  0  0  0  0  0  0  0  0  0  0
    3.4136   -0.0676    0.1395 C   0  0  0  0  0  0  0  0  0  0  0  0
    4.7654   -0.3786    0.2811 O   0  0  0  0  0  0  0  0  0  0  0  0
    5.5263   -0.8990   -0.7925 C   0  0  0  0  0  0  0  0  0  0  0  0
    6.9070   -1.1160   -0.3125 C   0  0  0  0  0  0  0  0  0  0  0  0
    7.2845   -2.3096    0.2459 C   0  0  0  0  0  0  0  0  0  0  0  0
    8.5867   -2.4577    0.6750 C   0  0  0  0  0  0  0  0  0  0  0  0
    9.5006   -1.4464    0.5557 C   0  0  0  0  0  0  0  0  0  0  0  0
    9.1429   -0.2527    0.0030 C   0  0  0  0  0  0  0  0  0  0  0  0
   10.0986    0.8349   -0.1332 C   0  0  0  0  0  0  0  0  0  0  0  0
   11.2629    0.6766    0.2594 O   0  0  0  0  0  0  0  0  0  0  0  0
    9.6870    2.0464   -0.7069 O   0  0  0  0  0  0  0  0  0  0  0  0
    7.8251   -0.1095   -0.4287 C   0  0  0  0  0  0  0  0  0  0  0  0
    2.7434   -0.2481   -1.0492 C   0  0  0  0  0  0  0  0  0  0  0  0
    1.4066    0.0656   -1.1691 C   0  0  0  0  0  0  0  0  0  0  0  0
   -1.5559    0.1932   -1.0782 C   0  0  0  0  0  0  0  0  0  0  0  0
   -2.8710    0.5221   -1.1799 C   0  0  0  0  0  0  0  0  0  0  0  0
   -5.8176   -0.8870    1.6268 C   0  0  0  0  0  0  0  0  0  0  0  0
   -5.5627   -0.1718    2.6363 O   0  0  0  0  0  0  0  0  0  0  0  0
   -5.7526   -2.2452    1.7660 O   0  0  0  0  0  0  0  0  0  0  0  0
   -9.5549   -0.3181    0.5669 H   0  0  0  0  0  0  0  0  0  0  0  0
   -8.1517    0.4143    1.5242 H   0  0  0  0  0  0  0  0  0  0  0  0
   -8.5607   -1.2943    1.7732 H   0  0  0  0  0  0  0  0  0  0  0  0
   -7.4121   -1.9543   -0.1128 H   0  0  0  0  0  0  0  0  0  0  0  0
   -8.9677   -0.8743   -1.6164 H   0  0  0  0  0  0  0  0  0  0  0  0
   -8.3103    0.7378   -1.2752 H   0  0  0  0  0  0  0  0  0  0  0  0
   -7.3368   -0.5145   -2.2201 H   0  0  0  0  0  0  0  0  0  0  0  0
   -5.4802   -0.6121   -0.5039 H   0  0  0  0  0  0  0  0  0  0  0  0
   -6.0083    1.4818    1.4160 H   0  0  0  0  0  0  0  0  0  0  0  0
   -3.0518    3.0628    0.9536 H   0  0  0  0  0  0  0  0  0  0  0  0
   -0.6521    2.4846    1.1583 H   0  0  0  0  0  0  0  0  0  0  0  0
    0.8259    1.1496    1.9477 H   0  0  0  0  0  0  0  0  0  0  0  0
    3.2194    0.5842    2.1472 H   0  0  0  0  0  0  0  0  0  0  0  0
    5.0666   -1.8918   -1.0549 H   0  0  0  0  0  0  0  0  0  0  0  0
    5.4663   -0.2652   -1.6951 H   0  0  0  0  0  0  0  0  0  0  0  0
    6.5732   -3.1349    0.3533 H   0  0  0  0  0  0  0  0  0  0  0  0
    8.8741   -3.4164    1.1185 H   0  0  0  0  0  0  0  0  0  0  0  0
   10.5297   -1.5903    0.9050 H   0  0  0  0  0  0  0  0  0  0  0  0
   10.3454    2.6163   -1.1983 H   0  0  0  0  0  0  0  0  0  0  0  0
    7.5772    0.8676   -0.8683 H   0  0  0  0  0  0  0  0  0  0  0  0
    3.3140   -0.6439   -1.8735 H   0  0  0  0  0  0  0  0  0  0  0  0
    0.8904   -0.0797   -2.1061 H   0  0  0  0  0  0  0  0  0  0  0  0
   -1.1213   -0.6230   -1.6531 H   0  0  0  0  0  0  0  0  0  0  0  0
   -3.5040   -0.0408   -1.8490 H   0  0  0  0  0  0  0  0  0  0  0  0
   -5.3583   -2.6389    2.6128 H   0  0  0  0  0  0  0  0  0  0  0  0
  1  2  1  0
  2  3  1  0
  2  4  1  0
  4  5  1  0
  5  6  1  0
  6  7  2  0
  6  8  2  0
  6  9  1  0
  9 10  2  0
 10 11  1  0
 11 12  2  0
 12 13  1  0
 13 14  2  0
 14 15  1  0
 15 16  2  0
 16 17  1  0
 17 18  1  0
 18 19  1  0
 19 20  2  0
 20 21  1  0
 21 22  2  0
 22 23  1  0
 23 24  1  0
 24 25  2  0
 24 26  1  0
 23 27  2  0
 16 28  1  0
 28 29  2  0
 12 30  1  0
 30 31  2  0
  4 32  1  0
 32 33  2  0
 32 34  1  0
 31  9  1  0
 29 13  1  0
 27 19  1  0
  1 35  1  0
  1 36  1  0
  1 37  1  0
  2 38  1  0
  3 39  1  0
  3 40  1  0
  3 41  1  0
  4 42  1  6
  5 43  1  0
 10 44  1  0
 11 45  1  0
 14 46  1  0
 15 47  1  0
 18 48  1  0
 18 49  1  0
 20 50  1  0
 21 51  1  0
 22 52  1  0
 26 53  1  0
 27 54  1  0
 28 55  1  0
 29 56  1  0
 30 57  1  0
 31 58  1  0
 34 59  1  0
M  END
$$$$
