@<TRIPOS>MOLECULE
*****
 55 56 0 0 0
SMALL
GASTEIGER

@<TRIPOS>ATOM
      1 O          -3.0118   -2.4225    1.1292 O.2     0  UNK0       -0.2737
      2 C          -3.3056   -2.7365   -0.0532 C.2     0  UNK0        0.2362
      3 C          -2.7572   -1.9436   -1.1548 C.3     0  UNK0        0.0373
      4 C          -1.8820   -0.8111   -0.7387 C.3     0  UNK0        0.0478
      5 C          -2.5175    0.2242    0.1229 C.3     0  UNK0       -0.0161
      6 C          -3.6781    0.8882   -0.5387 C.ar    0  UNK0       -0.0466
      7 C          -4.9447    0.3794   -0.3664 C.ar    0  UNK0       -0.0586
      8 C          -6.0138    0.9896   -0.9796 C.ar    0  UNK0       -0.0615
      9 C          -5.7919    2.1001   -1.7549 C.ar    0  UNK0       -0.0617
     10 C          -4.5394    2.6458   -1.9561 C.ar    0  UNK0       -0.0615
     11 C          -3.4890    2.0086   -1.3263 C.ar    0  UNK0       -0.0586
     12 C          -0.6109   -1.3305   -0.1809 C.2     0  UNK0        0.2175
     13 O          -0.4114   -2.5705   -0.1174 O.2     0  UNK0       -0.2755
     14 N           0.4276   -0.4932    0.3010 N.am    1  PHE1       -0.3021
     15 CA          1.6471   -1.0702    0.8348 C.3     1  PHE1        0.1205
     16 CB          2.8534   -0.7439    0.0288 C.3     1  PHE1       -0.0213
     17 CG          3.1977    0.6886   -0.1326 C.3     1  PHE1       -0.0388
     18 CD1         4.4665    0.7271   -1.0030 C.3     1  PHE1       -0.0501
     19 CE1         5.3392    1.9084   -0.6588 C.3     1  PHE1       -0.0528
     20 CZ          5.9294    1.7334    0.7265 C.3     1  PHE1       -0.0530
     21 CE2         4.9178    1.1025    1.6356 C.3     1  PHE1       -0.0528
     22 CD2         3.5296    1.4375    1.1104 C.3     1  PHE1       -0.0501
     23 C           1.7889   -0.8214    2.2937 C.2     1  PHE1        0.3253
     24 O           2.8157   -1.2609    2.8513 O.2     1  PHE1       -0.2489
     25 OXT         0.8047   -0.1203    3.0114 O.3     1  PHE1       -0.4793
     26 N          -4.1478   -3.8354   -0.2680 N.am    0  UNK0       -0.1975
     27 O          -4.6248   -4.5322    0.8007 O.3     0  UNK0       -0.2952
     28 H          -3.5707   -1.6001   -1.8330 H       0  UNK0        0.0366
     29 H          -2.1379   -2.6372   -1.7811 H       0  UNK0        0.0366
     30 H          -1.5839   -0.2828   -1.6942 H       0  UNK0        0.0402
     31 H          -1.7558    1.0340    0.2685 H       0  UNK0        0.0321
     32 H          -2.8225   -0.0958    1.1158 H       0  UNK0        0.0321
     33 H          -5.1093   -0.5182    0.2664 H       0  UNK0        0.0620
     34 H          -7.0181    0.5718   -0.8326 H       0  UNK0        0.0618
     35 H          -6.6625    2.5560   -2.2241 H       0  UNK0        0.0618
     36 H          -4.4203    3.5176   -2.5735 H       0  UNK0        0.0618
     37 H          -2.4737    2.4030   -1.4544 H       0  UNK0        0.0620
     38 H           0.3171    0.5295    0.2727 H       1  PHE1        0.1495
     39 HA          1.5628   -2.2060    0.7751 H       1  PHE1        0.0614
     40 HB1         3.6924   -1.3603    0.4177 H       1  PHE1        0.0291
     41 HB2         2.6727   -1.1492   -1.0080 H       1  PHE1        0.0291
     42 HG          2.4198    1.1759   -0.7417 H       1  PHE1        0.0301
     43 HD11        4.2305    0.6719   -2.0717 H       1  PHE1        0.0268
     44 HD12        5.0794   -0.1864   -0.7737 H       1  PHE1        0.0268
     45 HE11        4.8406    2.8793   -0.7583 H       1  PHE1        0.0265
     46 HE12        6.2100    1.8514   -1.3618 H       1  PHE1        0.0265
     47 HZ1         6.2342    2.7173    1.1547 H       1  PHE1        0.0265
     48 HZ2         6.8305    1.0688    0.7089 H       1  PHE1        0.0265
     49 HE21        5.0033    1.5670    2.6362 H       1  PHE1        0.0265
     50 HE22        5.0525    0.0003    1.7274 H       1  PHE1        0.0265
     51 HD21        3.6004    2.5279    0.8159 H       1  PHE1        0.0268
     52 HD22        2.8248    1.3679    1.9321 H       1  PHE1        0.0268
     53 HXT         1.0465    0.1718    3.9563 H       1  PHE1        0.2951
     54 H          -4.4320   -4.1515   -1.2169 H       0  UNK0        0.1822
     55 H          -5.6226   -4.5652    0.6603 H       0  UNK0        0.2414
@<TRIPOS>BOND
     1     1     2    2
     2     2     3    1
     3     3     4    1
     4     4     5    1
     5     5     6    1
     6     6     7   ar
     7     7     8   ar
     8     8     9   ar
     9     9    10   ar
    10    10    11   ar
    11     4    12    1
    12    12    13    2
    13    12    14   am
    14    14    15    1
    15    15    16    1
    16    16    17    1
    17    17    18    1
    18    18    19    1
    19    19    20    1
    20    20    21    1
    21    21    22    1
    22    15    23    1
    23    23    24    2
    24    23    25    1
    25     2    26   am
    26    26    27    1
    27    11     6   ar
    28    22    17    1
    29     3    28    1
    30     3    29    1
    31     4    30    1
    32     5    31    1
    33     5    32    1
    34     7    33    1
    35     8    34    1
    36     9    35    1
    37    10    36    1
    38    11    37    1
    39    14    38    1
    40    15    39    1
    41    16    40    1
    42    16    41    1
    43    17    42    1
    44    18    43    1
    45    18    44    1
    46    19    45    1
    47    19    46    1
    48    20    47    1
    49    20    48    1
    50    21    49    1
    51    21    50    1
    52    22    51    1
    53    22    52    1
    54    25    53    1
    55    26    54    1
    56    27    55    1
