
     RDKit          3D

 55 56  0  0  0  0  0  0  0  0999 V2000
   -3.0118   -2.4225    1.1292 O   0  0  0  0  0  0  0  0  0  0  0  0
   -3.3056   -2.7365   -0.0532 C   0  0  0  0  0  0  0  0  0  0  0  0
   -2.7572   -1.9436   -1.1548 C   0  0  0  0  0  0  0  0  0  0  0  0
   -1.8820   -0.8111   -0.7387 C   0  0  1  0  0  0  0  0  0  0  0  0
   -2.5175    0.2242    0.1229 C   0  0  0  0  0  0  0  0  0  0  0  0
   -3.6781    0.8882   -0.5387 C   0  0  0  0  0  0  0  0  0  0  0  0
   -4.9447    0.3794   -0.3664 C   0  0  0  0  0  0  0  0  0  0  0  0
   -6.0138    0.9896   -0.9796 C   0  0  0  0  0  0  0  0  0  0  0  0
   -5.7919    2.1001   -1.7549 C   0  0  0  0  0  0  0  0  0  0  0  0
   -4.5394    2.6458   -1.9561 C   0  0  0  0  0  0  0  0  0  0  0  0
   -3.4890    2.0086   -1.3263 C   0  0  0  0  0  0  0  0  0  0  0  0
   -0.6109   -1.3305   -0.1809 C   0  0  0  0  0  0  0  0  0  0  0  0
   -0.4114   -2.5705   -0.1174 O   0  0  0  0  0  0  0  0  0  0  0  0
    0.4276   -0.4932    0.3010 N   0  0  0  0  0  0  0  0  0  0  0  0
    1.6471   -1.0702    0.8348 C   0  0  1  0  0  0  0  0  0  0  0  0
    2.8534   -0.7439    0.0288 C   0  0  0  0  0  0  0  0  0  0  0  0
    3.1977    0.6886   -0.1326 C   0  0  0  0  0  0  0  0  0  0  0  0
    4.4665    0.7271   -1.0030 C   0  0  0  0  0  0  0  0  0  0  0  0
    5.3392    1.9084   -0.6588 C   0  0  0  0  0  0  0  0  0  0  0  0
    5.9294    1.7334    0.7265 C   0  0  0  0  0  0  0  0  0  0  0  0
    4.9178    1.1025    1.6356 C   0  0  0  0  0  0  0  0  0  0  0  0
    3.5296    1.4375    1.1104 C   0  0  0  0  0  0  0  0  0  0  0  0
    1.7889   -0.8214    2.2937 C   0  0  0  0  0  0  0  0  0  0  0  0
    2.8157   -1.2609    2.8513 O   0  0  0  0  0  0  0  0  0  0  0  0
    0.8047   -0.1203    3.0114 O   0  0  0  0  0  0  0  0  0  0  0  0
   -4.1478   -3.8354   -0.2680 N   0  0  0  0  0  0  0  0  0  0  0  0
   -4.6248   -4.5322    0.8007 O   0  0  0  0  0  0  0  0  0  0  0  0
   -3.5707   -1.6001   -1.8330 H   0  0  0  0  0  0  0  0  0  0  0  0
   -2.1379   -2.6372   -1.7811 H   0  0  0  0  0  0  0  0  0  0  0  0
   -1.5839   -0.2828   -1.6942 H   0  0  0  0  0  0  0  0  0  0  0  0
   -1.7558    1.0340    0.2685 H   0  0  0  0  0  0  0  0  0  0  0  0
   -2.8225   -0.0958    1.1158 H   0  0  0  0  0  0  0  0  0  0  0  0
   -5.1093   -0.5182    0.2664 H   0  0  0  0  0  0  0  0  0  0  0  0
   -7.0181    0.5718   -0.8326 H   0  0  0  0  0  0  0  0  0  0  0  0
   -6.6625    2.5560   -2.2241 H   0  0  0  0  0  0  0  0  0  0  0  0
   -4.4203    3.5176   -2.5735 H   0  0  0  0  0  0  0  0  0  0  0  0
   -2.4737    2.4030   -1.4544 H   0  0  0  0  0  0  0  0  0  0  0  0
    0.3171    0.5295    0.2727 H   0  0  0  0  0  0  0  0  0  0  0  0
    1.5628   -2.2060    0.7751 H   0  0  0  0  0  0  0  0  0  0  0  0
    3.6924   -1.3603    0.4177 H   0  0  0  0  0  0  0  0  0  0  0  0
    2.6727   -1.1492   -1.0080 H   0  0  0  0  0  0  0  0  0  0  0  0
    2.4198    1.1759   -0.7417 H   0  0  0  0  0  0  0  0  0  0  0  0
    4.2305    0.6719   -2.0717 H   0  0  0  0  0  0  0  0  0  0  0  0
    5.0794   -0.1864   -0.7737 H   0  0  0  0  0  0  0  0  0  0  0  0
    4.8406    2.8793   -0.7583 H   0  0  0  0  0  0  0  0  0  0  0  0
    6.2100    1.8514   -1.3618 H   0  0  0  0  0  0  0  0  0  0  0  0
    6.2342    2.7173    1.1547 H   0  0  0  0  0  0  0  0  0  0  0  0
    6.8305    1.0688    0.7089 H   0  0  0  0  0  0  0  0  0  0  0  0
    5.0033    1.5670    2.6362 H   0  0  0  0  0  0  0  0  0  0  0  0
    5.0525    0.0003    1.7274 H   0  0  0  0  0  0  0  0  0  0  0  0
    3.6004    2.5279    0.8159 H   0  0  0  0  0  0  0  0  0  0  0  0
    2.8248    1.3679    1.9321 H   0  0  0  0  0  0  0  0  0  0  0  0
    1.0465    0.1718    3.9563 H   0  0  0  0  0  0  0  0  0  0  0  0
   -4.4320   -4.1515   -1.2169 H   0  0  0  0  0  0  0  0  0  0  0  0
   -5.6226   -4.5652    0.6603 H   0  0  0  0  0  0  0  0  0  0  0  0
  1  2  2  0
  2  3  1  0
  3  4  1  0
  4  5  1  0
  5  6  1  0
  6  7  2  0
  7  8  1  0
  8  9  2  0
  9 10  1  0
 10 11  2  0
  4 12  1  0
 12 13  2  0
 12 14  1  0
 14 15  1  0
 15 16  1  0
 16 17  1  0
 17 18  1  0
 18 19  1  0
 19 20  1  0
 20 21  1  0
 21 22  1  0
 15 23  1  0
 23 24  2  0
 23 25  1  0
  2 26  1  0
 26 27  1  0
 11  6  1  0
 22 17  1  0
  3 28  1  0
  3 29  1  0
  4 30  1  6
  5 31  1  0
  5 32  1  0
  7 33  1  0
  8 34  1  0
  9 35  1  0
 10 36  1  0
 11 37  1  0
 14 38  1  0
 15 39  1  1
 16 40  1  0
 16 41  1  0
 17 42  1  0
 18 43  1  0
 18 44  1  0
 19 45  1  0
 19 46  1  0
 20 47  1  0
 20 48  1  0
 21 49  1  0
 21 50  1  0
 22 51  1  0
 22 52  1  0
 25 53  1  0
 26 54  1  0
 27 55  1  0
M  END
$$$$
