@<TRIPOS>MOLECULE
*****
 55 58 0 0 0
SMALL
GASTEIGER

@<TRIPOS>ATOM
      1 C          -2.0786    0.3589    0.0339 C.3     1  UNL1        0.0996
      2 C          -2.6035    1.5074   -0.7659 C.3     1  UNL1       -0.0379
      3 N          -1.1252   -0.4017   -0.7359 N.am    1  UNL1       -0.2888
      4 C          -1.3352   -1.0782   -1.9998 C.3     1  UNL1        0.0174
      5 C          -0.4284   -2.3134   -1.8948 C.3     1  UNL1       -0.0116
      6 C           0.8249   -1.6614   -1.3759 C.3     1  UNL1        0.1064
      7 N           1.7206   -2.5149   -0.7069 N.3     1  UNL1       -0.1780
      8 S           3.3271   -2.5280   -1.2861 S.O2    1  UNL1        0.0591
      9 O           4.1434   -3.4354   -0.3991 O.2     1  UNL1       -0.1530
     10 O           3.4437   -2.9230   -2.7110 O.2     1  UNL1       -0.1530
     11 C           3.9784   -0.9125   -1.0972 C.ar    1  UNL1        0.1059
     12 C           4.6308   -0.5345    0.0601 C.ar    1  UNL1       -0.0276
     13 C           5.1851    0.6990    0.3314 C.ar    1  UNL1       -0.0159
     14 C           5.8121    0.9515    1.5301 C.ar    1  UNL1       -0.0526
     15 C           6.3242    2.2262    1.6755 C.ar    1  UNL1       -0.0428
     16 C           6.2034    3.1707    0.6694 C.ar    1  UNL1        0.0416
     17 CL          6.8822    4.7638    0.9372 Cl      1  UNL1       -0.0835
     18 C           5.5687    2.8875   -0.5225 C.ar    1  UNL1       -0.0357
     19 C           5.0484    1.6251   -0.6955 C.ar    1  UNL1       -0.0164
     20 C           4.4049    1.3073   -1.8800 C.ar    1  UNL1       -0.0521
     21 C           3.8848    0.0646   -2.0681 C.ar    1  UNL1       -0.0348
     22 C           0.2587   -0.6649   -0.4290 C.2     1  UNL1        0.2349
     23 O           0.8472   -0.0926    0.5271 O.2     1  UNL1       -0.2738
     24 C          -3.1994   -0.5357    0.4291 C.2     1  UNL1        0.2360
     25 O          -3.0188   -1.7020   -0.0059 O.2     1  UNL1       -0.2736
     26 N          -4.3092   -0.0883    1.1983 N.am    1  UNL1       -0.2956
     27 C          -4.6696    1.1964    1.7695 C.3     1  UNL1        0.0382
     28 C          -5.6170    0.9201    2.9274 C.3     1  UNL1        0.0635
     29 O          -6.8306    0.4593    2.4232 O.3     1  UNL1       -0.3767
     30 C          -6.6582   -0.4633    1.3953 C.3     1  UNL1        0.0635
     31 C          -5.2994   -1.1322    1.4789 C.3     1  UNL1        0.0382
     32 H          -1.6171    0.7599    0.9602 H       1  UNL1        0.0594
     33 H          -3.1564    1.1444   -1.6744 H       1  UNL1        0.0252
     34 H          -3.2252    2.1709   -0.1658 H       1  UNL1        0.0252
     35 H          -1.7197    2.1055   -1.1025 H       1  UNL1        0.0252
     36 H          -2.3726   -1.3237   -2.2159 H       1  UNL1        0.0465
     37 H          -0.9001   -0.4502   -2.8325 H       1  UNL1        0.0465
     38 H          -0.3282   -2.6966   -2.9234 H       1  UNL1        0.0301
     39 H          -0.9021   -2.9968   -1.1913 H       1  UNL1        0.0301
     40 H           1.2702   -1.0870   -2.2139 H       1  UNL1        0.0573
     41 H           1.7449   -2.2846    0.3100 H       1  UNL1        0.1489
     42 H           4.7124   -1.2921    0.8332 H       1  UNL1        0.0643
     43 H           5.8741    0.1729    2.2762 H       1  UNL1        0.0624
     44 H           6.8299    2.4833    2.6009 H       1  UNL1        0.0632
     45 H           5.4876    3.6397   -1.2900 H       1  UNL1        0.0638
     46 H           4.3453    2.0993   -2.6311 H       1  UNL1        0.0624
     47 H           3.3750   -0.1823   -3.0107 H       1  UNL1        0.0637
     48 H          -3.7938    1.7403    2.1582 H       1  UNL1        0.0487
     49 H          -5.2649    1.7565    1.0223 H       1  UNL1        0.0487
     50 H          -5.8703    1.9035    3.4213 H       1  UNL1        0.0575
     51 H          -5.1916    0.2514    3.6896 H       1  UNL1        0.0575
     52 H          -6.7211    0.0469    0.4127 H       1  UNL1        0.0575
     53 H          -7.4840   -1.2211    1.4562 H       1  UNL1        0.0575
     54 H          -5.1488   -1.5219    2.5125 H       1  UNL1        0.0487
     55 H          -5.2591   -1.9709    0.7856 H       1  UNL1        0.0487
@<TRIPOS>BOND
     1     1     2    1
     2     1     3    1
     3     3     4    1
     4     4     5    1
     5     5     6    1
     6     6     7    1
     7     7     8    1
     8     8     9    2
     9     8    10    2
    10     8    11    1
    11    11    12   ar
    12    12    13   ar
    13    13    14   ar
    14    14    15   ar
    15    15    16   ar
    16    16    17    1
    17    16    18   ar
    18    18    19   ar
    19    19    20   ar
    20    20    21   ar
    21     6    22    1
    22    22    23    2
    23     1    24    1
    24    24    25    2
    25    24    26   am
    26    26    27    1
    27    27    28    1
    28    28    29    1
    29    29    30    1
    30    30    31    1
    31    22     3   am
    32    31    26    1
    33    21    11   ar
    34    19    13   ar
    35     1    32    1
    36     2    33    1
    37     2    34    1
    38     2    35    1
    39     4    36    1
    40     4    37    1
    41     5    38    1
    42     5    39    1
    43     6    40    1
    44     7    41    1
    45    12    42    1
    46    14    43    1
    47    15    44    1
    48    18    45    1
    49    20    46    1
    50    21    47    1
    51    27    48    1
    52    27    49    1
    53    28    50    1
    54    28    51    1
    55    30    52    1
    56    30    53    1
    57    31    54    1
    58    31    55    1
