@<TRIPOS>MOLECULE
*****
 56 60 0 0 0
SMALL
GASTEIGER

@<TRIPOS>ATOM
      1 N          -2.6019   -1.6396    3.4331 N.pl3   1  UNL1       -0.2440
      2 C          -1.8995   -1.1917    2.2642 C.cat   1  UNL1        0.4035
      3 N          -1.4309   -0.0112    2.0798 N.2     1  UNL1       -0.0797
      4 C          -0.7724    0.1234    0.7929 C.3     1  UNL1        0.2765
      5 C          -1.4452    1.1781   -0.0209 C.ar    1  UNL1        0.0123
      6 C          -2.5095    1.8882    0.4897 C.ar    1  UNL1       -0.0505
      7 C          -3.1467    2.8780   -0.2592 C.ar    1  UNL1       -0.0192
      8 C          -2.6845    3.1370   -1.5410 C.ar    1  UNL1        0.1300
      9 O          -3.3030    4.1278   -2.3243 O.3     1  UNL1       -0.4057
     10 C          -2.8642    5.4722   -2.2920 C.3     1  UNL1        0.5752
     11 F          -2.9811    5.9749   -1.0080 F       1  UNL1       -0.1328
     12 F          -3.6766    6.2021   -3.1378 F       1  UNL1       -0.1328
     13 F          -1.5720    5.6344   -2.7061 F       1  UNL1       -0.1328
     14 C          -1.6164    2.4050   -2.0174 C.ar    1  UNL1       -0.0192
     15 C          -0.9785    1.4248   -1.2873 C.ar    1  UNL1       -0.0505
     16 C           0.6219    0.5564    0.9912 C.ar    1  UNL1        0.0126
     17 C           0.7722    1.6967    1.7868 C.ar    1  UNL1       -0.0539
     18 C           2.0408    2.1710    2.0238 C.ar    1  UNL1       -0.0608
     19 C           3.1511    1.5318    1.4845 C.ar    1  UNL1       -0.0539
     20 C           2.9967    0.4002    0.6950 C.ar    1  UNL1       -0.0132
     21 C           4.1887   -0.2432    0.1445 C.ar    1  UNL1        0.0365
     22 C           5.3079   -0.4728    0.9523 C.ar    1  UNL1       -0.0483
     23 C           6.3854   -1.0836    0.3492 C.ar    1  UNL1       -0.0428
     24 C           6.3837   -1.4600   -0.9879 C.ar    1  UNL1        0.0307
     25 N           5.2749   -1.2085   -1.7028 N.ar    1  UNL1       -0.2271
     26 C           4.1777   -0.6133   -1.1831 C.ar    1  UNL1        0.2209
     27 F           3.0744   -0.3708   -1.9262 F       1  UNL1       -0.1832
     28 C           1.7252   -0.0503    0.4756 C.ar    1  UNL1       -0.0461
     29 C          -0.9104   -1.2091    0.1578 C.2     1  UNL1        0.3456
     30 N          -0.4891   -1.5738   -1.0073 N.2     1  UNL1       -0.0828
     31 C          -0.6714   -2.9237   -1.5579 C.3     1  UNL1        0.1321
     32 C          -2.0953   -3.3512   -1.6035 C.3     1  UNL1       -0.0075
     33 C          -2.8051   -3.5039   -0.3227 C.3     1  UNL1       -0.0125
     34 C          -1.9830   -3.3967    0.9283 C.3     1  UNL1        0.0913
     35 N          -1.6261   -2.0010    1.1319 N.pl3   1  UNL1       -0.1309
     36 H          -2.0549   -1.9849    4.2726 H       1  UNL1        0.2420
     37 H          -3.6494   -1.6382    3.4878 H       1  UNL1        0.2420
     38 H          -2.8878    1.6942    1.5050 H       1  UNL1        0.0623
     39 H          -3.9744    3.4318    0.1348 H       1  UNL1        0.0654
     40 H          -1.2433    2.6039   -3.0317 H       1  UNL1        0.0654
     41 H          -0.1328    0.8817   -1.7310 H       1  UNL1        0.0623
     42 H          -0.0533    2.2289    2.2277 H       1  UNL1        0.0622
     43 H           2.1894    3.0547    2.6383 H       1  UNL1        0.0618
     44 H           4.1295    1.9112    1.6767 H       1  UNL1        0.0624
     45 H           5.3059   -0.1788    1.9924 H       1  UNL1        0.0625
     46 H           7.2782   -1.2761    0.9595 H       1  UNL1        0.0633
     47 H           7.2635   -1.9322   -1.3875 H       1  UNL1        0.0830
     48 H           1.5970   -0.9308   -0.1348 H       1  UNL1        0.0628
     49 H          -0.0154   -3.6480   -1.0175 H       1  UNL1        0.0790
     50 H          -0.2985   -2.8755   -2.6019 H       1  UNL1        0.0790
     51 H          -2.1290   -4.3042   -2.1708 H       1  UNL1        0.0306
     52 H          -2.6313   -2.6104   -2.2659 H       1  UNL1        0.0306
     53 H          -3.6062   -2.7113   -0.2355 H       1  UNL1        0.0303
     54 H          -3.3878   -4.4689   -0.3127 H       1  UNL1        0.0303
     55 H          -2.6415   -3.6929    1.7755 H       1  UNL1        0.0732
     56 H          -1.0954   -4.0516    0.9236 H       1  UNL1        0.0732
@<TRIPOS>BOND
     1     1     2    1
     2     2     3    2
     3     3     4    1
     4     4     5    1
     5     5     6   ar
     6     6     7   ar
     7     7     8   ar
     8     8     9    1
     9     9    10    1
    10    10    11    1
    11    10    12    1
    12    10    13    1
    13     8    14   ar
    14    14    15   ar
    15     4    16    1
    16    16    17   ar
    17    17    18   ar
    18    18    19   ar
    19    19    20   ar
    20    20    21    1
    21    21    22   ar
    22    22    23   ar
    23    23    24   ar
    24    24    25   ar
    25    25    26   ar
    26    26    27    1
    27    20    28   ar
    28     4    29    1
    29    29    30    2
    30    30    31    1
    31    31    32    1
    32    32    33    1
    33    33    34    1
    34    34    35    1
    35    35     2    1
    36    15     5   ar
    37    28    16   ar
    38    35    29    1
    39    26    21   ar
    40     1    36    1
    41     1    37    1
    42     6    38    1
    43     7    39    1
    44    14    40    1
    45    15    41    1
    46    17    42    1
    47    18    43    1
    48    19    44    1
    49    22    45    1
    50    23    46    1
    51    24    47    1
    52    28    48    1
    53    31    49    1
    54    31    50    1
    55    32    51    1
    56    32    52    1
    57    33    53    1
    58    33    54    1
    59    34    55    1
    60    34    56    1
