@<TRIPOS>MOLECULE
*****
 48 52 0 0 0
SMALL
GASTEIGER

@<TRIPOS>ATOM
      1 C          -3.3746   -4.1574    0.9924 C.3     1  UNL1       -0.0123
      2 N          -2.8394   -3.3104   -0.0126 N.3     1  UNL1       -0.2966
      3 C          -1.5034   -3.5142   -0.3763 C.3     1  UNL1        0.0171
      4 C          -0.7797   -2.3759   -0.9899 C.3     1  UNL1        0.0377
      5 N          -1.2362   -1.0779   -0.6147 N.ar    1  UNL1       -0.3247
      6 C          -2.4868   -0.9009   -0.2219 C.ar    1  UNL1        0.1250
      7 N          -2.7020    0.3943    0.0805 N.ar    1  UNL1       -0.2303
      8 C          -1.5141    1.0334   -0.1427 C.ar    1  UNL1        0.0971
      9 C          -1.3754    2.4600    0.0803 C.ar    1  UNL1        0.0026
     10 C          -1.3630    2.9362    1.3655 C.ar    1  UNL1       -0.0498
     11 C          -1.2378    4.3002    1.6435 C.ar    1  UNL1       -0.0258
     12 C          -1.1245    5.1830    0.5906 C.ar    1  UNL1        0.1234
     13 F          -1.0016    6.5179    0.8205 F       1  UNL1       -0.2055
     14 C          -1.1382    4.6912   -0.6983 C.ar    1  UNL1       -0.0258
     15 C          -1.2634    3.3279   -0.9688 C.ar    1  UNL1       -0.0498
     16 C          -0.6115    0.0963   -0.5765 C.ar    1  UNL1        0.0781
     17 C           0.7825    0.3960   -0.9222 C.ar    1  UNL1        0.0173
     18 C           1.1485    1.0928   -2.0536 C.ar    1  UNL1       -0.0477
     19 C           2.4751    1.3439   -2.3108 C.ar    1  UNL1       -0.0182
     20 C           3.4071    0.8801   -1.4098 C.ar    1  UNL1        0.1381
     21 N           4.7666    0.9570   -1.3664 N.ar    1  UNL1       -0.2353
     22 C           5.2399    0.3476   -0.2763 C.ar    1  UNL1        0.0588
     23 C           4.1484   -0.1464    0.4194 C.ar    1  UNL1        0.1280
     24 C           4.2401   -0.8820    1.6816 C.2     1  UNL1        0.2599
     25 N           3.0936   -1.3757    2.3529 N.am    1  UNL1       -0.3241
     26 O           5.3530   -1.1030    2.2193 O.2     1  UNL1       -0.2687
     27 N           3.0656    0.1950   -0.2955 N.ar    1  UNL1       -0.2949
     28 C           1.7553   -0.0508   -0.0454 C.ar    1  UNL1        0.0211
     29 C          -3.4125   -2.0430   -0.1693 C.3     1  UNL1        0.0570
     30 H          -2.7027   -5.0441    1.0886 H       1  UNL1        0.0391
     31 H          -3.6112   -3.6890    1.9431 H       1  UNL1        0.0391
     32 H          -4.3412   -4.5799    0.5987 H       1  UNL1        0.0391
     33 H          -0.9262   -3.9020    0.5142 H       1  UNL1        0.0444
     34 H          -1.4590   -4.3748   -1.1077 H       1  UNL1        0.0444
     35 H          -0.7663   -2.4561   -2.1171 H       1  UNL1        0.0505
     36 H           0.2973   -2.4583   -0.7057 H       1  UNL1        0.0505
     37 H          -1.4520    2.2417    2.1748 H       1  UNL1        0.0625
     38 H          -1.2278    4.6692    2.6481 H       1  UNL1        0.0646
     39 H          -1.0468    5.4155   -1.5022 H       1  UNL1        0.0646
     40 H          -1.2698    3.0046   -1.9959 H       1  UNL1        0.0625
     41 H           0.3548    1.4171   -2.7060 H       1  UNL1        0.0626
     42 H           2.7657    1.8803   -3.1826 H       1  UNL1        0.0654
     43 H           6.2686    0.2532    0.0144 H       1  UNL1        0.0853
     44 H           2.6685   -2.3039    2.1659 H       1  UNL1        0.1453
     45 H           2.6636   -0.7622    3.0726 H       1  UNL1        0.1453
     46 H           1.4749   -0.5940    0.8346 H       1  UNL1        0.0820
     47 H          -3.9856   -2.0294   -1.1434 H       1  UNL1        0.0506
     48 H          -4.2162   -1.9031    0.6101 H       1  UNL1        0.0506
@<TRIPOS>BOND
     1     1     2    1
     2     2     3    1
     3     3     4    1
     4     4     5    1
     5     5     6   ar
     6     6     7   ar
     7     7     8   ar
     8     8     9    1
     9     9    10   ar
    10    10    11   ar
    11    11    12   ar
    12    12    13    1
    13    12    14   ar
    14    14    15   ar
    15     8    16   ar
    16    16    17    1
    17    17    18   ar
    18    18    19   ar
    19    19    20   ar
    20    20    21   ar
    21    21    22   ar
    22    22    23   ar
    23    23    24    1
    24    24    25   am
    25    24    26    2
    26    23    27   ar
    27    27    28   ar
    28     6    29    1
    29    29     2    1
    30    16     5   ar
    31    28    17   ar
    32    15     9   ar
    33    27    20   ar
    34     1    30    1
    35     1    31    1
    36     1    32    1
    37     3    33    1
    38     3    34    1
    39     4    35    1
    40     4    36    1
    41    10    37    1
    42    11    38    1
    43    14    39    1
    44    15    40    1
    45    18    41    1
    46    19    42    1
    47    22    43    1
    48    25    44    1
    49    25    45    1
    50    28    46    1
    51    29    47    1
    52    29    48    1
