
     RDKit          3D

 48 52  0  0  0  0  0  0  0  0999 V2000
   -3.3746   -4.1574    0.9924 C   0  0  0  0  0  0  0  0  0  0  0  0
   -2.8394   -3.3104   -0.0126 N   0  0  0  0  0  0  0  0  0  0  0  0
   -1.5034   -3.5142   -0.3763 C   0  0  0  0  0  0  0  0  0  0  0  0
   -0.7797   -2.3759   -0.9899 C   0  0  0  0  0  0  0  0  0  0  0  0
   -1.2362   -1.0779   -0.6147 N   0  0  0  0  0  0  0  0  0  0  0  0
   -2.4868   -0.9009   -0.2219 C   0  0  0  0  0  0  0  0  0  0  0  0
   -2.7020    0.3943    0.0805 N   0  0  0  0  0  0  0  0  0  0  0  0
   -1.5141    1.0334   -0.1427 C   0  0  0  0  0  0  0  0  0  0  0  0
   -1.3754    2.4600    0.0803 C   0  0  0  0  0  0  0  0  0  0  0  0
   -1.3630    2.9362    1.3655 C   0  0  0  0  0  0  0  0  0  0  0  0
   -1.2378    4.3002    1.6435 C   0  0  0  0  0  0  0  0  0  0  0  0
   -1.1245    5.1830    0.5906 C   0  0  0  0  0  0  0  0  0  0  0  0
   -1.0016    6.5179    0.8205 F   0  0  0  0  0  0  0  0  0  0  0  0
   -1.1382    4.6912   -0.6983 C   0  0  0  0  0  0  0  0  0  0  0  0
   -1.2634    3.3279   -0.9688 C   0  0  0  0  0  0  0  0  0  0  0  0
   -0.6115    0.0963   -0.5765 C   0  0  0  0  0  0  0  0  0  0  0  0
    0.7825    0.3960   -0.9222 C   0  0  0  0  0  0  0  0  0  0  0  0
    1.1485    1.0928   -2.0536 C   0  0  0  0  0  0  0  0  0  0  0  0
    2.4751    1.3439   -2.3108 C   0  0  0  0  0  0  0  0  0  0  0  0
    3.4071    0.8801   -1.4098 C   0  0  0  0  0  0  0  0  0  0  0  0
    4.7666    0.9570   -1.3664 N   0  0  0  0  0  0  0  0  0  0  0  0
    5.2399    0.3476   -0.2763 C   0  0  0  0  0  0  0  0  0  0  0  0
    4.1484   -0.1464    0.4194 C   0  0  0  0  0  0  0  0  0  0  0  0
    4.2401   -0.8820    1.6816 C   0  0  0  0  0  0  0  0  0  0  0  0
    3.0936   -1.3757    2.3529 N   0  0  0  0  0  0  0  0  0  0  0  0
    5.3530   -1.1030    2.2193 O   0  0  0  0  0  0  0  0  0  0  0  0
    3.0656    0.1950   -0.2955 N   0  0  0  0  0  0  0  0  0  0  0  0
    1.7553   -0.0508   -0.0454 C   0  0  0  0  0  0  0  0  0  0  0  0
   -3.4125   -2.0430   -0.1693 C   0  0  0  0  0  0  0  0  0  0  0  0
   -2.7027   -5.0441    1.0886 H   0  0  0  0  0  0  0  0  0  0  0  0
   -3.6112   -3.6890    1.9431 H   0  0  0  0  0  0  0  0  0  0  0  0
   -4.3412   -4.5799    0.5987 H   0  0  0  0  0  0  0  0  0  0  0  0
   -0.9262   -3.9020    0.5142 H   0  0  0  0  0  0  0  0  0  0  0  0
   -1.4590   -4.3748   -1.1077 H   0  0  0  0  0  0  0  0  0  0  0  0
   -0.7663   -2.4561   -2.1171 H   0  0  0  0  0  0  0  0  0  0  0  0
    0.2973   -2.4583   -0.7057 H   0  0  0  0  0  0  0  0  0  0  0  0
   -1.4520    2.2417    2.1748 H   0  0  0  0  0  0  0  0  0  0  0  0
   -1.2278    4.6692    2.6481 H   0  0  0  0  0  0  0  0  0  0  0  0
   -1.0468    5.4155   -1.5022 H   0  0  0  0  0  0  0  0  0  0  0  0
   -1.2698    3.0046   -1.9959 H   0  0  0  0  0  0  0  0  0  0  0  0
    0.3548    1.4171   -2.7060 H   0  0  0  0  0  0  0  0  0  0  0  0
    2.7657    1.8803   -3.1826 H   0  0  0  0  0  0  0  0  0  0  0  0
    6.2686    0.2532    0.0144 H   0  0  0  0  0  0  0  0  0  0  0  0
    2.6685   -2.3039    2.1659 H   0  0  0  0  0  0  0  0  0  0  0  0
    2.6636   -0.7622    3.0726 H   0  0  0  0  0  0  0  0  0  0  0  0
    1.4749   -0.5940    0.8346 H   0  0  0  0  0  0  0  0  0  0  0  0
   -3.9856   -2.0294   -1.1434 H   0  0  0  0  0  0  0  0  0  0  0  0
   -4.2162   -1.9031    0.6101 H   0  0  0  0  0  0  0  0  0  0  0  0
  1  2  1  0
  2  3  1  0
  3  4  1  0
  4  5  1  0
  5  6  1  0
  6  7  2  0
  7  8  1  0
  8  9  1  0
  9 10  2  0
 10 11  1  0
 11 12  2  0
 12 13  1  0
 12 14  1  0
 14 15  2  0
  8 16  2  0
 16 17  1  0
 17 18  1  0
 18 19  2  0
 19 20  1  0
 20 21  2  0
 21 22  1  0
 22 23  2  0
 23 24  1  0
 24 25  1  0
 24 26  2  0
 23 27  1  0
 27 28  1  0
  6 29  1  0
 29  2  1  0
 16  5  1  0
 28 17  2  0
 15  9  1  0
 27 20  1  0
  1 30  1  0
  1 31  1  0
  1 32  1  0
  3 33  1  0
  3 34  1  0
  4 35  1  0
  4 36  1  0
 10 37  1  0
 11 38  1  0
 14 39  1  0
 15 40  1  0
 18 41  1  0
 19 42  1  0
 22 43  1  0
 25 44  1  0
 25 45  1  0
 28 46  1  0
 29 47  1  0
 29 48  1  0
M  END
$$$$
