@<TRIPOS>MOLECULE
*****
 57 61 0 0 0
SMALL
GASTEIGER

@<TRIPOS>ATOM
      1 C          -6.5967    0.8790    1.2142 C.3     1  UNL1       -0.0346
      2 C          -7.4391    0.2110    0.1714 C.3     1  UNL1        0.0799
      3 C          -7.7519    1.2441   -0.8909 C.3     1  UNL1       -0.0346
      4 O          -8.6108   -0.2460    0.7565 O.3     1  UNL1       -0.3873
      5 C          -6.7113   -0.9763   -0.4267 C.3     1  UNL1        0.0698
      6 N          -5.4636   -0.5036   -1.0425 N.ar    1  UNL1       -0.2680
      7 C          -4.2813   -0.4143   -0.4079 C.ar    1  UNL1        0.0379
      8 C          -3.3389    0.0732   -1.2993 C.ar    1  UNL1        0.0768
      9 C          -1.9159    0.3265   -1.0208 C.ar    1  UNL1        0.2615
     10 N          -1.2810    0.1103    0.1346 N.ar    1  UNL1       -0.1908
     11 C           0.0283    0.4681    0.0029 C.ar    1  UNL1        0.1825
     12 C           1.0543    0.3689    1.0708 C.3     1  UNL1        0.0586
     13 C           2.4475    0.2182    0.6336 C.ar    1  UNL1       -0.0337
     14 C           3.3530    1.2688    0.7540 C.ar    1  UNL1       -0.0570
     15 C           4.6557    1.1261    0.3385 C.ar    1  UNL1       -0.0537
     16 C           5.1351   -0.0546   -0.2159 C.ar    1  UNL1       -0.0150
     17 C           6.5269   -0.1711   -0.6537 C.ar    1  UNL1        0.0185
     18 C           7.1781    0.9477   -1.1429 C.ar    1  UNL1        0.0403
     19 N           8.4546    0.8678   -1.5516 N.ar    1  UNL1       -0.2225
     20 C           9.1709   -0.2719   -1.5159 C.ar    1  UNL1        0.2125
     21 N          10.5243   -0.3264   -1.9571 N.pl3   1  UNL1       -0.3275
     22 N           8.5400   -1.3629   -1.0404 N.ar    1  UNL1       -0.2225
     23 C           7.2561   -1.3385   -0.6157 C.ar    1  UNL1        0.0403
     24 C           4.2378   -1.0902   -0.3329 C.ar    1  UNL1       -0.0537
     25 C           2.9154   -0.9509    0.0868 C.ar    1  UNL1       -0.0570
     26 C           0.6473   -0.6520    2.1345 C.3     1  UNL1       -0.0362
     27 C          -0.1222    0.4733    2.8072 C.3     1  UNL1       -0.0507
     28 C           0.8210    1.4421    2.1152 C.3     1  UNL1       -0.0362
     29 N           0.1427    0.8989   -1.2599 N.ar    1  UNL1       -0.0600
     30 O          -1.0260    0.8049   -1.8480 O.2     1  UNL1       -0.3327
     31 C          -4.0019    0.2690   -2.4815 C.ar    1  UNL1        0.0617
     32 N          -5.2796   -0.0935   -2.2751 N.ar    1  UNL1       -0.1788
     33 H          -5.6456    1.2686    0.7935 H       1  UNL1        0.0258
     34 H          -7.1567    1.6824    1.6994 H       1  UNL1        0.0258
     35 H          -6.3086    0.1638    2.0325 H       1  UNL1        0.0258
     36 H          -6.7948    1.5917   -1.3430 H       1  UNL1        0.0258
     37 H          -8.3579    0.7636   -1.6805 H       1  UNL1        0.0258
     38 H          -8.2423    2.0950   -0.3958 H       1  UNL1        0.0258
     39 H          -8.4023   -0.6966    1.6294 H       1  UNL1        0.2102
     40 H          -7.3170   -1.5048   -1.1651 H       1  UNL1        0.0537
     41 H          -6.4355   -1.6435    0.4185 H       1  UNL1        0.0537
     42 H          -4.0666   -0.6741    0.6368 H       1  UNL1        0.0834
     43 H           2.9855    2.1939    1.1865 H       1  UNL1        0.0621
     44 H           5.3674    1.9342    0.4279 H       1  UNL1        0.0624
     45 H           6.6127    1.8815   -1.1795 H       1  UNL1        0.0837
     46 H          11.2941   -0.5817   -1.3057 H       1  UNL1        0.1452
     47 H          10.7805   -0.1127   -2.9420 H       1  UNL1        0.1452
     48 H           6.7709   -2.2204   -0.2389 H       1  UNL1        0.0837
     49 H           4.5779   -2.0311   -0.7630 H       1  UNL1        0.0624
     50 H           2.2139   -1.7731   -0.0097 H       1  UNL1        0.0621
     51 H           1.5134   -0.9547    2.7576 H       1  UNL1        0.0278
     52 H           0.0002   -1.4396    1.7543 H       1  UNL1        0.0278
     53 H          -1.1447    0.6121    2.4593 H       1  UNL1        0.0266
     54 H           0.0146    0.4671    3.9272 H       1  UNL1        0.0266
     55 H           1.6869    1.6414    2.7757 H       1  UNL1        0.0278
     56 H           0.3293    2.3430    1.6890 H       1  UNL1        0.0278
     57 H          -3.5439    0.6517   -3.4056 H       1  UNL1        0.0855
@<TRIPOS>BOND
     1     1     2    1
     2     2     3    1
     3     2     4    1
     4     2     5    1
     5     5     6    1
     6     6     7   ar
     7     7     8   ar
     8     8     9    1
     9     9    10   ar
    10    10    11   ar
    11    11    12    1
    12    12    13    1
    13    13    14   ar
    14    14    15   ar
    15    15    16   ar
    16    16    17    1
    17    17    18   ar
    18    18    19   ar
    19    19    20   ar
    20    20    21    1
    21    20    22   ar
    22    22    23   ar
    23    16    24   ar
    24    24    25   ar
    25    12    26    1
    26    26    27    1
    27    27    28    1
    28    11    29   ar
    29    29    30   ar
    30     8    31   ar
    31    31    32   ar
    32    32     6   ar
    33    30     9   ar
    34    28    12    1
    35    25    13   ar
    36    23    17   ar
    37     1    33    1
    38     1    34    1
    39     1    35    1
    40     3    36    1
    41     3    37    1
    42     3    38    1
    43     4    39    1
    44     5    40    1
    45     5    41    1
    46     7    42    1
    47    14    43    1
    48    15    44    1
    49    18    45    1
    50    21    46    1
    51    21    47    1
    52    23    48    1
    53    24    49    1
    54    25    50    1
    55    26    51    1
    56    26    52    1
    57    27    53    1
    58    27    54    1
    59    28    55    1
    60    28    56    1
    61    31    57    1
