@<TRIPOS>MOLECULE
*****
 69 71 0 0 0
SMALL
GASTEIGER

@<TRIPOS>ATOM
      1 C           6.8371   -0.3220    2.0720 C.3     1  UNL1       -0.0130
      2 N           6.5261    0.9681    1.4980 N.3     1  UNL1       -0.3069
      3 C           7.7840    1.4629    0.9190 C.3     1  UNL1       -0.0130
      4 C           5.5562    0.8873    0.4388 C.3     1  UNL1        0.0141
      5 C           4.2172    0.4891    1.0050 C.3     1  UNL1        0.0275
      6 N           3.1947    0.3869   -0.0151 N.am    1  UNL1       -0.2987
      7 C           2.9796   -0.8524   -0.6794 C.3     1  UNL1        0.0305
      8 C           1.4731   -1.2241   -0.7647 C.3     1  UNL1        0.0308
      9 N           0.7300   -0.2996   -1.5322 N.am    1  UNL1       -0.2955
     10 C          -0.6463   -0.3369   -1.6230 C.2     1  UNL1        0.2490
     11 O          -1.1515    0.6124   -2.3696 O.2     1  UNL1       -0.2699
     12 C          -1.6423   -1.2577   -1.0246 C.ar    1  UNL1        0.0657
     13 C          -1.3881   -2.3803   -0.3251 C.ar    1  UNL1       -0.0370
     14 C          -2.3696   -3.1459    0.1572 C.ar    1  UNL1       -0.0023
     15 C          -2.3854   -4.3964    0.9412 C.3     1  UNL1       -0.0064
     16 C          -2.3900   -5.5537   -0.0346 C.3     1  UNL1       -0.0556
     17 C          -1.2258   -4.4292    1.8854 C.3     1  UNL1       -0.0556
     18 C          -3.6586   -4.4649    1.7934 C.3     1  UNL1       -0.0556
     19 S          -3.8567   -2.2874   -0.3731 S.2     1  UNL1       -0.0771
     20 C          -2.9833   -0.9500   -1.2118 C.ar    1  UNL1        0.0853
     21 N          -3.6324    0.1158   -1.8740 N.am    1  UNL1       -0.2629
     22 C          -3.9408    1.2727   -1.1258 C.2     1  UNL1        0.3085
     23 O          -3.6288    1.3202    0.1110 O.2     1  UNL1       -0.2521
     24 N          -4.5903    2.4159   -1.6653 N.am    1  UNL1       -0.2678
     25 C          -4.8747    3.5492   -0.8578 C.ar    1  UNL1        0.0546
     26 C          -6.0899    3.6037   -0.1984 C.ar    1  UNL1       -0.0389
     27 C          -6.4072    4.6855    0.5991 C.ar    1  UNL1       -0.0585
     28 C          -5.5154    5.7233    0.7464 C.ar    1  UNL1       -0.0419
     29 C          -4.3011    5.6932    0.1018 C.ar    1  UNL1        0.0610
     30 CL         -3.2118    7.0417    0.3305 Cl      1  UNL1       -0.0820
     31 C          -3.9935    4.5993   -0.6977 C.ar    1  UNL1        0.0804
     32 CL         -2.4573    4.5542   -1.5179 Cl      1  UNL1       -0.0801
     33 C           1.3803    0.8024   -2.3181 C.3     1  UNL1        0.0233
     34 C           1.5618    1.9479   -1.3636 C.3     1  UNL1        0.0399
     35 C           2.4786    1.6086   -0.2504 C.2     1  UNL1        0.2171
     36 O           2.6881    2.4781    0.6313 O.2     1  UNL1       -0.2755
     37 H           6.8580   -1.1331    1.2916 H       1  UNL1        0.0391
     38 H           6.1752   -0.5934    2.9152 H       1  UNL1        0.0391
     39 H           7.8675   -0.2638    2.4773 H       1  UNL1        0.0391
     40 H           8.2933    0.5732    0.4947 H       1  UNL1        0.0391
     41 H           7.6174    2.2086    0.1375 H       1  UNL1        0.0391
     42 H           8.4598    1.8359    1.7321 H       1  UNL1        0.0391
     43 H           5.9316    0.1916   -0.3282 H       1  UNL1        0.0442
     44 H           5.4470    1.9157    0.0258 H       1  UNL1        0.0442
     45 H           3.9006    1.2893    1.7036 H       1  UNL1        0.0477
     46 H           4.2802   -0.4695    1.5725 H       1  UNL1        0.0477
     47 H           3.4273   -1.7235   -0.1578 H       1  UNL1        0.0480
     48 H           3.3437   -0.8041   -1.7127 H       1  UNL1        0.0480
     49 H           1.1502   -1.1894    0.2987 H       1  UNL1        0.0480
     50 H           1.4867   -2.2183   -1.2319 H       1  UNL1        0.0480
     51 H          -0.3370   -2.7342   -0.1237 H       1  UNL1        0.0634
     52 H          -1.3614   -5.8792   -0.2962 H       1  UNL1        0.0238
     53 H          -2.8691   -5.2607   -0.9910 H       1  UNL1        0.0238
     54 H          -2.9500   -6.4288    0.3419 H       1  UNL1        0.0238
     55 H          -0.4412   -5.0901    1.4503 H       1  UNL1        0.0238
     56 H          -0.8394   -3.4332    2.1552 H       1  UNL1        0.0238
     57 H          -1.5108   -4.9268    2.8500 H       1  UNL1        0.0238
     58 H          -3.4934   -5.3143    2.4960 H       1  UNL1        0.0238
     59 H          -4.5573   -4.6177    1.1780 H       1  UNL1        0.0238
     60 H          -3.7129   -3.5345    2.3996 H       1  UNL1        0.0238
     61 H          -3.8951    0.0870   -2.8950 H       1  UNL1        0.1569
     62 H          -4.8597    2.4154   -2.6705 H       1  UNL1        0.1564
     63 H          -6.8294    2.8171   -0.2779 H       1  UNL1        0.0637
     64 H          -7.3542    4.7655    1.1359 H       1  UNL1        0.0619
     65 H          -5.7628    6.5700    1.3698 H       1  UNL1        0.0633
     66 H           2.2869    0.4652   -2.8064 H       1  UNL1        0.0469
     67 H           0.6512    1.1211   -3.0942 H       1  UNL1        0.0469
     68 H           0.5411    2.2073   -0.9732 H       1  UNL1        0.0374
     69 H           1.9900    2.8337   -1.8753 H       1  UNL1        0.0374
@<TRIPOS>BOND
     1     1     2    1
     2     2     3    1
     3     2     4    1
     4     4     5    1
     5     5     6    1
     6     6     7    1
     7     7     8    1
     8     8     9    1
     9     9    10   am
    10    10    11    2
    11    10    12    1
    12    12    13   ar
    13    13    14   ar
    14    14    15    1
    15    15    16    1
    16    15    17    1
    17    15    18    1
    18    14    19   ar
    19    19    20   ar
    20    20    21    1
    21    21    22   am
    22    22    23    2
    23    22    24   am
    24    24    25    1
    25    25    26   ar
    26    26    27   ar
    27    27    28   ar
    28    28    29   ar
    29    29    30    1
    30    29    31   ar
    31    31    32    1
    32     9    33    1
    33    33    34    1
    34    34    35    1
    35    35    36    2
    36    35     6   am
    37    20    12   ar
    38    31    25   ar
    39     1    37    1
    40     1    38    1
    41     1    39    1
    42     3    40    1
    43     3    41    1
    44     3    42    1
    45     4    43    1
    46     4    44    1
    47     5    45    1
    48     5    46    1
    49     7    47    1
    50     7    48    1
    51     8    49    1
    52     8    50    1
    53    13    51    1
    54    16    52    1
    55    16    53    1
    56    16    54    1
    57    17    55    1
    58    17    56    1
    59    17    57    1
    60    18    58    1
    61    18    59    1
    62    18    60    1
    63    21    61    1
    64    24    62    1
    65    26    63    1
    66    27    64    1
    67    28    65    1
    68    33    66    1
    69    33    67    1
    70    34    68    1
    71    34    69    1
