@<TRIPOS>MOLECULE
*****
 52 55 0 0 0
SMALL
GASTEIGER

@<TRIPOS>ATOM
      1 O           9.6888    1.1552    0.3208 O.2     1  UNL1       -0.2451
      2 C           8.5995    1.7342    0.5674 C.2     1  UNL1        0.3368
      3 O           8.5901    3.0292    1.0182 O.3     1  UNL1       -0.4771
      4 C           7.3735    0.9591    0.3489 C.ar    1  UNL1        0.0604
      5 C           6.1567    1.5542    0.6065 C.ar    1  UNL1       -0.0442
      6 C           4.9862    0.8287    0.4028 C.ar    1  UNL1       -0.0177
      7 C           5.0007   -0.4687   -0.0491 C.ar    1  UNL1        0.1392
      8 O           3.8559   -1.1901   -0.2524 O.3     1  UNL1       -0.4873
      9 C           2.5382   -0.7990   -0.0615 C.3     1  UNL1        0.1031
     10 C           1.6935   -0.9191   -1.3123 C.3     1  UNL1        0.0002
     11 C           0.3404   -0.2833   -0.9656 C.3     1  UNL1        0.0195
     12 N          -0.2546   -1.0834    0.0830 N.am    1  UNL1       -0.2854
     13 C          -1.5665   -0.8624    0.5631 C.2     1  UNL1        0.3024
     14 O          -2.0272   -1.5773    1.4633 O.2     1  UNL1       -0.2526
     15 N          -2.3306    0.1940   -0.0135 N.am    1  UNL1       -0.2958
     16 C          -3.6764    0.4454    0.4560 C.3     1  UNL1        0.0320
     17 C          -4.1869    1.8418    0.5420 C.3     1  UNL1       -0.0254
     18 C          -4.6399    0.9763   -0.5594 C.3     1  UNL1        0.0043
     19 C          -6.0623    0.5277   -0.4746 C.ar    1  UNL1       -0.0425
     20 C          -6.6398    0.2687    0.7366 C.ar    1  UNL1       -0.0582
     21 C          -7.9571   -0.1477    0.8265 C.ar    1  UNL1       -0.0615
     22 C          -8.6827   -0.2971   -0.3470 C.ar    1  UNL1       -0.0617
     23 C          -8.1071   -0.0382   -1.5657 C.ar    1  UNL1       -0.0615
     24 C          -6.7881    0.3769   -1.6284 C.ar    1  UNL1       -0.0582
     25 C           0.5343   -2.1501    0.6554 C.3     1  UNL1        0.0195
     26 C           1.9404   -1.7617    0.9742 C.3     1  UNL1        0.0002
     27 C           6.2220   -1.0554   -0.3040 C.ar    1  UNL1        0.0833
     28 CL          6.3511   -2.7033   -0.8827 Cl      1  UNL1       -0.0797
     29 C           7.3974   -0.3391   -0.1038 C.ar    1  UNL1       -0.0259
     30 H           9.4525    3.5679    0.9428 H       1  UNL1        0.2954
     31 H           6.1573    2.5757    0.9618 H       1  UNL1        0.0627
     32 H           4.0629    1.3406    0.6193 H       1  UNL1        0.0655
     33 H           2.3916    0.2374    0.3053 H       1  UNL1        0.0734
     34 H           2.0947   -0.3265   -2.1468 H       1  UNL1        0.0316
     35 H           1.4837   -1.9483   -1.6019 H       1  UNL1        0.0316
     36 H           0.5062    0.7218   -0.5524 H       1  UNL1        0.0466
     37 H          -0.3455   -0.2999   -1.8374 H       1  UNL1        0.0466
     38 H          -1.8958    0.7568   -0.7597 H       1  UNL1        0.1505
     39 H          -4.0247   -0.2211    1.2535 H       1  UNL1        0.0505
     40 H          -3.4272    2.6514    0.3710 H       1  UNL1        0.0290
     41 H          -4.8913    2.1074    1.3555 H       1  UNL1        0.0290
     42 H          -4.2416    1.1670   -1.5753 H       1  UNL1        0.0367
     43 H          -6.0917    0.3795    1.6552 H       1  UNL1        0.0620
     44 H          -8.4068   -0.3492    1.7669 H       1  UNL1        0.0618
     45 H          -9.7184   -0.6192   -0.3569 H       1  UNL1        0.0618
     46 H          -8.6662   -0.1522   -2.4883 H       1  UNL1        0.0618
     47 H          -6.3785    0.5690   -2.6156 H       1  UNL1        0.0620
     48 H           0.0735   -2.5150    1.6175 H       1  UNL1        0.0466
     49 H           0.5464   -3.0501   -0.0042 H       1  UNL1        0.0466
     50 H           2.0648   -1.2870    1.9576 H       1  UNL1        0.0316
     51 H           2.5419   -2.7099    1.0137 H       1  UNL1        0.0316
     52 H           8.3627   -0.8112   -0.3082 H       1  UNL1        0.0641
@<TRIPOS>BOND
     1     1     2    2
     2     2     3    1
     3     2     4    1
     4     4     5   ar
     5     5     6   ar
     6     6     7   ar
     7     7     8    1
     8     8     9    1
     9     9    10    1
    10    10    11    1
    11    11    12    1
    12    12    13   am
    13    13    14    2
    14    13    15   am
    15    15    16    1
    16    16    17    1
    17    17    18    1
    18    18    19    1
    19    19    20   ar
    20    20    21   ar
    21    21    22   ar
    22    22    23   ar
    23    23    24   ar
    24    12    25    1
    25    25    26    1
    26     7    27   ar
    27    27    28    1
    28    27    29   ar
    29    29     4   ar
    30    26     9    1
    31    18    16    1
    32    24    19   ar
    33     3    30    1
    34     5    31    1
    35     6    32    1
    36     9    33    1
    37    10    34    1
    38    10    35    1
    39    11    36    1
    40    11    37    1
    41    15    38    1
    42    16    39    1
    43    17    40    1
    44    17    41    1
    45    18    42    1
    46    20    43    1
    47    21    44    1
    48    22    45    1
    49    23    46    1
    50    24    47    1
    51    25    48    1
    52    25    49    1
    53    26    50    1
    54    26    51    1
    55    29    52    1
