@<TRIPOS>MOLECULE
*****
 16 16 0 0 0
SMALL
GASTEIGER

@<TRIPOS>ATOM
      1 O          -3.0164    0.3362    1.1677 O.2     1  UNL1       -0.2451
      2 C          -2.3548   -0.0489    0.1749 C.2     1  UNL1        0.3368
      3 O          -3.0897   -0.4892   -0.9142 O.3     1  UNL1       -0.4771
      4 C          -0.8925   -0.0411    0.1496 C.ar    1  UNL1        0.0591
      5 C          -0.1912   -0.4710   -0.9579 C.ar    1  UNL1       -0.0443
      6 C           1.1880   -0.4600   -0.9725 C.ar    1  UNL1       -0.0194
      7 C           1.9411   -0.0262    0.0997 C.ar    1  UNL1        0.1169
      8 O           3.3288   -0.0271    0.0547 O.3     1  UNL1       -0.5068
      9 C           1.2348    0.4026    1.2043 C.ar    1  UNL1       -0.0194
     10 C          -0.1458    0.3941    1.2257 C.ar    1  UNL1       -0.0443
     11 H          -3.9636   -0.0414   -1.2079 H       1  UNL1        0.2954
     12 H          -0.7794   -0.8105   -1.7972 H       1  UNL1        0.0627
     13 H           1.7247   -0.8039   -1.8577 H       1  UNL1        0.0654
     14 H           3.8595    0.6075   -0.5198 H       1  UNL1        0.2921
     15 H           1.8352    0.7439    2.0480 H       1  UNL1        0.0654
     16 H          -0.6786    0.7349    2.1026 H       1  UNL1        0.0627
@<TRIPOS>BOND
     1     1     2    2
     2     2     3    1
     3     2     4    1
     4     4     5   ar
     5     5     6   ar
     6     6     7   ar
     7     7     8    1
     8     7     9   ar
     9     9    10   ar
    10    10     4   ar
    11     3    11    1
    12     5    12    1
    13     6    13    1
    14     8    14    1
    15     9    15    1
    16    10    16    1
