
     RDKit          3D

 16 16  0  0  0  0  0  0  0  0999 V2000
   -3.0164    0.3362    1.1677 O   0  0  0  0  0  0  0  0  0  0  0  0
   -2.3548   -0.0489    0.1749 C   0  0  0  0  0  0  0  0  0  0  0  0
   -3.0897   -0.4892   -0.9142 O   0  0  0  0  0  0  0  0  0  0  0  0
   -0.8925   -0.0411    0.1496 C   0  0  0  0  0  0  0  0  0  0  0  0
   -0.1912   -0.4710   -0.9579 C   0  0  0  0  0  0  0  0  0  0  0  0
    1.1880   -0.4600   -0.9725 C   0  0  0  0  0  0  0  0  0  0  0  0
    1.9411   -0.0262    0.0997 C   0  0  0  0  0  0  0  0  0  0  0  0
    3.3288   -0.0271    0.0547 O   0  0  0  0  0  0  0  0  0  0  0  0
    1.2348    0.4026    1.2043 C   0  0  0  0  0  0  0  0  0  0  0  0
   -0.1458    0.3941    1.2257 C   0  0  0  0  0  0  0  0  0  0  0  0
   -3.9636   -0.0414   -1.2079 H   0  0  0  0  0  0  0  0  0  0  0  0
   -0.7794   -0.8105   -1.7972 H   0  0  0  0  0  0  0  0  0  0  0  0
    1.7247   -0.8039   -1.8577 H   0  0  0  0  0  0  0  0  0  0  0  0
    3.8595    0.6075   -0.5198 H   0  0  0  0  0  0  0  0  0  0  0  0
    1.8352    0.7439    2.0480 H   0  0  0  0  0  0  0  0  0  0  0  0
   -0.6786    0.7349    2.1026 H   0  0  0  0  0  0  0  0  0  0  0  0
  1  2  2  0
  2  3  1  0
  2  4  1  0
  4  5  2  0
  5  6  1  0
  6  7  2  0
  7  8  1  0
  7  9  1  0
  9 10  2  0
 10  4  1  0
  3 11  1  0
  5 12  1  0
  6 13  1  0
  8 14  1  0
  9 15  1  0
 10 16  1  0
M  END
$$$$
