@<TRIPOS>MOLECULE
*****
 40 43 0 0 0
SMALL
GASTEIGER

@<TRIPOS>ATOM
      1 C           7.1265    0.6182   -0.1753 C.3     1  UNL1        0.0004
      2 N           5.6859    0.5678   -0.2900 N.am    1  UNL1       -0.3144
      3 C           4.8816   -0.2622    0.5305 C.2     1  UNL1        0.2439
      4 O           5.5021   -0.9640    1.3776 O.2     1  UNL1       -0.2702
      5 C           3.4175   -0.3311    0.4333 C.ar    1  UNL1        0.0373
      6 C           2.7181   -1.1791    1.2778 C.ar    1  UNL1       -0.0490
      7 C           1.3448   -1.2858    1.2329 C.ar    1  UNL1       -0.0533
      8 C           0.6107   -0.5295    0.3200 C.ar    1  UNL1       -0.0175
      9 C          -0.7792   -0.6168    0.2537 C.ar    1  UNL1       -0.0477
     10 C          -1.5128    0.1294   -0.6462 C.ar    1  UNL1       -0.0096
     11 C          -2.9679    0.0705   -0.7487 C.3     1  UNL1        0.1337
     12 O          -3.3679    0.8491   -1.8520 O.3     1  UNL1       -0.3777
     13 C          -3.5091   -1.3166   -0.9447 C.3     1  UNL1        0.0039
     14 C          -4.8949   -1.2707   -0.3082 C.3     1  UNL1        0.0278
     15 N          -4.7405   -0.2385    0.7199 N.ar    1  UNL1       -0.3312
     16 C          -5.3330    0.2076    1.8430 C.ar    1  UNL1        0.0962
     17 N          -4.6105    1.2443    2.2944 N.ar    1  UNL1       -0.2437
     18 C          -3.5727    1.4678    1.4847 C.ar    1  UNL1        0.0518
     19 C          -3.6624    0.5185    0.4832 C.ar    1  UNL1        0.0745
     20 C          -0.8002    0.9657   -1.4762 C.ar    1  UNL1       -0.0549
     21 C           0.5702    1.0736   -1.4347 C.ar    1  UNL1       -0.0537
     22 C           1.2935    0.3249   -0.5332 C.ar    1  UNL1       -0.0171
     23 C           2.6820    0.4055   -0.4582 C.ar    1  UNL1       -0.0419
     24 H           7.5763    0.0378   -1.0090 H       1  UNL1        0.0426
     25 H           7.5174    0.2455    0.7702 H       1  UNL1        0.0426
     26 H           7.4264    1.6858   -0.2844 H       1  UNL1        0.0426
     27 H           5.2133    1.1626   -1.0018 H       1  UNL1        0.1487
     28 H           3.3131   -1.7604    1.9834 H       1  UNL1        0.0625
     29 H           0.8106   -1.9596    1.9060 H       1  UNL1        0.0624
     30 H          -1.3079   -1.2736    0.9085 H       1  UNL1        0.0627
     31 H          -3.2854    1.8002   -1.5183 H       1  UNL1        0.2111
     32 H          -2.8558   -2.0616   -0.4763 H       1  UNL1        0.0317
     33 H          -3.5981   -1.5140   -2.0344 H       1  UNL1        0.0317
     34 H          -5.0922   -2.2603    0.1037 H       1  UNL1        0.0493
     35 H          -5.6520   -1.0171   -1.0561 H       1  UNL1        0.0493
     36 H          -6.2439   -0.1903    2.3215 H       1  UNL1        0.1029
     37 H          -2.8447    2.2417    1.6281 H       1  UNL1        0.0849
     38 H          -1.3227    1.5869   -2.2153 H       1  UNL1        0.0621
     39 H           1.0691    1.7473   -2.1119 H       1  UNL1        0.0624
     40 H           3.1949    1.0805   -1.1355 H       1  UNL1        0.0631
@<TRIPOS>BOND
     1     1     2    1
     2     2     3   am
     3     3     4    2
     4     3     5    1
     5     5     6   ar
     6     6     7   ar
     7     7     8   ar
     8     8     9   ar
     9     9    10   ar
    10    10    11    1
    11    11    12    1
    12    11    13    1
    13    13    14    1
    14    14    15    1
    15    15    16   ar
    16    16    17   ar
    17    17    18   ar
    18    18    19   ar
    19    10    20   ar
    20    20    21   ar
    21    21    22   ar
    22    22    23   ar
    23    23     5   ar
    24    22     8   ar
    25    19    11    1
    26    19    15   ar
    27     1    24    1
    28     1    25    1
    29     1    26    1
    30     2    27    1
    31     6    28    1
    32     7    29    1
    33     9    30    1
    34    12    31    1
    35    13    32    1
    36    13    33    1
    37    14    34    1
    38    14    35    1
    39    16    36    1
    40    18    37    1
    41    20    38    1
    42    21    39    1
    43    23    40    1
