@<TRIPOS>MOLECULE
*****
 49 52 0 0 0
SMALL
GASTEIGER

@<TRIPOS>ATOM
      1 C           2.6281   -0.5690   -1.8531 C.3     1  UNL1        0.0093
      2 N           1.9203    0.2363   -0.9273 N.3     1  UNL1       -0.1749
      3 C           0.5421    0.1456   -0.9942 C.3     1  UNL1        0.0498
      4 C          -0.2532    1.2799   -1.5226 C.3     1  UNL1       -0.0287
      5 C          -1.4655    1.6059   -0.6440 C.3     1  UNL1       -0.0104
      6 C          -2.1672    0.3494   -0.2795 C.ar    1  UNL1        0.0250
      7 C          -3.4582   -0.1049   -0.3326 C.ar    1  UNL1       -0.0067
      8 C          -4.6091    0.6704   -0.8423 C.3     1  UNL1        0.0722
      9 C          -5.0603    1.6901    0.1203 C.2     1  UNL1        0.3091
     10 O          -4.4676    1.8061    1.2163 O.2     1  UNL1       -0.2507
     11 O          -6.1248    2.5301   -0.1477 O.3     1  UNL1       -0.4804
     12 C          -3.4566   -1.3850    0.1692 C.ar    1  UNL1        0.0228
     13 C          -4.4446   -2.3312    0.3633 C.ar    1  UNL1       -0.0493
     14 C          -4.1456   -3.5623    0.8995 C.ar    1  UNL1       -0.0429
     15 C          -2.8489   -3.8276    1.2356 C.ar    1  UNL1        0.0299
     16 N          -1.8569   -2.9383    1.0644 N.ar    1  UNL1       -0.2373
     17 C          -2.1495   -1.7243    0.5361 C.ar    1  UNL1        0.1412
     18 N          -1.4166   -0.6374    0.2414 N.ar    1  UNL1       -0.3272
     19 C           0.0038   -0.3296    0.3717 C.3     1  UNL1        0.0421
     20 S           2.7122    1.4240   -0.0886 S.O2    1  UNL1        0.0609
     21 O           3.3372    2.4555   -1.0265 O.2     1  UNL1       -0.1528
     22 O           1.7476    2.1182    0.8501 O.2     1  UNL1       -0.1528
     23 C           3.9981    0.8737    0.9510 C.ar    1  UNL1        0.1056
     24 C           5.2700    0.7750    0.3985 C.ar    1  UNL1       -0.0326
     25 C           6.3520    0.3479    1.1433 C.ar    1  UNL1       -0.0246
     26 C           6.1875    0.0120    2.4496 C.ar    1  UNL1        0.1235
     27 F           7.2573   -0.4111    3.1886 F       1  UNL1       -0.2055
     28 C           4.9142    0.1094    3.0082 C.ar    1  UNL1       -0.0246
     29 C           3.8321    0.5337    2.2728 C.ar    1  UNL1       -0.0326
     30 H           1.9983   -0.6858   -2.7835 H       1  UNL1        0.0408
     31 H           2.7924   -1.6190   -1.5092 H       1  UNL1        0.0408
     32 H           3.5773   -0.1122   -2.2319 H       1  UNL1        0.0408
     33 H           0.2952   -0.7599   -1.6407 H       1  UNL1        0.0497
     34 H          -0.7281    1.0360   -2.5199 H       1  UNL1        0.0285
     35 H           0.3163    2.1997   -1.7172 H       1  UNL1        0.0285
     36 H          -1.1662    2.0881    0.2982 H       1  UNL1        0.0328
     37 H          -2.1712    2.2108   -1.2475 H       1  UNL1        0.0328
     38 H          -5.4229   -0.0298   -1.1256 H       1  UNL1        0.0427
     39 H          -4.3255    1.2043   -1.7741 H       1  UNL1        0.0427
     40 H          -6.1144    3.5081    0.1728 H       1  UNL1        0.2951
     41 H          -5.4526   -2.0719    0.0812 H       1  UNL1        0.0625
     42 H          -4.9490   -4.2700    1.0335 H       1  UNL1        0.0633
     43 H          -2.6514   -4.8227    1.6613 H       1  UNL1        0.0830
     44 H           0.5884   -1.2239    0.6425 H       1  UNL1        0.0508
     45 H           0.1802    0.4463    1.1155 H       1  UNL1        0.0508
     46 H           5.4601    1.0319   -0.6448 H       1  UNL1        0.0638
     47 H           7.3238    0.2836    0.6797 H       1  UNL1        0.0647
     48 H           4.8177   -0.1605    4.0325 H       1  UNL1        0.0647
     49 H           2.8537    0.6048    2.7145 H       1  UNL1        0.0638
@<TRIPOS>BOND
     1     1     2    1
     2     2     3    1
     3     3     4    1
     4     4     5    1
     5     5     6    1
     6     6     7   ar
     7     7     8    1
     8     8     9    1
     9     9    10    2
    10     9    11    1
    11     7    12   ar
    12    12    13   ar
    13    13    14   ar
    14    14    15   ar
    15    15    16   ar
    16    16    17   ar
    17    17    18   ar
    18    18    19    1
    19     2    20    1
    20    20    21    2
    21    20    22    2
    22    20    23    1
    23    23    24   ar
    24    24    25   ar
    25    25    26   ar
    26    26    27    1
    27    26    28   ar
    28    28    29   ar
    29    19     3    1
    30    29    23   ar
    31    18     6   ar
    32    17    12   ar
    33     1    30    1
    34     1    31    1
    35     1    32    1
    36     3    33    1
    37     4    34    1
    38     4    35    1
    39     5    36    1
    40     5    37    1
    41     8    38    1
    42     8    39    1
    43    11    40    1
    44    13    41    1
    45    14    42    1
    46    15    43    1
    47    19    44    1
    48    19    45    1
    49    24    46    1
    50    25    47    1
    51    28    48    1
    52    29    49    1
