@<TRIPOS>MOLECULE
*****
 41 43 0 0 0
SMALL
GASTEIGER

@<TRIPOS>ATOM
      1 CL          6.5624   -0.1836    1.7862 Cl      1  UNL1       -0.0835
      2 C           4.9029   -0.5415    1.3643 C.ar    1  UNL1        0.0430
      3 C           3.7911    0.1671    1.8398 C.ar    1  UNL1       -0.0185
      4 C           2.4972   -0.1556    1.4760 C.ar    1  UNL1        0.0782
      5 C           2.2732   -1.2084    0.6158 C.ar    1  UNL1        0.1417
      6 O           1.0251   -1.5965    0.2016 O.3     1  UNL1       -0.4901
      7 C           0.8414   -2.4951   -0.8751 C.3     1  UNL1        0.0897
      8 C          -0.6677   -2.7038   -1.1184 C.3     1  UNL1       -0.0185
      9 C          -1.2882   -1.3649   -1.4017 C.3     1  UNL1       -0.0469
     10 C          -2.7617   -1.4170   -1.6249 C.3     1  UNL1       -0.0185
     11 C          -3.1782    0.0563   -1.8418 C.3     1  UNL1        0.0913
     12 O          -2.7696    0.7600   -0.6783 O.3     1  UNL1       -0.4753
     13 C          -2.9644    2.1034   -0.5566 C.ar    1  UNL1        0.2352
     14 C          -3.4475    3.3735   -0.7710 C.ar    1  UNL1        0.0892
     15 N          -2.9376    4.3292    0.0282 N.ar    1  UNL1       -0.2546
     16 C          -2.0224    3.9653    0.9443 C.ar    1  UNL1        0.0679
     17 C          -1.5480    2.6881    1.1478 C.ar    1  UNL1        0.1482
     18 N          -0.5867    2.3531    2.1409 N.am    1  UNL1       -0.2526
     19 C           0.4476    1.4678    1.7689 C.2     1  UNL1        0.3093
     20 O           0.6656    0.9413    0.6557 O.2     1  UNL1       -0.2521
     21 N           1.6025    0.7273    2.1188 N.am    1  UNL1       -0.2660
     22 N          -2.0292    1.7000    0.3716 N.ar    1  UNL1       -0.1949
     23 C           3.3626   -1.9045    0.1487 C.ar    1  UNL1       -0.0167
     24 C           4.6425   -1.5894    0.5053 C.ar    1  UNL1       -0.0398
     25 H           4.1219    0.9670    2.5063 H       1  UNL1        0.0652
     26 H           1.2957   -2.1197   -1.7980 H       1  UNL1        0.0696
     27 H           1.2235   -3.4811   -0.5519 H       1  UNL1        0.0696
     28 H          -1.0764   -3.1876   -0.2286 H       1  UNL1        0.0298
     29 H          -0.7420   -3.3541   -1.9970 H       1  UNL1        0.0298
     30 H          -0.7699   -0.9115   -2.2732 H       1  UNL1        0.0267
     31 H          -1.0650   -0.7413   -0.5055 H       1  UNL1        0.0267
     32 H          -3.2853   -1.8330   -0.7490 H       1  UNL1        0.0298
     33 H          -2.9836   -2.0222   -2.5098 H       1  UNL1        0.0298
     34 H          -2.6922    0.4438   -2.7390 H       1  UNL1        0.0697
     35 H          -4.2631    0.0861   -1.8928 H       1  UNL1        0.0697
     36 H          -4.0991    3.0466   -1.5692 H       1  UNL1        0.0884
     37 H          -1.6173    4.7288    1.5829 H       1  UNL1        0.0865
     38 H          -0.8109    2.8213    3.0440 H       1  UNL1        0.1579
     39 H           1.6902    0.9996    3.1193 H       1  UNL1        0.1565
     40 H           3.2057   -2.7344   -0.5274 H       1  UNL1        0.0655
     41 H           5.4547   -2.1802    0.0996 H       1  UNL1        0.0633
@<TRIPOS>BOND
     1     1     2    1
     2     2     3   ar
     3     3     4   ar
     4     4     5   ar
     5     5     6    1
     6     6     7    1
     7     7     8    1
     8     8     9    1
     9     9    10    1
    10    10    11    1
    11    11    12    1
    12    12    13    1
    13    13    14   ar
    14    14    15   ar
    15    15    16   ar
    16    16    17   ar
    17    17    18    1
    18    18    19   am
    19    19    20    2
    20    19    21   am
    21    17    22   ar
    22     5    23   ar
    23    23    24   ar
    24    24     2   ar
    25    21     4    1
    26    22    13   ar
    27     3    25    1
    28     7    26    1
    29     7    27    1
    30     8    28    1
    31     8    29    1
    32     9    30    1
    33     9    31    1
    34    10    32    1
    35    10    33    1
    36    11    34    1
    37    11    35    1
    38    14    36    1
    39    16    37    1
    40    18    38    1
    41    21    39    1
    42    23    40    1
    43    24    41    1
