@<TRIPOS>MOLECULE
*****
 39 40 0 0 0
SMALL
GASTEIGER

@<TRIPOS>ATOM
      1 C           6.5449   -1.9555   -0.5313 C.3     1  UNL1        0.0125
      2 C           5.2217   -1.6142    0.0850 C.2     1  UNL1        0.2141
      3 O           4.5813   -2.5153    0.6596 O.2     1  UNL1       -0.2758
      4 N           4.8095   -0.2692   -0.0439 N.am    1  UNL1       -0.2857
      5 C           3.5988    0.2137    0.4758 C.ar    1  UNL1        0.0335
      6 C           3.2754    1.5612    0.2989 C.ar    1  UNL1       -0.0386
      7 C           2.1204    2.1139    0.7708 C.ar    1  UNL1       -0.0335
      8 C           1.2115    1.3422    1.4550 C.ar    1  UNL1        0.1069
      9 S          -0.2628    2.0930    2.0457 S.O2    1  UNL1        0.0735
     10 O          -0.6628    1.5096    3.3482 O.2     1  UNL1       -0.1517
     11 O           0.0151    3.5609    2.2715 O.2     1  UNL1       -0.1517
     12 N          -1.4723    1.9735    0.8476 N.3     1  UNL1       -0.1099
     13 N          -1.8169    0.6825    0.5091 N.pl3   1  UNL1       -0.2616
     14 C          -3.0291    0.4786   -0.2214 C.ar    1  UNL1        0.0430
     15 C          -3.8480    1.5312   -0.5886 C.ar    1  UNL1       -0.0396
     16 C          -5.0170    1.3986   -1.2864 C.ar    1  UNL1       -0.0597
     17 C          -5.3907    0.0979   -1.6430 C.ar    1  UNL1       -0.0587
     18 C          -4.6159   -0.9856   -1.3048 C.ar    1  UNL1       -0.0487
     19 C          -5.0371   -2.3516   -1.6962 C.3     1  UNL1       -0.0397
     20 C          -3.4464   -0.7981   -0.6010 C.ar    1  UNL1       -0.0367
     21 C           1.4881    0.0333    1.6469 C.ar    1  UNL1       -0.0335
     22 C           2.6759   -0.5246    1.1588 C.ar    1  UNL1       -0.0386
     23 H           6.7600   -1.2912   -1.3799 H       1  UNL1        0.0323
     24 H           6.5699   -2.9927   -0.8890 H       1  UNL1        0.0323
     25 H           7.3203   -1.8142    0.2592 H       1  UNL1        0.0323
     26 H           5.4295    0.4373   -0.5572 H       1  UNL1        0.1548
     27 H           3.9632    2.2310   -0.2411 H       1  UNL1        0.0637
     28 H           1.9312    3.1736    0.5970 H       1  UNL1        0.0638
     29 H          -1.3596    2.6316    0.0726 H       1  UNL1        0.1715
     30 H          -1.2579   -0.1557    0.7471 H       1  UNL1        0.1678
     31 H          -3.5312    2.5237   -0.2980 H       1  UNL1        0.0636
     32 H          -5.6320    2.2449   -1.5562 H       1  UNL1        0.0618
     33 H          -6.3149   -0.0151   -2.1954 H       1  UNL1        0.0620
     34 H          -6.0702   -2.5484   -1.3086 H       1  UNL1        0.0278
     35 H          -5.1314   -2.4490   -2.8089 H       1  UNL1        0.0278
     36 H          -4.3250   -3.1034   -1.3376 H       1  UNL1        0.0278
     37 H          -2.8315   -1.6357   -0.3303 H       1  UNL1        0.0639
     38 H           0.7576   -0.5785    2.1946 H       1  UNL1        0.0638
     39 H           2.7786   -1.5722    1.3756 H       1  UNL1        0.0637
@<TRIPOS>BOND
     1     1     2    1
     2     2     3    2
     3     2     4   am
     4     4     5    1
     5     5     6   ar
     6     6     7   ar
     7     7     8   ar
     8     8     9    1
     9     9    10    2
    10     9    11    2
    11     9    12    1
    12    12    13    1
    13    13    14    1
    14    14    15   ar
    15    15    16   ar
    16    16    17   ar
    17    17    18   ar
    18    18    19    1
    19    18    20   ar
    20     8    21   ar
    21    21    22   ar
    22    22     5   ar
    23    20    14   ar
    24     1    23    1
    25     1    24    1
    26     1    25    1
    27     4    26    1
    28     6    27    1
    29     7    28    1
    30    12    29    1
    31    13    30    1
    32    15    31    1
    33    16    32    1
    34    17    33    1
    35    19    34    1
    36    19    35    1
    37    19    36    1
    38    20    37    1
    39    21    38    1
    40    22    39    1
