
     RDKit          3D

 39 40  0  0  0  0  0  0  0  0999 V2000
    6.5449   -1.9555   -0.5313 C   0  0  0  0  0  0  0  0  0  0  0  0
    5.2217   -1.6142    0.0850 C   0  0  0  0  0  0  0  0  0  0  0  0
    4.5813   -2.5153    0.6596 O   0  0  0  0  0  0  0  0  0  0  0  0
    4.8095   -0.2692   -0.0439 N   0  0  0  0  0  0  0  0  0  0  0  0
    3.5988    0.2137    0.4758 C   0  0  0  0  0  0  0  0  0  0  0  0
    3.2754    1.5612    0.2989 C   0  0  0  0  0  0  0  0  0  0  0  0
    2.1204    2.1139    0.7708 C   0  0  0  0  0  0  0  0  0  0  0  0
    1.2115    1.3422    1.4550 C   0  0  0  0  0  0  0  0  0  0  0  0
   -0.2628    2.0930    2.0457 S   0  0  0  0  0  6  0  0  0  0  0  0
   -0.6628    1.5096    3.3482 O   0  0  0  0  0  0  0  0  0  0  0  0
    0.0151    3.5609    2.2715 O   0  0  0  0  0  0  0  0  0  0  0  0
   -1.4723    1.9735    0.8476 N   0  0  0  0  0  0  0  0  0  0  0  0
   -1.8169    0.6825    0.5091 N   0  0  0  0  0  0  0  0  0  0  0  0
   -3.0291    0.4786   -0.2214 C   0  0  0  0  0  0  0  0  0  0  0  0
   -3.8480    1.5312   -0.5886 C   0  0  0  0  0  0  0  0  0  0  0  0
   -5.0170    1.3986   -1.2864 C   0  0  0  0  0  0  0  0  0  0  0  0
   -5.3907    0.0979   -1.6430 C   0  0  0  0  0  0  0  0  0  0  0  0
   -4.6159   -0.9856   -1.3048 C   0  0  0  0  0  0  0  0  0  0  0  0
   -5.0371   -2.3516   -1.6962 C   0  0  0  0  0  0  0  0  0  0  0  0
   -3.4464   -0.7981   -0.6010 C   0  0  0  0  0  0  0  0  0  0  0  0
    1.4881    0.0333    1.6469 C   0  0  0  0  0  0  0  0  0  0  0  0
    2.6759   -0.5246    1.1588 C   0  0  0  0  0  0  0  0  0  0  0  0
    6.7600   -1.2912   -1.3799 H   0  0  0  0  0  0  0  0  0  0  0  0
    6.5699   -2.9927   -0.8890 H   0  0  0  0  0  0  0  0  0  0  0  0
    7.3203   -1.8142    0.2592 H   0  0  0  0  0  0  0  0  0  0  0  0
    5.4295    0.4373   -0.5572 H   0  0  0  0  0  0  0  0  0  0  0  0
    3.9632    2.2310   -0.2411 H   0  0  0  0  0  0  0  0  0  0  0  0
    1.9312    3.1736    0.5970 H   0  0  0  0  0  0  0  0  0  0  0  0
   -1.3596    2.6316    0.0726 H   0  0  0  0  0  0  0  0  0  0  0  0
   -1.2579   -0.1557    0.7471 H   0  0  0  0  0  0  0  0  0  0  0  0
   -3.5312    2.5237   -0.2980 H   0  0  0  0  0  0  0  0  0  0  0  0
   -5.6320    2.2449   -1.5562 H   0  0  0  0  0  0  0  0  0  0  0  0
   -6.3149   -0.0151   -2.1954 H   0  0  0  0  0  0  0  0  0  0  0  0
   -6.0702   -2.5484   -1.3086 H   0  0  0  0  0  0  0  0  0  0  0  0
   -5.1314   -2.4490   -2.8089 H   0  0  0  0  0  0  0  0  0  0  0  0
   -4.3250   -3.1034   -1.3376 H   0  0  0  0  0  0  0  0  0  0  0  0
   -2.8315   -1.6357   -0.3303 H   0  0  0  0  0  0  0  0  0  0  0  0
    0.7576   -0.5785    2.1946 H   0  0  0  0  0  0  0  0  0  0  0  0
    2.7786   -1.5722    1.3756 H   0  0  0  0  0  0  0  0  0  0  0  0
  1  2  1  0
  2  3  2  0
  2  4  1  0
  4  5  1  0
  5  6  2  0
  6  7  1  0
  7  8  2  0
  8  9  1  0
  9 10  2  0
  9 11  2  0
  9 12  1  0
 12 13  1  0
 13 14  1  0
 14 15  2  0
 15 16  1  0
 16 17  2  0
 17 18  1  0
 18 19  1  0
 18 20  2  0
  8 21  1  0
 21 22  2  0
 22  5  1  0
 20 14  1  0
  1 23  1  0
  1 24  1  0
  1 25  1  0
  4 26  1  0
  6 27  1  0
  7 28  1  0
 12 29  1  0
 13 30  1  0
 15 31  1  0
 16 32  1  0
 17 33  1  0
 19 34  1  0
 19 35  1  0
 19 36  1  0
 20 37  1  0
 21 38  1  0
 22 39  1  0
M  END
$$$$
