@<TRIPOS>MOLECULE
*****
 64 66 0 0 0
SMALL
GASTEIGER

@<TRIPOS>ATOM
      1 C          -4.5727    4.3522   -3.8864 C.3     1  UNL1        0.0788
      2 O          -3.3179    4.1046   -4.5026 O.3     1  UNL1       -0.4951
      3 C          -2.3887    3.2934   -3.8772 C.ar    1  UNL1        0.1209
      4 C          -1.1722    3.0643   -4.4938 C.ar    1  UNL1       -0.0193
      5 C          -0.2350    2.2467   -3.8639 C.ar    1  UNL1       -0.0498
      6 C          -0.4986    1.6644   -2.6412 C.ar    1  UNL1       -0.0048
      7 C           0.4449    0.8023   -1.9401 C.ar    1  UNL1       -0.0032
      8 C           1.3308    1.3740   -1.0574 C.ar    1  UNL1       -0.0525
      9 C           2.2610    0.6578   -0.3352 C.ar    1  UNL1       -0.0490
     10 C           2.3280   -0.7054   -0.4868 C.ar    1  UNL1        0.0375
     11 C           3.2692   -1.5672    0.2273 C.2     1  UNL1        0.2441
     12 O           3.2310   -2.8115    0.0145 O.2     1  UNL1       -0.2702
     13 N           4.2034   -1.0361    1.1350 N.am    1  UNL1       -0.3111
     14 C           5.1528   -1.8960    1.8605 C.3     1  UNL1        0.0142
     15 C           6.0127   -0.9992    2.7406 C.3     1  UNL1       -0.0311
     16 C           7.0145   -1.7801    3.5260 C.3     1  UNL1       -0.0612
     17 C           6.7295   -0.0553    1.8034 C.3     1  UNL1       -0.0612
     18 C           1.4197   -1.2801   -1.3908 C.ar    1  UNL1       -0.0351
     19 C           0.5011   -0.5517   -2.1007 C.ar    1  UNL1        0.0672
     20 C          -0.4366   -1.1873   -3.0401 C.2     1  UNL1        0.3374
     21 O          -0.3614   -2.4316   -3.1654 O.2     1  UNL1       -0.2451
     22 O          -1.3585   -0.4562   -3.7535 O.3     1  UNL1       -0.4771
     23 C          -1.7240    1.9037   -2.0350 C.ar    1  UNL1        0.0482
     24 C          -1.9668    1.2751   -0.7459 C.2     1  UNL1        0.2490
     25 O          -1.2132    1.4604    0.2429 O.2     1  UNL1       -0.2698
     26 N          -3.0943    0.4250   -0.6098 N.am    1  UNL1       -0.2815
     27 C          -3.4021   -0.2340    0.6205 C.ar    1  UNL1        0.0337
     28 C          -2.8751   -1.4988    0.8433 C.ar    1  UNL1       -0.0397
     29 C          -3.1347   -2.1801    2.0093 C.ar    1  UNL1       -0.0451
     30 C          -3.9315   -1.6455    3.0210 C.ar    1  UNL1        0.0648
     31 C          -4.1956   -2.3737    4.2460 C.2     1  UNL1        0.3081
     32 N          -4.2396   -3.6522    4.2359 N.2     1  UNL1       -0.0994
     33 N          -4.4018   -1.6732    5.4460 N.pl3   1  UNL1       -0.2466
     34 C          -4.4497   -0.3814    2.7822 C.ar    1  UNL1       -0.0451
     35 C          -4.1898    0.3046    1.6103 C.ar    1  UNL1       -0.0397
     36 C          -2.6661    2.7194   -2.6571 C.ar    1  UNL1       -0.0073
     37 H          -5.1553    3.4159   -3.9171 H       1  UNL1        0.0660
     38 H          -4.4638    4.7793   -2.8610 H       1  UNL1        0.0660
     39 H          -5.0560    5.1588   -4.4990 H       1  UNL1        0.0660
     40 H          -0.9590    3.5120   -5.4419 H       1  UNL1        0.0654
     41 H           0.7203    2.0564   -4.3281 H       1  UNL1        0.0625
     42 H           1.3241    2.4634   -0.8934 H       1  UNL1        0.0624
     43 H           2.9457    1.1578    0.3566 H       1  UNL1        0.0625
     44 H           4.2194   -0.0075    1.2945 H       1  UNL1        0.1490
     45 H           5.7335   -2.5433    1.2063 H       1  UNL1        0.0465
     46 H           4.5346   -2.5180    2.5654 H       1  UNL1        0.0465
     47 H           5.3680   -0.4575    3.4617 H       1  UNL1        0.0311
     48 H           6.9639   -2.8743    3.3363 H       1  UNL1        0.0233
     49 H           6.9021   -1.6126    4.6385 H       1  UNL1        0.0233
     50 H           8.0248   -1.4449    3.2691 H       1  UNL1        0.0233
     51 H           6.9218   -0.5711    0.8224 H       1  UNL1        0.0233
     52 H           6.0654    0.8066    1.6203 H       1  UNL1        0.0233
     53 H           7.6693    0.2917    2.2812 H       1  UNL1        0.0233
     54 H           1.4483   -2.3525   -1.5314 H       1  UNL1        0.0633
     55 H          -1.9622   -0.9188   -4.4247 H       1  UNL1        0.2954
     56 H          -3.7016    0.2982   -1.4643 H       1  UNL1        0.1551
     57 H          -2.2469   -1.9243    0.0499 H       1  UNL1        0.0636
     58 H          -2.7127   -3.1825    2.1763 H       1  UNL1        0.0627
     59 H          -4.4290   -4.2104    5.1081 H       1  UNL1        0.3633
     60 H          -4.9734   -0.8098    5.5059 H       1  UNL1        0.2884
     61 H          -3.9649   -2.0301    6.3180 H       1  UNL1        0.2884
     62 H          -5.0725    0.0664    3.5449 H       1  UNL1        0.0627
     63 H          -4.6027    1.3016    1.4310 H       1  UNL1        0.0636
     64 H          -3.6141    2.8977   -2.1764 H       1  UNL1        0.0662
@<TRIPOS>BOND
     1     1     2    1
     2     2     3    1
     3     3     4   ar
     4     4     5   ar
     5     5     6   ar
     6     6     7    1
     7     7     8   ar
     8     8     9   ar
     9     9    10   ar
    10    10    11    1
    11    11    12    2
    12    11    13   am
    13    13    14    1
    14    14    15    1
    15    15    16    1
    16    15    17    1
    17    10    18   ar
    18    18    19   ar
    19    19    20    1
    20    20    21    2
    21    20    22    1
    22     6    23   ar
    23    23    24    1
    24    24    25    2
    25    24    26   am
    26    26    27    1
    27    27    28   ar
    28    28    29   ar
    29    29    30   ar
    30    30    31    1
    31    31    32    2
    32    31    33    1
    33    30    34   ar
    34    34    35   ar
    35    23    36   ar
    36    36     3   ar
    37    19     7   ar
    38    35    27   ar
    39     1    37    1
    40     1    38    1
    41     1    39    1
    42     4    40    1
    43     5    41    1
    44     8    42    1
    45     9    43    1
    46    13    44    1
    47    14    45    1
    48    14    46    1
    49    15    47    1
    50    16    48    1
    51    16    49    1
    52    16    50    1
    53    17    51    1
    54    17    52    1
    55    17    53    1
    56    18    54    1
    57    22    55    1
    58    26    56    1
    59    28    57    1
    60    29    58    1
    61    32    59    1
    62    33    60    1
    63    33    61    1
    64    34    62    1
    65    35    63    1
    66    36    64    1
