
     RDKit          3D

 64 66  0  0  0  0  0  0  0  0999 V2000
   -4.5727    4.3522   -3.8864 C   0  0  0  0  0  0  0  0  0  0  0  0
   -3.3179    4.1046   -4.5026 O   0  0  0  0  0  0  0  0  0  0  0  0
   -2.3887    3.2934   -3.8772 C   0  0  0  0  0  0  0  0  0  0  0  0
   -1.1722    3.0643   -4.4938 C   0  0  0  0  0  0  0  0  0  0  0  0
   -0.2350    2.2467   -3.8639 C   0  0  0  0  0  0  0  0  0  0  0  0
   -0.4986    1.6644   -2.6412 C   0  0  0  0  0  0  0  0  0  0  0  0
    0.4449    0.8023   -1.9401 C   0  0  0  0  0  0  0  0  0  0  0  0
    1.3308    1.3740   -1.0574 C   0  0  0  0  0  0  0  0  0  0  0  0
    2.2610    0.6578   -0.3352 C   0  0  0  0  0  0  0  0  0  0  0  0
    2.3280   -0.7054   -0.4868 C   0  0  0  0  0  0  0  0  0  0  0  0
    3.2692   -1.5672    0.2273 C   0  0  0  0  0  0  0  0  0  0  0  0
    3.2310   -2.8115    0.0145 O   0  0  0  0  0  0  0  0  0  0  0  0
    4.2034   -1.0361    1.1350 N   0  0  0  0  0  0  0  0  0  0  0  0
    5.1528   -1.8960    1.8605 C   0  0  0  0  0  0  0  0  0  0  0  0
    6.0127   -0.9992    2.7406 C   0  0  0  0  0  0  0  0  0  0  0  0
    7.0145   -1.7801    3.5260 C   0  0  0  0  0  0  0  0  0  0  0  0
    6.7295   -0.0553    1.8034 C   0  0  0  0  0  0  0  0  0  0  0  0
    1.4197   -1.2801   -1.3908 C   0  0  0  0  0  0  0  0  0  0  0  0
    0.5011   -0.5517   -2.1007 C   0  0  0  0  0  0  0  0  0  0  0  0
   -0.4366   -1.1873   -3.0401 C   0  0  0  0  0  0  0  0  0  0  0  0
   -0.3614   -2.4316   -3.1654 O   0  0  0  0  0  0  0  0  0  0  0  0
   -1.3585   -0.4562   -3.7535 O   0  0  0  0  0  0  0  0  0  0  0  0
   -1.7240    1.9037   -2.0350 C   0  0  0  0  0  0  0  0  0  0  0  0
   -1.9668    1.2751   -0.7459 C   0  0  0  0  0  0  0  0  0  0  0  0
   -1.2132    1.4604    0.2429 O   0  0  0  0  0  0  0  0  0  0  0  0
   -3.0943    0.4250   -0.6098 N   0  0  0  0  0  0  0  0  0  0  0  0
   -3.4021   -0.2340    0.6205 C   0  0  0  0  0  0  0  0  0  0  0  0
   -2.8751   -1.4988    0.8433 C   0  0  0  0  0  0  0  0  0  0  0  0
   -3.1347   -2.1801    2.0093 C   0  0  0  0  0  0  0  0  0  0  0  0
   -3.9315   -1.6455    3.0210 C   0  0  0  0  0  0  0  0  0  0  0  0
   -4.1956   -2.3737    4.2460 C   0  0  0  0  0  0  0  0  0  0  0  0
   -4.2396   -3.6522    4.2359 N   0  0  0  0  0  0  0  0  0  0  0  0
   -4.4018   -1.6732    5.4460 N   0  0  0  0  0  0  0  0  0  0  0  0
   -4.4497   -0.3814    2.7822 C   0  0  0  0  0  0  0  0  0  0  0  0
   -4.1898    0.3046    1.6103 C   0  0  0  0  0  0  0  0  0  0  0  0
   -2.6661    2.7194   -2.6571 C   0  0  0  0  0  0  0  0  0  0  0  0
   -5.1553    3.4159   -3.9171 H   0  0  0  0  0  0  0  0  0  0  0  0
   -4.4638    4.7793   -2.8610 H   0  0  0  0  0  0  0  0  0  0  0  0
   -5.0560    5.1588   -4.4990 H   0  0  0  0  0  0  0  0  0  0  0  0
   -0.9590    3.5120   -5.4419 H   0  0  0  0  0  0  0  0  0  0  0  0
    0.7203    2.0564   -4.3281 H   0  0  0  0  0  0  0  0  0  0  0  0
    1.3241    2.4634   -0.8934 H   0  0  0  0  0  0  0  0  0  0  0  0
    2.9457    1.1578    0.3566 H   0  0  0  0  0  0  0  0  0  0  0  0
    4.2194   -0.0075    1.2945 H   0  0  0  0  0  0  0  0  0  0  0  0
    5.7335   -2.5433    1.2063 H   0  0  0  0  0  0  0  0  0  0  0  0
    4.5346   -2.5180    2.5654 H   0  0  0  0  0  0  0  0  0  0  0  0
    5.3680   -0.4575    3.4617 H   0  0  0  0  0  0  0  0  0  0  0  0
    6.9639   -2.8743    3.3363 H   0  0  0  0  0  0  0  0  0  0  0  0
    6.9021   -1.6126    4.6385 H   0  0  0  0  0  0  0  0  0  0  0  0
    8.0248   -1.4449    3.2691 H   0  0  0  0  0  0  0  0  0  0  0  0
    6.9218   -0.5711    0.8224 H   0  0  0  0  0  0  0  0  0  0  0  0
    6.0654    0.8066    1.6203 H   0  0  0  0  0  0  0  0  0  0  0  0
    7.6693    0.2917    2.2812 H   0  0  0  0  0  0  0  0  0  0  0  0
    1.4483   -2.3525   -1.5314 H   0  0  0  0  0  0  0  0  0  0  0  0
   -1.9622   -0.9188   -4.4247 H   0  0  0  0  0  0  0  0  0  0  0  0
   -3.7016    0.2982   -1.4643 H   0  0  0  0  0  0  0  0  0  0  0  0
   -2.2469   -1.9243    0.0499 H   0  0  0  0  0  0  0  0  0  0  0  0
   -2.7127   -3.1825    2.1763 H   0  0  0  0  0  0  0  0  0  0  0  0
   -4.4290   -4.2104    5.1081 H   0  0  0  0  0  0  0  0  0  0  0  0
   -4.9734   -0.8098    5.5059 H   0  0  0  0  0  0  0  0  0  0  0  0
   -3.9649   -2.0301    6.3180 H   0  0  0  0  0  0  0  0  0  0  0  0
   -5.0725    0.0664    3.5449 H   0  0  0  0  0  0  0  0  0  0  0  0
   -4.6027    1.3016    1.4310 H   0  0  0  0  0  0  0  0  0  0  0  0
   -3.6141    2.8977   -2.1764 H   0  0  0  0  0  0  0  0  0  0  0  0
  1  2  1  0
  2  3  1  0
  3  4  2  0
  4  5  1  0
  5  6  2  0
  6  7  1  0
  7  8  2  0
  8  9  1  0
  9 10  2  0
 10 11  1  0
 11 12  2  0
 11 13  1  0
 13 14  1  0
 14 15  1  0
 15 16  1  0
 15 17  1  0
 10 18  1  0
 18 19  2  0
 19 20  1  0
 20 21  2  0
 20 22  1  0
  6 23  1  0
 23 24  1  0
 24 25  2  0
 24 26  1  0
 26 27  1  0
 27 28  2  0
 28 29  1  0
 29 30  2  0
 30 31  1  0
 31 32  2  3
 31 33  1  0
 30 34  1  0
 34 35  2  0
 23 36  2  0
 36  3  1  0
 19  7  1  0
 35 27  1  0
  1 37  1  0
  1 38  1  0
  1 39  1  0
  4 40  1  0
  5 41  1  0
  8 42  1  0
  9 43  1  0
 13 44  1  0
 14 45  1  0
 14 46  1  0
 15 47  1  0
 16 48  1  0
 16 49  1  0
 16 50  1  0
 17 51  1  0
 17 52  1  0
 17 53  1  0
 18 54  1  0
 22 55  1  0
 26 56  1  0
 28 57  1  0
 29 58  1  0
 32 59  1  0
 33 60  1  0
 33 61  1  0
 34 62  1  0
 35 63  1  0
 36 64  1  0
M  END
$$$$
