@<TRIPOS>MOLECULE
*****
 49 52 0 0 0
SMALL
GASTEIGER

@<TRIPOS>ATOM
      1 C           2.4387    2.2068    1.8601 C.3     1  UNL1       -0.0646
      2 C           1.8372    0.8359    1.6598 C.3     1  UNL1       -0.0458
      3 C           1.9892    0.3856    0.2387 C.3     1  UNL1        0.0208
      4 C           1.3453    1.2553   -0.7713 C.3     1  UNL1       -0.0427
      5 C          -0.0843    1.4241   -0.2939 C.3     1  UNL1       -0.0487
      6 C          -0.7863    0.1147   -0.2869 C.3     1  UNL1       -0.0311
      7 C          -0.1019   -0.9902    0.4562 C.3     1  UNL1       -0.0305
      8 C          -0.7078   -2.2736   -0.0860 C.3     1  UNL1       -0.0457
      9 C          -2.1886   -2.2950   -0.1591 C.3     1  UNL1       -0.0308
     10 C          -2.8689   -1.0054   -0.1725 C.2     1  UNL1       -0.0629
     11 C          -4.1323   -0.9915   -0.6245 C.2     1  UNL1       -0.0197
     12 C          -4.8541    0.2873   -0.6547 C.2     1  UNL1        0.1561
     13 O          -5.8340    0.4393   -1.4388 O.2     1  UNL1       -0.2927
     14 C          -4.3317    1.3304    0.2905 C.3     1  UNL1        0.0104
     15 C          -2.8671    1.4969   -0.1061 C.3     1  UNL1       -0.0392
     16 C          -2.1643    0.2285    0.3025 C.3     1  UNL1       -0.0160
     17 C           1.3419   -0.9905    0.1027 C.3     1  UNL1       -0.0102
     18 C           2.2415   -1.7515    0.9783 C.2     1  UNL1       -0.0803
     19 C           3.4641   -1.2190    0.9027 C.2     1  UNL1       -0.0439
     20 C           3.4004   -0.0584   -0.0532 C.3     1  UNL1        0.1508
     21 O           4.3461    0.8928    0.2131 O.3     1  UNL1       -0.3724
     22 C           3.4310   -0.5851   -1.3994 C.1     1  UNL1       -0.0661
     23 C           3.4725   -1.0206   -2.5314 C.1     1  UNL1       -0.1160
     24 H           1.7605    2.9260    2.3489 H       1  UNL1        0.0230
     25 H           2.6899    2.6535    0.8658 H       1  UNL1        0.0230
     26 H           3.3718    2.1819    2.4579 H       1  UNL1        0.0230
     27 H           0.7910    0.7634    2.0249 H       1  UNL1        0.0269
     28 H           2.4231    0.1368    2.2924 H       1  UNL1        0.0269
     29 H           1.2624    0.6550   -1.7240 H       1  UNL1        0.0272
     30 H           1.8320    2.2135   -0.9622 H       1  UNL1        0.0272
     31 H          -0.1559    2.0113    0.6283 H       1  UNL1        0.0268
     32 H          -0.5827    2.0435   -1.0892 H       1  UNL1        0.0268
     33 H          -0.8780   -0.2205   -1.3558 H       1  UNL1        0.0309
     34 H          -0.2895   -0.9879    1.5352 H       1  UNL1        0.0310
     35 H          -0.2586   -2.4121   -1.1079 H       1  UNL1        0.0271
     36 H          -0.3336   -3.1188    0.5273 H       1  UNL1        0.0271
     37 H          -2.4827   -2.8448   -1.0810 H       1  UNL1        0.0310
     38 H          -2.6462   -2.9104    0.6701 H       1  UNL1        0.0310
     39 H          -4.6186   -1.9005   -0.9627 H       1  UNL1        0.0652
     40 H          -4.3494    0.8793    1.2978 H       1  UNL1        0.0345
     41 H          -4.8884    2.2686    0.2153 H       1  UNL1        0.0345
     42 H          -2.8366    1.6635   -1.1954 H       1  UNL1        0.0275
     43 H          -2.4579    2.3129    0.4969 H       1  UNL1        0.0275
     44 H          -2.1690    0.1757    1.4061 H       1  UNL1        0.0349
     45 H           1.4805   -1.3799   -0.9351 H       1  UNL1        0.0352
     46 H           1.9663   -2.6051    1.5879 H       1  UNL1        0.0573
     47 H           4.3513   -1.5700    1.4436 H       1  UNL1        0.0607
     48 H           5.1221    0.7501   -0.3719 H       1  UNL1        0.2117
     49 H           3.5098   -1.4018   -3.5324 H       1  UNL1        0.1229
@<TRIPOS>BOND
     1     1     2    1
     2     3     2    1
     3     3     4    1
     4     4     5    1
     5     5     6    1
     6     6     7    1
     7     7     8    1
     8     8     9    1
     9     9    10    1
    10    10    11    2
    11    11    12    1
    12    12    13    2
    13    12    14    1
    14    14    15    1
    15    15    16    1
    16     7    17    1
    17    17    18    1
    18    18    19    2
    19    19    20    1
    20    20    21    1
    21    20    22    1
    22    22    23    3
    23    17     3    1
    24    20     3    1
    25    16     6    1
    26    16    10    1
    27     1    24    1
    28     1    25    1
    29     1    26    1
    30     2    27    1
    31     2    28    1
    32     4    29    1
    33     4    30    1
    34     5    31    1
    35     5    32    1
    36     6    33    1
    37     7    34    1
    38     8    35    1
    39     8    36    1
    40     9    37    1
    41     9    38    1
    42    11    39    1
    43    14    40    1
    44    14    41    1
    45    15    42    1
    46    15    43    1
    47    16    44    1
    48    17    45    1
    49    18    46    1
    50    19    47    1
    51    21    48    1
    52    23    49    1
