
     RDKit          3D

 32 34  0  0  0  0  0  0  0  0999 V2000
    7.3397    0.6700   -0.5392 C   0  0  0  0  0  0  0  0  0  0  0  0
    6.2794    0.0725    0.1815 O   0  0  0  0  0  0  0  0  0  0  0  0
    4.9554    0.2403   -0.1863 C   0  0  0  0  0  0  0  0  0  0  0  0
    4.3396    0.8653   -1.1174 O   0  0  0  0  0  0  0  0  0  0  0  0
    4.0330   -0.4358    0.6616 N   0  0  0  0  0  0  0  0  0  0  0  0
    2.6113   -0.4807    0.5816 C   0  0  0  0  0  0  0  0  0  0  0  0
    1.9867    0.4986    1.2598 N   0  0  0  0  0  0  0  0  0  0  0  0
    0.6483    0.3064    1.0726 C   0  0  0  0  0  0  0  0  0  0  0  0
   -0.4551    1.0160    1.5338 C   0  0  0  0  0  0  0  0  0  0  0  0
   -1.6904    0.5492    1.1476 C   0  0  0  0  0  0  0  0  0  0  0  0
   -1.9464   -0.5457    0.3530 C   0  0  0  0  0  0  0  0  0  0  0  0
   -0.8151   -1.2418   -0.0966 C   0  0  0  0  0  0  0  0  0  0  0  0
    0.4558   -0.8021    0.2718 C   0  0  0  0  0  0  0  0  0  0  0  0
    1.6899   -1.2568   -0.0086 N   0  0  0  0  0  0  0  0  0  0  0  0
   -3.2301   -1.0413   -0.0895 C   0  0  0  0  0  0  0  0  0  0  0  0
   -3.3593   -2.2396   -0.4295 O   0  0  0  0  0  0  0  0  0  0  0  0
   -4.3979   -0.2408   -0.1726 C   0  0  0  0  0  0  0  0  0  0  0  0
   -5.6416   -0.6146   -0.5388 C   0  0  0  0  0  0  0  0  0  0  0  0
   -6.6698    0.2565   -0.5914 C   0  0  0  0  0  0  0  0  0  0  0  0
   -6.3445    1.5952   -0.2320 C   0  0  0  0  0  0  0  0  0  0  0  0
   -4.5598    1.5208    0.1640 S   0  0  0  0  0  0  0  0  0  0  0  0
    7.8714   -0.1427   -1.0718 H   0  0  0  0  0  0  0  0  0  0  0  0
    7.9958    1.1808    0.2023 H   0  0  0  0  0  0  0  0  0  0  0  0
    6.9648    1.4268   -1.2844 H   0  0  0  0  0  0  0  0  0  0  0  0
    4.3330   -1.0161    1.4979 H   0  0  0  0  0  0  0  0  0  0  0  0
   -0.3649    1.8928    2.1655 H   0  0  0  0  0  0  0  0  0  0  0  0
   -2.5251    1.0985    1.5174 H   0  0  0  0  0  0  0  0  0  0  0  0
   -0.8863   -2.1262   -0.7279 H   0  0  0  0  0  0  0  0  0  0  0  0
    1.9887   -2.0581   -0.5701 H   0  0  0  0  0  0  0  0  0  0  0  0
   -5.9157   -1.6463   -0.8207 H   0  0  0  0  0  0  0  0  0  0  0  0
   -7.7094    0.1645   -0.8501 H   0  0  0  0  0  0  0  0  0  0  0  0
   -6.9815    2.5345   -0.1802 H   0  0  0  0  0  0  0  0  0  0  0  0
  1  2  1  0
  2  3  1  0
  3  4  2  0
  3  5  1  0
  5  6  1  0
  6  7  2  0
  7  8  1  0
  8  9  2  0
  9 10  1  0
 10 11  2  0
 11 12  1  0
 12 13  2  0
 13 14  1  0
 11 15  1  0
 15 16  2  0
 15 17  1  0
 17 18  2  0
 18 19  1  0
 19 20  2  0
 20 21  1  0
 14  6  1  0
 21 17  1  0
 13  8  1  0
  1 22  1  0
  1 23  1  0
  1 24  1  0
  5 25  1  0
  9 26  1  0
 10 27  1  0
 12 28  1  0
 14 29  1  0
 18 30  1  0
 19 31  1  0
 20 32  1  0
M  END
$$$$
