@<TRIPOS>MOLECULE
*****
 32 34 0 0 0
SMALL
GASTEIGER

@<TRIPOS>ATOM
      1 C           7.3397    0.6700   -0.5392 C.3     1  UNL1        0.0833
      2 O           6.2794    0.0725    0.1815 O.3     1  UNL1       -0.4534
      3 C           4.9554    0.2403   -0.1863 C.2     1  UNL1        0.4065
      4 O           4.3396    0.8653   -1.1174 O.2     1  UNL1       -0.2260
      5 N           4.0330   -0.4358    0.6616 N.am    1  UNL1       -0.2212
      6 C           2.6113   -0.4807    0.5816 C.ar    1  UNL1        0.2029
      7 N           1.9867    0.4986    1.2598 N.ar    1  UNL1       -0.2142
      8 C           0.6483    0.3064    1.0726 C.ar    1  UNL1        0.0908
      9 C          -0.4551    1.0160    1.5338 C.ar    1  UNL1       -0.0335
     10 C          -1.6904    0.5492    1.1476 C.ar    1  UNL1       -0.0488
     11 C          -1.9464   -0.5457    0.3530 C.ar    1  UNL1        0.0249
     12 C          -0.8151   -1.2418   -0.0966 C.ar    1  UNL1       -0.0254
     13 C           0.4558   -0.8021    0.2718 C.ar    1  UNL1        0.0681
     14 N           1.6899   -1.2568   -0.0086 N.ar    1  UNL1       -0.3257
     15 C          -3.2301   -1.0413   -0.0895 C.2     1  UNL1        0.1997
     16 O          -3.3593   -2.2396   -0.4295 O.2     1  UNL1       -0.2861
     17 C          -4.3979   -0.2408   -0.1726 C.ar    1  UNL1        0.0594
     18 C          -5.6416   -0.6146   -0.5388 C.ar    1  UNL1       -0.0438
     19 C          -6.6698    0.2565   -0.5914 C.ar    1  UNL1       -0.0540
     20 C          -6.3445    1.5952   -0.2320 C.ar    1  UNL1       -0.0236
     21 S          -4.5598    1.5208    0.1640 S.2     1  UNL1       -0.0934
     22 H           7.8714   -0.1427   -1.0718 H       1  UNL1        0.0661
     23 H           7.9958    1.1808    0.2023 H       1  UNL1        0.0661
     24 H           6.9648    1.4268   -1.2844 H       1  UNL1        0.0661
     25 H           4.3330   -1.0161    1.4979 H       1  UNL1        0.1610
     26 H          -0.3649    1.8928    2.1655 H       1  UNL1        0.0640
     27 H          -2.5251    1.0985    1.5174 H       1  UNL1        0.0625
     28 H          -0.8863   -2.1262   -0.7279 H       1  UNL1        0.0646
     29 H           1.9887   -2.0581   -0.5701 H       1  UNL1        0.1686
     30 H          -5.9157   -1.6463   -0.8207 H       1  UNL1        0.0630
     31 H          -7.7094    0.1645   -0.8501 H       1  UNL1        0.0623
     32 H          -6.9815    2.5345   -0.1802 H       1  UNL1        0.0693
@<TRIPOS>BOND
     1     1     2    1
     2     2     3    1
     3     3     4    2
     4     3     5   am
     5     5     6    1
     6     6     7   ar
     7     7     8   ar
     8     8     9   ar
     9     9    10   ar
    10    10    11   ar
    11    11    12   ar
    12    12    13   ar
    13    13    14   ar
    14    11    15    1
    15    15    16    2
    16    15    17    1
    17    17    18   ar
    18    18    19   ar
    19    19    20   ar
    20    20    21   ar
    21    14     6   ar
    22    21    17   ar
    23    13     8   ar
    24     1    22    1
    25     1    23    1
    26     1    24    1
    27     5    25    1
    28     9    26    1
    29    10    27    1
    30    12    28    1
    31    14    29    1
    32    18    30    1
    33    19    31    1
    34    20    32    1
