@<TRIPOS>MOLECULE
*****
 31 33 0 0 0
SMALL
GASTEIGER

@<TRIPOS>ATOM
      1 O          -2.3839    0.3382   -2.8318 O.2     1  UNL1       -0.2869
      2 C          -1.7690    0.2054   -1.7448 C.ar    1  UNL1        0.1966
      3 C          -0.3677    0.2120   -1.7112 C.ar    1  UNL1        0.0288
      4 C           0.2841    0.0665   -0.5213 C.ar    1  UNL1        0.1393
      5 C           1.7381    0.0728   -0.4826 C.ar    1  UNL1        0.0211
      6 C           2.5061    0.2208   -1.6065 C.ar    1  UNL1       -0.0474
      7 C           3.9017    0.2146   -1.4724 C.ar    1  UNL1       -0.0159
      8 C           4.5145    0.0644   -0.2470 C.ar    1  UNL1        0.1583
      9 O           5.8985    0.0561   -0.0971 O.3     1  UNL1       -0.5033
     10 C           3.7515   -0.0856    0.8925 C.ar    1  UNL1        0.1589
     11 O           4.3509   -0.2386    2.1389 O.3     1  UNL1       -0.5033
     12 C           2.3844   -0.0783    0.7515 C.ar    1  UNL1       -0.0059
     13 O          -0.4410   -0.0770    0.5683 O.2     1  UNL1       -0.4544
     14 C          -1.7478   -0.0904    0.5950 C.ar    1  UNL1        0.1462
     15 C          -2.3985   -0.2503    1.8190 C.ar    1  UNL1        0.0231
     16 C          -3.7743   -0.2643    1.8463 C.ar    1  UNL1        0.1239
     17 O          -4.4058   -0.4239    3.0693 O.3     1  UNL1       -0.5065
     18 C          -4.4925   -0.1202    0.6631 C.ar    1  UNL1        0.0223
     19 C          -3.8603    0.0382   -0.5501 C.ar    1  UNL1        0.1347
     20 O          -4.5817    0.1808   -1.7210 O.3     1  UNL1       -0.5058
     21 C          -2.4834    0.0525   -0.5793 C.ar    1  UNL1        0.1055
     22 H           0.1233    0.3377   -2.6751 H       1  UNL1        0.0693
     23 H           2.0928    0.3406   -2.5788 H       1  UNL1        0.0626
     24 H           4.5238    0.3314   -2.3577 H       1  UNL1        0.0655
     25 H           6.3305    0.9518    0.1081 H       1  UNL1        0.2923
     26 H           5.2472   -0.7157    2.2345 H       1  UNL1        0.2923
     27 H           1.7917   -0.1966    1.6503 H       1  UNL1        0.0662
     28 H          -1.8637   -0.3626    2.7392 H       1  UNL1        0.0691
     29 H          -4.7611    0.3189    3.6339 H       1  UNL1        0.2921
     30 H          -5.5727   -0.1361    0.7232 H       1  UNL1        0.0691
     31 H          -4.5361    1.0490   -2.2563 H       1  UNL1        0.2922
@<TRIPOS>BOND
     1     1     2    2
     2     2     3   ar
     3     3     4   ar
     4     4     5    1
     5     5     6   ar
     6     6     7   ar
     7     7     8   ar
     8     8     9    1
     9     8    10   ar
    10    10    11    1
    11    10    12   ar
    12     4    13   ar
    13    13    14   ar
    14    14    15   ar
    15    15    16   ar
    16    16    17    1
    17    16    18   ar
    18    18    19   ar
    19    19    20    1
    20    19    21   ar
    21    21     2   ar
    22    12     5   ar
    23    21    14   ar
    24     3    22    1
    25     6    23    1
    26     7    24    1
    27     9    25    1
    28    11    26    1
    29    12    27    1
    30    15    28    1
    31    17    29    1
    32    18    30    1
    33    20    31    1
