
     RDKit          3D

 31 33  0  0  0  0  0  0  0  0999 V2000
   -2.3839    0.3382   -2.8318 O   0  0  0  0  0  0  0  0  0  0  0  0
   -1.7690    0.2054   -1.7448 C   0  0  0  0  0  0  0  0  0  0  0  0
   -0.3677    0.2120   -1.7112 C   0  0  0  0  0  0  0  0  0  0  0  0
    0.2841    0.0665   -0.5213 C   0  0  0  0  0  0  0  0  0  0  0  0
    1.7381    0.0728   -0.4826 C   0  0  0  0  0  0  0  0  0  0  0  0
    2.5061    0.2208   -1.6065 C   0  0  0  0  0  0  0  0  0  0  0  0
    3.9017    0.2146   -1.4724 C   0  0  0  0  0  0  0  0  0  0  0  0
    4.5145    0.0644   -0.2470 C   0  0  0  0  0  0  0  0  0  0  0  0
    5.8985    0.0561   -0.0971 O   0  0  0  0  0  0  0  0  0  0  0  0
    3.7515   -0.0856    0.8925 C   0  0  0  0  0  0  0  0  0  0  0  0
    4.3509   -0.2386    2.1389 O   0  0  0  0  0  0  0  0  0  0  0  0
    2.3844   -0.0783    0.7515 C   0  0  0  0  0  0  0  0  0  0  0  0
   -0.4410   -0.0770    0.5683 O   0  0  0  0  0  0  0  0  0  0  0  0
   -1.7478   -0.0904    0.5950 C   0  0  0  0  0  0  0  0  0  0  0  0
   -2.3985   -0.2503    1.8190 C   0  0  0  0  0  0  0  0  0  0  0  0
   -3.7743   -0.2643    1.8463 C   0  0  0  0  0  0  0  0  0  0  0  0
   -4.4058   -0.4239    3.0693 O   0  0  0  0  0  0  0  0  0  0  0  0
   -4.4925   -0.1202    0.6631 C   0  0  0  0  0  0  0  0  0  0  0  0
   -3.8603    0.0382   -0.5501 C   0  0  0  0  0  0  0  0  0  0  0  0
   -4.5817    0.1808   -1.7210 O   0  0  0  0  0  0  0  0  0  0  0  0
   -2.4834    0.0525   -0.5793 C   0  0  0  0  0  0  0  0  0  0  0  0
    0.1233    0.3377   -2.6751 H   0  0  0  0  0  0  0  0  0  0  0  0
    2.0928    0.3406   -2.5788 H   0  0  0  0  0  0  0  0  0  0  0  0
    4.5238    0.3314   -2.3577 H   0  0  0  0  0  0  0  0  0  0  0  0
    6.3305    0.9518    0.1081 H   0  0  0  0  0  0  0  0  0  0  0  0
    5.2472   -0.7157    2.2345 H   0  0  0  0  0  0  0  0  0  0  0  0
    1.7917   -0.1966    1.6503 H   0  0  0  0  0  0  0  0  0  0  0  0
   -1.8637   -0.3626    2.7392 H   0  0  0  0  0  0  0  0  0  0  0  0
   -4.7611    0.3189    3.6339 H   0  0  0  0  0  0  0  0  0  0  0  0
   -5.5727   -0.1361    0.7232 H   0  0  0  0  0  0  0  0  0  0  0  0
   -4.5361    1.0490   -2.2563 H   0  0  0  0  0  0  0  0  0  0  0  0
  1  2  2  0
  2  3  1  0
  3  4  2  0
  4  5  1  0
  5  6  2  0
  6  7  1  0
  7  8  2  0
  8  9  1  0
  8 10  1  0
 10 11  1  0
 10 12  2  0
  4 13  1  0
 13 14  1  0
 14 15  2  0
 15 16  1  0
 16 17  1  0
 16 18  2  0
 18 19  1  0
 19 20  1  0
 19 21  2  0
 21  2  1  0
 12  5  1  0
 21 14  1  0
  3 22  1  0
  6 23  1  0
  7 24  1  0
  9 25  1  0
 11 26  1  0
 12 27  1  0
 15 28  1  0
 17 29  1  0
 18 30  1  0
 20 31  1  0
M  END
$$$$
