@<TRIPOS>MOLECULE
*****
 49 52 0 0 0
SMALL
GASTEIGER

@<TRIPOS>ATOM
      1 C          -8.3824    1.9545   -0.3749 C.3     1  UNL1       -0.0397
      2 C          -7.0855    1.2295   -0.2235 C.ar    1  UNL1       -0.0504
      3 C          -6.9425    0.1089    0.5514 C.ar    1  UNL1       -0.0583
      4 C          -5.7234   -0.5462    0.6747 C.ar    1  UNL1       -0.0538
      5 C          -4.6040   -0.0706    0.0033 C.ar    1  UNL1       -0.0178
      6 C          -3.2999   -0.7234    0.1003 C.ar    1  UNL1       -0.0158
      7 C          -3.1805   -2.0850    0.2719 C.ar    1  UNL1       -0.0533
      8 C          -1.9304   -2.6778    0.3608 C.ar    1  UNL1       -0.0517
      9 C          -0.8139   -1.8890    0.2752 C.ar    1  UNL1        0.0036
     10 C           0.4127   -2.5127    0.3675 C.ar    1  UNL1       -0.0362
     11 C           0.5913   -3.9390    0.5484 C.3     1  UNL1       -0.0389
     12 C           1.5306   -1.7090    0.2801 C.ar    1  UNL1        0.0039
     13 C           1.4457   -0.3314    0.1069 C.ar    1  UNL1        0.2213
     14 O           2.4907    0.4688    0.0191 O.3     1  UNL1       -0.4380
     15 C           3.7641    0.7245   -0.0001 C.ar    1  UNL1        0.1304
     16 C           4.1807    2.0695   -0.1452 C.ar    1  UNL1       -0.0185
     17 C           5.4871    2.4156   -0.1743 C.ar    1  UNL1       -0.0434
     18 C           6.4590    1.4671   -0.0633 C.ar    1  UNL1        0.0649
     19 C           7.8528    1.8654   -0.0975 C.2     1  UNL1        0.3081
     20 N           8.2203    3.0112    0.3309 N.2     1  UNL1       -0.0994
     21 N           8.8441    0.9853   -0.6107 N.pl3   1  UNL1       -0.2466
     22 C           6.1274    0.1618    0.0779 C.ar    1  UNL1       -0.0434
     23 C           4.8122   -0.1945    0.1081 C.ar    1  UNL1       -0.0185
     24 N           0.1678    0.2122    0.0240 N.ar    1  UNL1       -0.2125
     25 C          -0.9268   -0.5262    0.1035 C.ar    1  UNL1        0.0756
     26 C          -2.1903    0.0805    0.0128 C.ar    1  UNL1       -0.0279
     27 C          -4.7944    1.0655   -0.7692 C.ar    1  UNL1       -0.0538
     28 C          -5.9912    1.7116   -0.8925 C.ar    1  UNL1       -0.0583
     29 H          -8.2888    2.9855    0.0196 H       1  UNL1        0.0278
     30 H          -9.1357    1.3627    0.2023 H       1  UNL1        0.0278
     31 H          -8.7141    1.9343   -1.4250 H       1  UNL1        0.0278
     32 H          -7.8432   -0.2381    1.0654 H       1  UNL1        0.0620
     33 H          -5.6562   -1.4173    1.2896 H       1  UNL1        0.0624
     34 H          -4.0527   -2.7226    0.3412 H       1  UNL1        0.0624
     35 H          -1.7989   -3.7386    0.4953 H       1  UNL1        0.0624
     36 H           0.3382   -4.1828    1.6222 H       1  UNL1        0.0278
     37 H          -0.0020   -4.6130   -0.0590 H       1  UNL1        0.0278
     38 H           1.6561   -4.2182    0.4312 H       1  UNL1        0.0278
     39 H           2.5209   -2.1650    0.3492 H       1  UNL1        0.0674
     40 H           3.4237    2.8488   -0.2362 H       1  UNL1        0.0654
     41 H           5.7492    3.4819   -0.2898 H       1  UNL1        0.0627
     42 H           7.5899    3.7379    0.7273 H       1  UNL1        0.3633
     43 H           9.7141    0.7992   -0.0813 H       1  UNL1        0.2884
     44 H           8.7144    0.5064   -1.5359 H       1  UNL1        0.2884
     45 H           6.8994   -0.6188    0.1688 H       1  UNL1        0.0627
     46 H           4.5628   -1.2448    0.2210 H       1  UNL1        0.0654
     47 H          -2.2524    1.1510   -0.1216 H       1  UNL1        0.0645
     48 H          -3.8997    1.4254   -1.2915 H       1  UNL1        0.0624
     49 H          -6.0462    2.5991   -1.5235 H       1  UNL1        0.0620
@<TRIPOS>BOND
     1     1     2    1
     2     2     3   ar
     3     3     4   ar
     4     4     5   ar
     5     5     6    1
     6     6     7   ar
     7     7     8   ar
     8     8     9   ar
     9     9    10   ar
    10    10    11    1
    11    10    12   ar
    12    12    13   ar
    13    13    14    1
    14    14    15    1
    15    15    16   ar
    16    16    17   ar
    17    17    18   ar
    18    18    19    1
    19    19    20    2
    20    19    21    1
    21    18    22   ar
    22    22    23   ar
    23    13    24   ar
    24    24    25   ar
    25    25    26   ar
    26     5    27   ar
    27    27    28   ar
    28    28     2   ar
    29    26     6   ar
    30    25     9   ar
    31    23    15   ar
    32     1    29    1
    33     1    30    1
    34     1    31    1
    35     3    32    1
    36     4    33    1
    37     7    34    1
    38     8    35    1
    39    11    36    1
    40    11    37    1
    41    11    38    1
    42    12    39    1
    43    16    40    1
    44    17    41    1
    45    20    42    1
    46    21    43    1
    47    21    44    1
    48    22    45    1
    49    23    46    1
    50    26    47    1
    51    27    48    1
    52    28    49    1
