
     RDKit          3D

 49 52  0  0  0  0  0  0  0  0999 V2000
   -8.3824    1.9545   -0.3749 C   0  0  0  0  0  0  0  0  0  0  0  0
   -7.0855    1.2295   -0.2235 C   0  0  0  0  0  0  0  0  0  0  0  0
   -6.9425    0.1089    0.5514 C   0  0  0  0  0  0  0  0  0  0  0  0
   -5.7234   -0.5462    0.6747 C   0  0  0  0  0  0  0  0  0  0  0  0
   -4.6040   -0.0706    0.0033 C   0  0  0  0  0  0  0  0  0  0  0  0
   -3.2999   -0.7234    0.1003 C   0  0  0  0  0  0  0  0  0  0  0  0
   -3.1805   -2.0850    0.2719 C   0  0  0  0  0  0  0  0  0  0  0  0
   -1.9304   -2.6778    0.3608 C   0  0  0  0  0  0  0  0  0  0  0  0
   -0.8139   -1.8890    0.2752 C   0  0  0  0  0  0  0  0  0  0  0  0
    0.4127   -2.5127    0.3675 C   0  0  0  0  0  0  0  0  0  0  0  0
    0.5913   -3.9390    0.5484 C   0  0  0  0  0  0  0  0  0  0  0  0
    1.5306   -1.7090    0.2801 C   0  0  0  0  0  0  0  0  0  0  0  0
    1.4457   -0.3314    0.1069 C   0  0  0  0  0  0  0  0  0  0  0  0
    2.4907    0.4688    0.0191 O   0  0  0  0  0  0  0  0  0  0  0  0
    3.7641    0.7245   -0.0001 C   0  0  0  0  0  0  0  0  0  0  0  0
    4.1807    2.0695   -0.1452 C   0  0  0  0  0  0  0  0  0  0  0  0
    5.4871    2.4156   -0.1743 C   0  0  0  0  0  0  0  0  0  0  0  0
    6.4590    1.4671   -0.0633 C   0  0  0  0  0  0  0  0  0  0  0  0
    7.8528    1.8654   -0.0975 C   0  0  0  0  0  0  0  0  0  0  0  0
    8.2203    3.0112    0.3309 N   0  0  0  0  0  0  0  0  0  0  0  0
    8.8441    0.9853   -0.6107 N   0  0  0  0  0  0  0  0  0  0  0  0
    6.1274    0.1618    0.0779 C   0  0  0  0  0  0  0  0  0  0  0  0
    4.8122   -0.1945    0.1081 C   0  0  0  0  0  0  0  0  0  0  0  0
    0.1678    0.2122    0.0240 N   0  0  0  0  0  0  0  0  0  0  0  0
   -0.9268   -0.5262    0.1035 C   0  0  0  0  0  0  0  0  0  0  0  0
   -2.1903    0.0805    0.0128 C   0  0  0  0  0  0  0  0  0  0  0  0
   -4.7944    1.0655   -0.7692 C   0  0  0  0  0  0  0  0  0  0  0  0
   -5.9912    1.7116   -0.8925 C   0  0  0  0  0  0  0  0  0  0  0  0
   -8.2888    2.9855    0.0196 H   0  0  0  0  0  0  0  0  0  0  0  0
   -9.1357    1.3627    0.2023 H   0  0  0  0  0  0  0  0  0  0  0  0
   -8.7141    1.9343   -1.4250 H   0  0  0  0  0  0  0  0  0  0  0  0
   -7.8432   -0.2381    1.0654 H   0  0  0  0  0  0  0  0  0  0  0  0
   -5.6562   -1.4173    1.2896 H   0  0  0  0  0  0  0  0  0  0  0  0
   -4.0527   -2.7226    0.3412 H   0  0  0  0  0  0  0  0  0  0  0  0
   -1.7989   -3.7386    0.4953 H   0  0  0  0  0  0  0  0  0  0  0  0
    0.3382   -4.1828    1.6222 H   0  0  0  0  0  0  0  0  0  0  0  0
   -0.0020   -4.6130   -0.0590 H   0  0  0  0  0  0  0  0  0  0  0  0
    1.6561   -4.2182    0.4312 H   0  0  0  0  0  0  0  0  0  0  0  0
    2.5209   -2.1650    0.3492 H   0  0  0  0  0  0  0  0  0  0  0  0
    3.4237    2.8488   -0.2362 H   0  0  0  0  0  0  0  0  0  0  0  0
    5.7492    3.4819   -0.2898 H   0  0  0  0  0  0  0  0  0  0  0  0
    7.5899    3.7379    0.7273 H   0  0  0  0  0  0  0  0  0  0  0  0
    9.7141    0.7992   -0.0813 H   0  0  0  0  0  0  0  0  0  0  0  0
    8.7144    0.5064   -1.5359 H   0  0  0  0  0  0  0  0  0  0  0  0
    6.8994   -0.6188    0.1688 H   0  0  0  0  0  0  0  0  0  0  0  0
    4.5628   -1.2448    0.2210 H   0  0  0  0  0  0  0  0  0  0  0  0
   -2.2524    1.1510   -0.1216 H   0  0  0  0  0  0  0  0  0  0  0  0
   -3.8997    1.4254   -1.2915 H   0  0  0  0  0  0  0  0  0  0  0  0
   -6.0462    2.5991   -1.5235 H   0  0  0  0  0  0  0  0  0  0  0  0
  1  2  1  0
  2  3  2  0
  3  4  1  0
  4  5  2  0
  5  6  1  0
  6  7  2  0
  7  8  1  0
  8  9  2  0
  9 10  1  0
 10 11  1  0
 10 12  2  0
 12 13  1  0
 13 14  1  0
 14 15  1  0
 15 16  2  0
 16 17  1  0
 17 18  2  0
 18 19  1  0
 19 20  2  3
 19 21  1  0
 18 22  1  0
 22 23  2  0
 13 24  2  0
 24 25  1  0
 25 26  2  0
  5 27  1  0
 27 28  2  0
 28  2  1  0
 26  6  1  0
 25  9  1  0
 23 15  1  0
  1 29  1  0
  1 30  1  0
  1 31  1  0
  3 32  1  0
  4 33  1  0
  7 34  1  0
  8 35  1  0
 11 36  1  0
 11 37  1  0
 11 38  1  0
 12 39  1  0
 16 40  1  0
 17 41  1  0
 20 42  1  0
 21 43  1  0
 21 44  1  0
 22 45  1  0
 23 46  1  0
 26 47  1  0
 27 48  1  0
 28 49  1  0
M  END
$$$$
