@<TRIPOS>MOLECULE
*****
 54 59 0 0 0
SMALL
GASTEIGER

@<TRIPOS>ATOM
      1 N           4.5142    3.5168   -0.8511 N.1     1  UNL1       -0.1908
      2 C           3.9910    2.4843   -0.6638 C.1     1  UNL1        0.1010
      3 C           3.3359    1.2414   -0.4260 C.ar    1  UNL1        0.0733
      4 C           1.9465    1.1342   -0.5722 C.ar    1  UNL1       -0.0347
      5 C           1.2672   -0.0384   -0.3623 C.ar    1  UNL1       -0.0137
      6 C          -0.1789   -0.1173   -0.5254 C.ar    1  UNL1        0.0185
      7 C          -1.0192    0.9406   -0.2669 C.ar    1  UNL1        0.0391
      8 N          -2.3654    0.8567   -0.4227 N.ar    1  UNL1       -0.2350
      9 C          -2.8811   -0.3122   -0.8466 C.ar    1  UNL1        0.1632
     10 C          -4.1938   -0.6554   -1.0817 C.ar    1  UNL1        0.0466
     11 C          -5.4067    0.1440   -0.9440 C.ar    1  UNL1       -0.0037
     12 C          -5.9057    0.8906   -1.9955 C.ar    1  UNL1       -0.0532
     13 C          -7.0636    1.6484   -1.8528 C.ar    1  UNL1       -0.0591
     14 C          -7.7586    1.6860   -0.6613 C.ar    1  UNL1       -0.0357
     15 C          -7.2574    0.9396    0.3850 C.ar    1  UNL1        0.0715
     16 N          -7.8983    0.9438    1.5656 N.ar    1  UNL1       -0.2550
     17 C          -7.4684    0.2399    2.6339 C.ar    1  UNL1        0.0283
     18 C          -6.3252   -0.5202    2.5246 C.ar    1  UNL1       -0.0430
     19 C          -5.6353   -0.5517    1.3253 C.ar    1  UNL1       -0.0506
     20 C          -6.1029    0.1830    0.2458 C.ar    1  UNL1        0.0082
     21 C          -4.1562   -1.9702   -1.4990 C.ar    1  UNL1        0.0597
     22 N          -2.8703   -2.3666   -1.5031 N.ar    1  UNL1       -0.1727
     23 N          -2.0809   -1.3612   -1.1060 N.ar    1  UNL1       -0.2206
     24 C          -0.7437   -1.3108   -0.9619 C.ar    1  UNL1        0.0406
     25 C           1.9589   -1.1671    0.0076 C.ar    1  UNL1       -0.0521
     26 C           3.3354   -1.0758    0.1563 C.ar    1  UNL1       -0.0388
     27 C           4.0167    0.1092   -0.0565 C.ar    1  UNL1        0.0474
     28 N           5.4229    0.1232    0.1218 N.pl3   1  UNL1       -0.3265
     29 C           6.0026    0.9235    1.1485 C.3     1  UNL1        0.0248
     30 C           7.4213    0.4793    1.4296 C.3     1  UNL1        0.0117
     31 N           7.6303   -0.9246    1.3384 N.3     1  UNL1       -0.3130
     32 C           7.2349   -1.5174    0.1047 C.3     1  UNL1        0.0117
     33 C           6.3188   -0.6628   -0.7186 C.3     1  UNL1        0.0248
     34 H           1.3989    2.0393   -0.8676 H       1  UNL1        0.0637
     35 H          -0.5906    1.8729    0.0728 H       1  UNL1        0.0837
     36 H          -5.3743    0.8697   -2.9270 H       1  UNL1        0.0624
     37 H          -7.4617    2.2370   -2.6733 H       1  UNL1        0.0618
     38 H          -8.6636    2.2672   -0.5209 H       1  UNL1        0.0639
     39 H          -8.0444    0.2935    3.5630 H       1  UNL1        0.0830
     40 H          -5.9807   -1.0847    3.3820 H       1  UNL1        0.0633
     41 H          -4.7429   -1.1556    1.2677 H       1  UNL1        0.0625
     42 H          -5.0114   -2.5771   -1.7747 H       1  UNL1        0.0855
     43 H          -0.0882   -2.1537   -1.1690 H       1  UNL1        0.0837
     44 H           1.4422   -2.0942    0.1760 H       1  UNL1        0.0624
     45 H           3.9093   -1.9435    0.4458 H       1  UNL1        0.0637
     46 H           5.4183    0.7781    2.0809 H       1  UNL1        0.0476
     47 H           6.0586    1.9718    0.8480 H       1  UNL1        0.0476
     48 H           7.6703    0.8144    2.4575 H       1  UNL1        0.0439
     49 H           8.1345    1.0321    0.7593 H       1  UNL1        0.0439
     50 H           7.3707   -1.4785    2.1642 H       1  UNL1        0.1220
     51 H           8.1553   -1.7200   -0.5093 H       1  UNL1        0.0439
     52 H           6.7821   -2.5235    0.2716 H       1  UNL1        0.0439
     53 H           6.8642   -0.0136   -1.4079 H       1  UNL1        0.0476
     54 H           5.6686   -1.3645   -1.3086 H       1  UNL1        0.0476
@<TRIPOS>BOND
     1     1     2    3
     2     2     3    1
     3     3     4   ar
     4     4     5   ar
     5     5     6    1
     6     6     7   ar
     7     7     8   ar
     8     8     9   ar
     9     9    10   ar
    10    10    11    1
    11    11    12   ar
    12    12    13   ar
    13    13    14   ar
    14    14    15   ar
    15    15    16   ar
    16    16    17   ar
    17    17    18   ar
    18    18    19   ar
    19    19    20   ar
    20    10    21   ar
    21    21    22   ar
    22    22    23   ar
    23    23    24   ar
    24     5    25   ar
    25    25    26   ar
    26    26    27   ar
    27    27    28    1
    28    28    29    1
    29    29    30    1
    30    30    31    1
    31    31    32    1
    32    32    33    1
    33    27     3   ar
    34    33    28    1
    35    24     6   ar
    36    23     9   ar
    37    20    11   ar
    38    20    15   ar
    39     4    34    1
    40     7    35    1
    41    12    36    1
    42    13    37    1
    43    14    38    1
    44    17    39    1
    45    18    40    1
    46    19    41    1
    47    21    42    1
    48    24    43    1
    49    25    44    1
    50    26    45    1
    51    29    46    1
    52    29    47    1
    53    30    48    1
    54    30    49    1
    55    31    50    1
    56    32    51    1
    57    32    52    1
    58    33    53    1
    59    33    54    1
