
     RDKit          3D

 50 53  0  0  0  0  0  0  0  0999 V2000
    1.3903   -0.5297    0.6084 O   0  0  0  0  0  0  0  0  0  0  0  0
    1.2878   -0.5855   -0.6282 C   0  0  0  0  0  0  0  0  0  0  0  0
   -0.0297   -0.7307   -1.2713 C   0  0  0  0  0  0  0  0  0  0  0  0
   -1.1026   -0.8054   -0.3040 N   0  0  0  0  0  0  0  0  0  0  0  0
   -1.7520    0.3200    0.1109 C   0  0  0  0  0  0  0  0  0  0  0  0
   -1.4119    1.4148   -0.3682 O   0  0  0  0  0  0  0  0  0  0  0  0
   -2.7682    0.2908    1.0392 C   0  0  0  0  0  0  0  0  0  0  0  0
   -3.4971    1.5090    1.4968 C   0  0  0  0  0  0  0  0  0  0  0  0
   -4.5034    1.9782    0.5214 C   0  0  0  0  0  0  0  0  0  0  0  0
   -4.2827    2.9119   -0.4581 C   0  0  0  0  0  0  0  0  0  0  0  0
   -5.2898    3.2863   -1.3339 C   0  0  0  0  0  0  0  0  0  0  0  0
   -6.5460    2.6996   -1.2110 C   0  0  0  0  0  0  0  0  0  0  0  0
   -6.7595    1.7673   -0.2298 C   0  0  0  0  0  0  0  0  0  0  0  0
   -5.7596    1.4147    0.6175 C   0  0  0  0  0  0  0  0  0  0  0  0
   -3.0984   -0.9214    1.5283 N   0  0  0  0  0  0  0  0  0  0  0  0
   -2.4721   -2.0427    1.1336 C   0  0  0  0  0  0  0  0  0  0  0  0
   -2.8040   -3.2822    1.6308 C   0  0  0  0  0  0  0  0  0  0  0  0
   -2.1707   -4.4416    1.2386 C   0  0  0  0  0  0  0  0  0  0  0  0
   -1.1546   -4.4104    0.3105 C   0  0  0  0  0  0  0  0  0  0  0  0
   -0.8122   -3.1507   -0.1997 C   0  0  0  0  0  0  0  0  0  0  0  0
   -1.4454   -1.9990    0.1934 C   0  0  0  0  0  0  0  0  0  0  0  0
    2.4538   -0.5082   -1.4225 N   0  0  0  0  0  0  0  0  0  0  0  0
    3.7337   -0.3693   -0.8193 N   0  0  0  0  0  0  0  0  0  0  0  0
    4.5730    0.5452   -1.1480 C   0  0  0  0  0  0  0  0  0  0  0  0
    5.8797    0.6146   -0.4671 C   0  0  0  0  0  0  0  0  0  0  0  0
    6.8109    1.5688   -0.7825 C   0  0  0  0  0  0  0  0  0  0  0  0
    8.0167    1.6028   -0.1203 C   0  0  0  0  0  0  0  0  0  0  0  0
    8.3088    0.6908    0.8602 C   0  0  0  0  0  0  0  0  0  0  0  0
    9.9526    0.6817    1.8157 Br  0  0  0  0  0  0  0  0  0  0  0  0
    7.3740   -0.2701    1.1795 C   0  0  0  0  0  0  0  0  0  0  0  0
    6.1712   -0.2984    0.5137 C   0  0  0  0  0  0  0  0  0  0  0  0
   -0.1881    0.2631   -1.8051 H   0  0  0  0  0  0  0  0  0  0  0  0
   -0.0945   -1.4758   -2.0623 H   0  0  0  0  0  0  0  0  0  0  0  0
   -3.9997    1.3416    2.4699 H   0  0  0  0  0  0  0  0  0  0  0  0
   -2.8050    2.3588    1.6661 H   0  0  0  0  0  0  0  0  0  0  0  0
   -3.3070    3.3698   -0.5505 H   0  0  0  0  0  0  0  0  0  0  0  0
   -5.1119    4.0284   -2.1106 H   0  0  0  0  0  0  0  0  0  0  0  0
   -7.3533    2.9845   -1.8961 H   0  0  0  0  0  0  0  0  0  0  0  0
   -7.7471    1.3238   -0.1521 H   0  0  0  0  0  0  0  0  0  0  0  0
   -5.9922    0.6641    1.3809 H   0  0  0  0  0  0  0  0  0  0  0  0
   -3.6164   -3.2891    2.3700 H   0  0  0  0  0  0  0  0  0  0  0  0
   -2.4706   -5.3997    1.6624 H   0  0  0  0  0  0  0  0  0  0  0  0
   -0.6359   -5.3002   -0.0203 H   0  0  0  0  0  0  0  0  0  0  0  0
   -0.0148   -3.1066   -0.9263 H   0  0  0  0  0  0  0  0  0  0  0  0
    2.3573   -0.5565   -2.4702 H   0  0  0  0  0  0  0  0  0  0  0  0
    4.2953    1.2448   -1.9211 H   0  0  0  0  0  0  0  0  0  0  0  0
    6.5806    2.2878   -1.5548 H   0  0  0  0  0  0  0  0  0  0  0  0
    8.7735    2.3637   -0.3633 H   0  0  0  0  0  0  0  0  0  0  0  0
    7.5920   -1.0026    1.9581 H   0  0  0  0  0  0  0  0  0  0  0  0
    5.4451   -1.0512    0.7684 H   0  0  0  0  0  0  0  0  0  0  0  0
  1  2  2  0
  2  3  1  0
  3  4  1  0
  4  5  1  0
  5  6  2  0
  5  7  1  0
  7  8  1  0
  8  9  1  0
  9 10  2  0
 10 11  1  0
 11 12  2  0
 12 13  1  0
 13 14  2  0
  7 15  2  0
 15 16  1  0
 16 17  2  0
 17 18  1  0
 18 19  2  0
 19 20  1  0
 20 21  2  0
  2 22  1  0
 22 23  1  0
 23 24  2  0
 24 25  1  0
 25 26  2  0
 26 27  1  0
 27 28  2  0
 28 29  1  0
 28 30  1  0
 30 31  2  0
 21  4  1  0
 31 25  1  0
 14  9  1  0
 21 16  1  0
  3 32  1  0
  3 33  1  0
  8 34  1  0
  8 35  1  0
 10 36  1  0
 11 37  1  0
 12 38  1  0
 13 39  1  0
 14 40  1  0
 17 41  1  0
 18 42  1  0
 19 43  1  0
 20 44  1  0
 22 45  1  0
 24 46  1  0
 26 47  1  0
 27 48  1  0
 30 49  1  0
 31 50  1  0
M  END
$$$$
