@<TRIPOS>MOLECULE
*****
 50 53 0 0 0
SMALL
GASTEIGER

@<TRIPOS>ATOM
      1 O           1.3903   -0.5297    0.6084 O.2     1  UNL1       -0.2721
      2 C           1.2878   -0.5855   -0.6282 C.2     1  UNL1        0.2521
      3 C          -0.0297   -0.7307   -1.2713 C.3     1  UNL1        0.1046
      4 N          -1.1026   -0.8054   -0.3040 N.ar    1  UNL1       -0.2963
      5 C          -1.7520    0.3200    0.1109 C.ar    1  UNL1        0.2739
      6 O          -1.4119    1.4148   -0.3682 O.2     1  UNL1       -0.2657
      7 C          -2.7682    0.2908    1.0392 C.ar    1  UNL1        0.1105
      8 C          -3.4971    1.5090    1.4968 C.3     1  UNL1        0.0201
      9 C          -4.5034    1.9782    0.5214 C.ar    1  UNL1       -0.0414
     10 C          -4.2827    2.9119   -0.4581 C.ar    1  UNL1       -0.0582
     11 C          -5.2898    3.2863   -1.3339 C.ar    1  UNL1       -0.0615
     12 C          -6.5460    2.6996   -1.2110 C.ar    1  UNL1       -0.0617
     13 C          -6.7595    1.7673   -0.2298 C.ar    1  UNL1       -0.0615
     14 C          -5.7596    1.4147    0.6175 C.ar    1  UNL1       -0.0582
     15 N          -3.0984   -0.9214    1.5283 N.ar    1  UNL1       -0.2444
     16 C          -2.4721   -2.0427    1.1336 C.ar    1  UNL1        0.0879
     17 C          -2.8040   -3.2822    1.6308 C.ar    1  UNL1       -0.0343
     18 C          -2.1707   -4.4416    1.2386 C.ar    1  UNL1       -0.0596
     19 C          -1.1546   -4.4104    0.3105 C.ar    1  UNL1       -0.0597
     20 C          -0.8122   -3.1507   -0.1997 C.ar    1  UNL1       -0.0360
     21 C          -1.4454   -1.9990    0.1934 C.ar    1  UNL1        0.0708
     22 N           2.4538   -0.5082   -1.4225 N.am    1  UNL1       -0.2055
     23 N           3.7337   -0.3693   -0.8193 N.2     1  UNL1       -0.1877
     24 C           4.5730    0.5452   -1.1480 C.2     1  UNL1        0.0528
     25 C           5.8797    0.6146   -0.4671 C.ar    1  UNL1       -0.0054
     26 C           6.8109    1.5688   -0.7825 C.ar    1  UNL1       -0.0521
     27 C           8.0167    1.6028   -0.1203 C.ar    1  UNL1       -0.0472
     28 C           8.3088    0.6908    0.8602 C.ar    1  UNL1        0.0179
     29 BR          9.9526    0.6817    1.8157 Br      1  UNL1       -0.0503
     30 C           7.3740   -0.2701    1.1795 C.ar    1  UNL1       -0.0472
     31 C           6.1712   -0.2984    0.5137 C.ar    1  UNL1       -0.0521
     32 H          -0.1881    0.2631   -1.8051 H       1  UNL1        0.0589
     33 H          -0.0945   -1.4758   -2.0623 H       1  UNL1        0.0589
     34 H          -3.9997    1.3416    2.4699 H       1  UNL1        0.0378
     35 H          -2.8050    2.3588    1.6661 H       1  UNL1        0.0378
     36 H          -3.3070    3.3698   -0.5505 H       1  UNL1        0.0620
     37 H          -5.1119    4.0284   -2.1106 H       1  UNL1        0.0618
     38 H          -7.3533    2.9845   -1.8961 H       1  UNL1        0.0618
     39 H          -7.7471    1.3238   -0.1521 H       1  UNL1        0.0618
     40 H          -5.9922    0.6641    1.3809 H       1  UNL1        0.0620
     41 H          -3.6164   -3.2891    2.3700 H       1  UNL1        0.0639
     42 H          -2.4706   -5.3997    1.6624 H       1  UNL1        0.0618
     43 H          -0.6359   -5.3002   -0.0203 H       1  UNL1        0.0618
     44 H          -0.0148   -3.1066   -0.9263 H       1  UNL1        0.0639
     45 H           2.3573   -0.5565   -2.4702 H       1  UNL1        0.1773
     46 H           4.2953    1.2448   -1.9211 H       1  UNL1        0.0851
     47 H           6.5806    2.2878   -1.5548 H       1  UNL1        0.0624
     48 H           8.7735    2.3637   -0.3633 H       1  UNL1        0.0629
     49 H           7.5920   -1.0026    1.9581 H       1  UNL1        0.0629
     50 H           5.4451   -1.0512    0.7684 H       1  UNL1        0.0624
@<TRIPOS>BOND
     1     1     2    2
     2     2     3    1
     3     3     4    1
     4     4     5   ar
     5     5     6    2
     6     5     7   ar
     7     7     8    1
     8     8     9    1
     9     9    10   ar
    10    10    11   ar
    11    11    12   ar
    12    12    13   ar
    13    13    14   ar
    14     7    15   ar
    15    15    16   ar
    16    16    17   ar
    17    17    18   ar
    18    18    19   ar
    19    19    20   ar
    20    20    21   ar
    21     2    22   am
    22    22    23    1
    23    23    24    2
    24    24    25    1
    25    25    26   ar
    26    26    27   ar
    27    27    28   ar
    28    28    29    1
    29    28    30   ar
    30    30    31   ar
    31    21     4   ar
    32    31    25   ar
    33    14     9   ar
    34    21    16   ar
    35     3    32    1
    36     3    33    1
    37     8    34    1
    38     8    35    1
    39    10    36    1
    40    11    37    1
    41    12    38    1
    42    13    39    1
    43    14    40    1
    44    17    41    1
    45    18    42    1
    46    19    43    1
    47    20    44    1
    48    22    45    1
    49    24    46    1
    50    26    47    1
    51    27    48    1
    52    30    49    1
    53    31    50    1
