@<TRIPOS>MOLECULE
*****
 59 63 0 0 0
SMALL
GASTEIGER

@<TRIPOS>ATOM
      1 C          -7.5265    1.3759    2.3915 C.3     1  UNL1        0.0789
      2 O          -7.8712    1.4176    1.0193 O.3     1  UNL1       -0.4936
      3 C          -6.9047    1.0777    0.0929 C.ar    1  UNL1        0.1389
      4 C          -5.6252    0.7024    0.4644 C.ar    1  UNL1       -0.0107
      5 C          -4.6508    0.3606   -0.4506 C.ar    1  UNL1       -0.0115
      6 C          -3.2988   -0.0354   -0.0436 C.ar    1  UNL1        0.0210
      7 C          -2.6880   -1.1335   -0.6218 C.ar    1  UNL1       -0.0074
      8 C          -1.4216   -1.5521   -0.2802 C.ar    1  UNL1        0.1446
      9 O          -0.8738   -2.6603   -0.9011 O.3     1  UNL1       -0.4930
     10 C          -1.6043   -3.3669   -1.8841 C.3     1  UNL1        0.0789
     11 C          -0.7230   -0.8583    0.6749 C.ar    1  UNL1        0.0943
     12 N           0.5865   -1.3108    1.0119 N.ar    1  UNL1       -0.2733
     13 C           0.8114   -2.0721    2.1012 C.ar    1  UNL1        0.2563
     14 O          -0.1601   -2.3900    2.8371 O.2     1  UNL1       -0.2673
     15 C           2.0641   -2.5279    2.4581 C.ar    1  UNL1        0.0039
     16 C           3.1556   -2.2048    1.6826 C.ar    1  UNL1       -0.0474
     17 C           2.9283   -1.4230    0.5631 C.ar    1  UNL1        0.0009
     18 C           4.0203   -1.0805   -0.2417 C.ar    1  UNL1       -0.0259
     19 C           3.7765   -0.3035   -1.3490 C.ar    1  UNL1        0.1093
     20 S           5.0926    0.1678   -2.3864 S.O2    1  UNL1        0.0746
     21 O           4.5836    0.1271   -3.8139 O.2     1  UNL1       -0.1499
     22 O           6.2235   -0.8338   -2.3295 O.2     1  UNL1       -0.1499
     23 N           5.6345    1.7477   -1.9832 N.pl3   1  UNL1       -0.1836
     24 C           6.1565    2.0014   -0.6972 C.ar    1  UNL1        0.2347
     25 N           6.2323    1.0245    0.2012 N.ar    1  UNL1       -0.2217
     26 C           6.7220    1.2092    1.4451 C.ar    1  UNL1        0.0327
     27 C           7.1611    2.4650    1.7945 C.ar    1  UNL1       -0.0253
     28 C           7.0886    3.4775    0.8801 C.ar    1  UNL1        0.0327
     29 N           6.5863    3.2419   -0.3631 N.ar    1  UNL1       -0.2217
     30 C           2.5061    0.1263   -1.6624 C.ar    1  UNL1       -0.0331
     31 C           1.4168   -0.2117   -0.8653 C.ar    1  UNL1       -0.0353
     32 C           1.6576   -0.9909    0.2468 C.ar    1  UNL1        0.0574
     33 C          -1.3141    0.2405    1.2645 C.ar    1  UNL1        0.0017
     34 C          -2.5934    0.6533    0.9110 C.ar    1  UNL1        0.1333
     35 F          -3.1731    1.7384    1.4953 F       1  UNL1       -0.2048
     36 C          -5.0023    0.4061   -1.7877 C.ar    1  UNL1       -0.0523
     37 C          -6.2749    0.7789   -2.1672 C.ar    1  UNL1       -0.0393
     38 C          -7.2456    1.1197   -1.2483 C.ar    1  UNL1        0.0825
     39 CL         -8.8652    1.5955   -1.7053 Cl      1  UNL1       -0.0798
     40 H          -6.8469    2.2567    2.5692 H       1  UNL1        0.0660
     41 H          -7.0513    0.4272    2.6684 H       1  UNL1        0.0660
     42 H          -8.4806    1.5635    2.9634 H       1  UNL1        0.0660
     43 H          -5.3608    0.6704    1.5174 H       1  UNL1        0.0661
     44 H          -3.2452   -1.6718   -1.3711 H       1  UNL1        0.0662
     45 H          -1.1010   -4.2905   -2.1805 H       1  UNL1        0.0660
     46 H          -2.6164   -3.6823   -1.4926 H       1  UNL1        0.0660
     47 H          -1.8026   -2.6687   -2.7269 H       1  UNL1        0.0660
     48 H           2.2407   -3.1345    3.3265 H       1  UNL1        0.0672
     49 H           4.1318   -2.5514    1.9478 H       1  UNL1        0.0626
     50 H           4.9987   -1.4364    0.0248 H       1  UNL1        0.0644
     51 H           5.5671    2.5113   -2.7124 H       1  UNL1        0.1767
     52 H           6.7781    0.4091    2.1641 H       1  UNL1        0.0831
     53 H           7.5586    2.6541    2.7766 H       1  UNL1        0.0648
     54 H           7.4327    4.4637    1.1528 H       1  UNL1        0.0831
     55 H           2.3118    0.7414   -2.5389 H       1  UNL1        0.0638
     56 H           0.4398    0.1467   -1.1482 H       1  UNL1        0.0639
     57 H          -0.7577    0.7867    2.0199 H       1  UNL1        0.0668
     58 H          -4.2330    0.1365   -2.5030 H       1  UNL1        0.0624
     59 H          -6.5516    0.8151   -3.2115 H       1  UNL1        0.0633
@<TRIPOS>BOND
     1     1     2    1
     2     2     3    1
     3     3     4   ar
     4     4     5   ar
     5     5     6    1
     6     6     7   ar
     7     7     8   ar
     8     8     9    1
     9     9    10    1
    10     8    11   ar
    11    11    12    1
    12    12    13   ar
    13    13    14    2
    14    13    15   ar
    15    15    16   ar
    16    16    17   ar
    17    17    18   ar
    18    18    19   ar
    19    19    20    1
    20    20    21    2
    21    20    22    2
    22    20    23    1
    23    23    24    1
    24    24    25   ar
    25    25    26   ar
    26    26    27   ar
    27    27    28   ar
    28    28    29   ar
    29    19    30   ar
    30    30    31   ar
    31    31    32   ar
    32    11    33   ar
    33    33    34   ar
    34    34    35    1
    35     5    36   ar
    36    36    37   ar
    37    37    38   ar
    38    38    39    1
    39    38     3   ar
    40    34     6   ar
    41    32    12   ar
    42    32    17   ar
    43    29    24   ar
    44     1    40    1
    45     1    41    1
    46     1    42    1
    47     4    43    1
    48     7    44    1
    49    10    45    1
    50    10    46    1
    51    10    47    1
    52    15    48    1
    53    16    49    1
    54    18    50    1
    55    23    51    1
    56    26    52    1
    57    27    53    1
    58    28    54    1
    59    30    55    1
    60    31    56    1
    61    33    57    1
    62    36    58    1
    63    37    59    1
