
     RDKit          3D

 59 63  0  0  0  0  0  0  0  0999 V2000
   -7.5265    1.3759    2.3915 C   0  0  0  0  0  0  0  0  0  0  0  0
   -7.8712    1.4176    1.0193 O   0  0  0  0  0  0  0  0  0  0  0  0
   -6.9047    1.0777    0.0929 C   0  0  0  0  0  0  0  0  0  0  0  0
   -5.6252    0.7024    0.4644 C   0  0  0  0  0  0  0  0  0  0  0  0
   -4.6508    0.3606   -0.4506 C   0  0  0  0  0  0  0  0  0  0  0  0
   -3.2988   -0.0354   -0.0436 C   0  0  0  0  0  0  0  0  0  0  0  0
   -2.6880   -1.1335   -0.6218 C   0  0  0  0  0  0  0  0  0  0  0  0
   -1.4216   -1.5521   -0.2802 C   0  0  0  0  0  0  0  0  0  0  0  0
   -0.8738   -2.6603   -0.9011 O   0  0  0  0  0  0  0  0  0  0  0  0
   -1.6043   -3.3669   -1.8841 C   0  0  0  0  0  0  0  0  0  0  0  0
   -0.7230   -0.8583    0.6749 C   0  0  0  0  0  0  0  0  0  0  0  0
    0.5865   -1.3108    1.0119 N   0  0  0  0  0  0  0  0  0  0  0  0
    0.8114   -2.0721    2.1012 C   0  0  0  0  0  0  0  0  0  0  0  0
   -0.1601   -2.3900    2.8371 O   0  0  0  0  0  0  0  0  0  0  0  0
    2.0641   -2.5279    2.4581 C   0  0  0  0  0  0  0  0  0  0  0  0
    3.1556   -2.2048    1.6826 C   0  0  0  0  0  0  0  0  0  0  0  0
    2.9283   -1.4230    0.5631 C   0  0  0  0  0  0  0  0  0  0  0  0
    4.0203   -1.0805   -0.2417 C   0  0  0  0  0  0  0  0  0  0  0  0
    3.7765   -0.3035   -1.3490 C   0  0  0  0  0  0  0  0  0  0  0  0
    5.0926    0.1678   -2.3864 S   0  0  0  0  0  6  0  0  0  0  0  0
    4.5836    0.1271   -3.8139 O   0  0  0  0  0  0  0  0  0  0  0  0
    6.2235   -0.8338   -2.3295 O   0  0  0  0  0  0  0  0  0  0  0  0
    5.6345    1.7477   -1.9832 N   0  0  0  0  0  0  0  0  0  0  0  0
    6.1565    2.0014   -0.6972 C   0  0  0  0  0  0  0  0  0  0  0  0
    6.2323    1.0245    0.2012 N   0  0  0  0  0  0  0  0  0  0  0  0
    6.7220    1.2092    1.4451 C   0  0  0  0  0  0  0  0  0  0  0  0
    7.1611    2.4650    1.7945 C   0  0  0  0  0  0  0  0  0  0  0  0
    7.0886    3.4775    0.8801 C   0  0  0  0  0  0  0  0  0  0  0  0
    6.5863    3.2419   -0.3631 N   0  0  0  0  0  0  0  0  0  0  0  0
    2.5061    0.1263   -1.6624 C   0  0  0  0  0  0  0  0  0  0  0  0
    1.4168   -0.2117   -0.8653 C   0  0  0  0  0  0  0  0  0  0  0  0
    1.6576   -0.9909    0.2468 C   0  0  0  0  0  0  0  0  0  0  0  0
   -1.3141    0.2405    1.2645 C   0  0  0  0  0  0  0  0  0  0  0  0
   -2.5934    0.6533    0.9110 C   0  0  0  0  0  0  0  0  0  0  0  0
   -3.1731    1.7384    1.4953 F   0  0  0  0  0  0  0  0  0  0  0  0
   -5.0023    0.4061   -1.7877 C   0  0  0  0  0  0  0  0  0  0  0  0
   -6.2749    0.7789   -2.1672 C   0  0  0  0  0  0  0  0  0  0  0  0
   -7.2456    1.1197   -1.2483 C   0  0  0  0  0  0  0  0  0  0  0  0
   -8.8652    1.5955   -1.7053 Cl  0  0  0  0  0  0  0  0  0  0  0  0
   -6.8469    2.2567    2.5692 H   0  0  0  0  0  0  0  0  0  0  0  0
   -7.0513    0.4272    2.6684 H   0  0  0  0  0  0  0  0  0  0  0  0
   -8.4806    1.5635    2.9634 H   0  0  0  0  0  0  0  0  0  0  0  0
   -5.3608    0.6704    1.5174 H   0  0  0  0  0  0  0  0  0  0  0  0
   -3.2452   -1.6718   -1.3711 H   0  0  0  0  0  0  0  0  0  0  0  0
   -1.1010   -4.2905   -2.1805 H   0  0  0  0  0  0  0  0  0  0  0  0
   -2.6164   -3.6823   -1.4926 H   0  0  0  0  0  0  0  0  0  0  0  0
   -1.8026   -2.6687   -2.7269 H   0  0  0  0  0  0  0  0  0  0  0  0
    2.2407   -3.1345    3.3265 H   0  0  0  0  0  0  0  0  0  0  0  0
    4.1318   -2.5514    1.9478 H   0  0  0  0  0  0  0  0  0  0  0  0
    4.9987   -1.4364    0.0248 H   0  0  0  0  0  0  0  0  0  0  0  0
    5.5671    2.5113   -2.7124 H   0  0  0  0  0  0  0  0  0  0  0  0
    6.7781    0.4091    2.1641 H   0  0  0  0  0  0  0  0  0  0  0  0
    7.5586    2.6541    2.7766 H   0  0  0  0  0  0  0  0  0  0  0  0
    7.4327    4.4637    1.1528 H   0  0  0  0  0  0  0  0  0  0  0  0
    2.3118    0.7414   -2.5389 H   0  0  0  0  0  0  0  0  0  0  0  0
    0.4398    0.1467   -1.1482 H   0  0  0  0  0  0  0  0  0  0  0  0
   -0.7577    0.7867    2.0199 H   0  0  0  0  0  0  0  0  0  0  0  0
   -4.2330    0.1365   -2.5030 H   0  0  0  0  0  0  0  0  0  0  0  0
   -6.5516    0.8151   -3.2115 H   0  0  0  0  0  0  0  0  0  0  0  0
  1  2  1  0
  2  3  1  0
  3  4  2  0
  4  5  1  0
  5  6  1  0
  6  7  2  0
  7  8  1  0
  8  9  1  0
  9 10  1  0
  8 11  2  0
 11 12  1  0
 12 13  1  0
 13 14  2  0
 13 15  1  0
 15 16  2  0
 16 17  1  0
 17 18  2  0
 18 19  1  0
 19 20  1  0
 20 21  2  0
 20 22  2  0
 20 23  1  0
 23 24  1  0
 24 25  2  0
 25 26  1  0
 26 27  2  0
 27 28  1  0
 28 29  2  0
 19 30  2  0
 30 31  1  0
 31 32  2  0
 11 33  1  0
 33 34  2  0
 34 35  1  0
  5 36  2  0
 36 37  1  0
 37 38  2  0
 38 39  1  0
 38  3  1  0
 34  6  1  0
 32 12  1  0
 32 17  1  0
 29 24  1  0
  1 40  1  0
  1 41  1  0
  1 42  1  0
  4 43  1  0
  7 44  1  0
 10 45  1  0
 10 46  1  0
 10 47  1  0
 15 48  1  0
 16 49  1  0
 18 50  1  0
 23 51  1  0
 26 52  1  0
 27 53  1  0
 28 54  1  0
 30 55  1  0
 31 56  1  0
 33 57  1  0
 36 58  1  0
 37 59  1  0
M  END
$$$$
