@<TRIPOS>MOLECULE
*****
 62 64 0 0 0
SMALL
GASTEIGER

@<TRIPOS>ATOM
      1 C          -3.1509    1.9294    2.8858 C.3     1  UNL1        0.0017
      2 N          -3.7143    2.1798    1.5622 N.pl3   1  UNL1       -0.3209
      3 C          -4.5369    3.3759    1.4183 C.3     1  UNL1        0.0017
      4 C          -3.4628    1.2997    0.4975 C.ar    1  UNL1        0.1298
      5 N          -2.6627    1.7141   -0.4954 N.ar    1  UNL1       -0.2166
      6 C          -2.3490    0.9442   -1.5467 C.ar    1  UNL1        0.1375
      7 C          -1.4677    1.3716   -2.6619 C.3     1  UNL1        0.0326
      8 C          -0.0458    1.0617   -2.3594 C.ar    1  UNL1       -0.0399
      9 C           0.7256    2.0155   -1.7335 C.ar    1  UNL1       -0.0564
     10 C           2.0440    1.7271   -1.4506 C.ar    1  UNL1       -0.0402
     11 C           2.6061    0.5001   -1.7829 C.ar    1  UNL1        0.0337
     12 N           3.9722    0.2666   -1.4631 N.am    1  UNL1       -0.2815
     13 C           4.3975   -0.2840   -0.2348 C.2     1  UNL1        0.2483
     14 O           3.4861   -0.5686    0.5923 O.2     1  UNL1       -0.2699
     15 C           5.7727   -0.5400    0.1364 C.ar    1  UNL1        0.0370
     16 C           6.8031   -0.2730   -0.7143 C.ar    1  UNL1       -0.0491
     17 C           8.1260   -0.5303   -0.3267 C.ar    1  UNL1       -0.0494
     18 C           8.4048   -1.0535    0.9117 C.ar    1  UNL1        0.0549
     19 C           9.7940   -1.3270    1.3268 C.3     1  UNL1        0.4174
     20 F          10.4300   -2.2212    0.4830 F       1  UNL1       -0.1659
     21 F          10.5793   -0.1757    1.3238 F       1  UNL1       -0.1659
     22 F           9.8231   -1.8565    2.5951 F       1  UNL1       -0.1659
     23 C           7.3696   -1.3255    1.7756 C.ar    1  UNL1       -0.0494
     24 C           6.0618   -1.0622    1.3702 C.ar    1  UNL1       -0.0491
     25 C           1.7979   -0.4245   -2.4080 C.ar    1  UNL1       -0.0402
     26 C           0.4769   -0.1522   -2.6983 C.ar    1  UNL1       -0.0564
     27 N          -2.8661   -0.2928   -1.5921 N.ar    1  UNL1       -0.2166
     28 C          -3.6895   -0.7795   -0.6128 C.ar    1  UNL1        0.1298
     29 N          -4.1835   -2.0860   -0.7036 N.pl3   1  UNL1       -0.3209
     30 C          -3.7273   -3.1014    0.2043 C.3     1  UNL1        0.0017
     31 C          -5.1548   -2.4127   -1.7131 C.3     1  UNL1        0.0017
     32 C          -3.9903    0.0405    0.4511 C.ar    1  UNL1        0.0430
     33 C          -4.8915   -0.4288    1.4972 C.3     1  UNL1        0.0764
     34 C          -6.2552    0.1513    1.3894 C.2     1  UNL1        0.3093
     35 O          -6.4913    0.9502    0.4552 O.2     1  UNL1       -0.2506
     36 O          -7.2316   -0.1750    2.2840 O.3     1  UNL1       -0.4804
     37 H          -2.4528    2.7905    3.1418 H       1  UNL1        0.0428
     38 H          -2.5137    1.0436    2.9380 H       1  UNL1        0.0428
     39 H          -3.9743    1.8854    3.5990 H       1  UNL1        0.0428
     40 H          -4.0352    4.1677    2.0236 H       1  UNL1        0.0428
     41 H          -5.5221    3.1386    1.8636 H       1  UNL1        0.0428
     42 H          -4.6210    3.6921    0.3626 H       1  UNL1        0.0428
     43 H          -1.7623    0.8285   -3.5723 H       1  UNL1        0.0392
     44 H          -1.5659    2.4615   -2.7542 H       1  UNL1        0.0392
     45 H           0.2620    2.9605   -1.4870 H       1  UNL1        0.0621
     46 H           2.6341    2.5084   -0.9508 H       1  UNL1        0.0636
     47 H           4.6934    0.5150   -2.1716 H       1  UNL1        0.1551
     48 H           6.6230    0.1322   -1.6798 H       1  UNL1        0.0625
     49 H           8.9622   -0.3281   -0.9810 H       1  UNL1        0.0623
     50 H           7.5696   -1.7353    2.7499 H       1  UNL1        0.0623
     51 H           5.2473   -1.2762    2.0500 H       1  UNL1        0.0625
     52 H           2.2222   -1.3729   -2.6678 H       1  UNL1        0.0636
     53 H          -0.1491   -0.9036   -3.1970 H       1  UNL1        0.0621
     54 H          -2.9909   -2.7303    0.9443 H       1  UNL1        0.0428
     55 H          -4.5468   -3.7061    0.6487 H       1  UNL1        0.0428
     56 H          -3.1266   -3.8188   -0.4365 H       1  UNL1        0.0428
     57 H          -6.1107   -2.7786   -1.2944 H       1  UNL1        0.0428
     58 H          -5.4098   -1.5197   -2.3347 H       1  UNL1        0.0428
     59 H          -4.7895   -3.2191   -2.3911 H       1  UNL1        0.0428
     60 H          -4.5051   -0.1218    2.4848 H       1  UNL1        0.0428
     61 H          -4.9637   -1.5533    1.5806 H       1  UNL1        0.0428
     62 H          -7.9737    0.4826    2.4915 H       1  UNL1        0.2951
@<TRIPOS>BOND
     1     1     2    1
     2     2     3    1
     3     2     4    1
     4     4     5   ar
     5     5     6   ar
     6     6     7    1
     7     7     8    1
     8     8     9   ar
     9     9    10   ar
    10    10    11   ar
    11    11    12    1
    12    12    13   am
    13    13    14    2
    14    13    15    1
    15    15    16   ar
    16    16    17   ar
    17    17    18   ar
    18    18    19    1
    19    19    20    1
    20    19    21    1
    21    19    22    1
    22    18    23   ar
    23    23    24   ar
    24    11    25   ar
    25    25    26   ar
    26     6    27   ar
    27    27    28   ar
    28    28    29    1
    29    29    30    1
    30    29    31    1
    31    28    32   ar
    32    32    33    1
    33    33    34    1
    34    34    35    2
    35    34    36    1
    36    32     4   ar
    37    26     8   ar
    38    24    15   ar
    39     1    37    1
    40     1    38    1
    41     1    39    1
    42     3    40    1
    43     3    41    1
    44     3    42    1
    45     7    43    1
    46     7    44    1
    47     9    45    1
    48    10    46    1
    49    12    47    1
    50    16    48    1
    51    17    49    1
    52    23    50    1
    53    24    51    1
    54    25    52    1
    55    26    53    1
    56    30    54    1
    57    30    55    1
    58    30    56    1
    59    31    57    1
    60    31    58    1
    61    31    59    1
    62    33    60    1
    63    33    61    1
    64    36    62    1
