@<TRIPOS>MOLECULE
*****
 57 59 0 0 0
SMALL
GASTEIGER

@<TRIPOS>ATOM
      1 C          -3.2672   -2.4498   -2.6452 C.3     1  UNL1        0.0790
      2 O          -3.1274   -1.5786   -1.5437 O.3     1  UNL1       -0.4915
      3 C          -1.9264   -1.4804   -0.8548 C.ar    1  UNL1        0.1616
      4 C          -0.8551   -2.2680   -1.2801 C.ar    1  UNL1       -0.0156
      5 C           0.3768   -2.2287   -0.6465 C.ar    1  UNL1       -0.0459
      6 C           0.5934   -1.4042    0.4362 C.ar    1  UNL1        0.0404
      7 C           1.8879   -1.3498    1.1177 C.2     1  UNL1        0.2445
      8 O           2.0106   -0.5731    2.0978 O.2     1  UNL1       -0.2702
      9 N           3.0158   -2.1142    0.7480 N.am    1  UNL1       -0.3041
     10 C           4.2875   -2.0348    1.4484 C.3     1  UNL1        0.0727
     11 C           4.8619   -0.6765    1.4156 C.ar    1  UNL1        0.1545
     12 C           5.7121   -0.2299    0.4247 C.ar    1  UNL1        0.0053
     13 C           6.0199    1.0655    0.7492 C.ar    1  UNL1        0.0865
     14 C           6.8996    2.0034    0.0105 C.3     1  UNL1       -0.0010
     15 C           8.3103    1.4834   -0.1096 C.3     1  UNL1       -0.0571
     16 C           6.3389    2.1596   -1.3998 C.3     1  UNL1       -0.0571
     17 N           5.3550    1.3240    1.8903 N.ar    1  UNL1       -0.0827
     18 O           4.6782    0.2936    2.2723 O.2     1  UNL1       -0.3578
     19 C          -0.4684   -0.6337    0.8457 C.ar    1  UNL1       -0.0042
     20 C          -1.7242   -0.6569    0.2198 C.ar    1  UNL1        0.1630
     21 O          -2.6869    0.1375    0.7048 O.3     1  UNL1       -0.4851
     22 C          -3.9785    0.4427    0.4524 C.3     1  UNL1        0.1027
     23 C          -4.9259    0.0897    1.6171 C.3     1  UNL1       -0.0029
     24 C          -6.3059    0.0055    1.0046 C.3     1  UNL1        0.0019
     25 N          -6.6045    1.2483    0.3480 N.3     1  UNL1       -0.3051
     26 C          -6.8144    1.0671   -1.0651 C.3     1  UNL1       -0.0128
     27 C          -5.6348    2.2825    0.6403 C.3     1  UNL1        0.0019
     28 C          -4.2472    1.9129    0.1792 C.3     1  UNL1       -0.0029
     29 H          -4.3263   -2.4533   -2.9730 H       1  UNL1        0.0660
     30 H          -2.9842   -3.4889   -2.3532 H       1  UNL1        0.0660
     31 H          -2.5887   -2.0589   -3.4408 H       1  UNL1        0.0660
     32 H          -1.0335   -2.9161   -2.1349 H       1  UNL1        0.0655
     33 H           1.1839   -2.8644   -1.0170 H       1  UNL1        0.0626
     34 H           2.9483   -2.7677   -0.0595 H       1  UNL1        0.1495
     35 H           4.0847   -2.3214    2.4972 H       1  UNL1        0.0543
     36 H           5.0171   -2.7604    1.0421 H       1  UNL1        0.0543
     37 H           6.0814   -0.7643   -0.4444 H       1  UNL1        0.0671
     38 H           6.9402    2.9711    0.5382 H       1  UNL1        0.0360
     39 H           8.9535    1.7855    0.7398 H       1  UNL1        0.0236
     40 H           8.7875    1.8762   -1.0327 H       1  UNL1        0.0236
     41 H           8.3238    0.3623   -0.2258 H       1  UNL1        0.0236
     42 H           7.0847    2.5573   -2.1008 H       1  UNL1        0.0236
     43 H           5.9893    1.1293   -1.6921 H       1  UNL1        0.0236
     44 H           5.4299    2.7958   -1.3378 H       1  UNL1        0.0236
     45 H          -0.2916    0.0192    1.7056 H       1  UNL1        0.0663
     46 H          -4.3861   -0.1193   -0.4065 H       1  UNL1        0.0733
     47 H          -4.6119   -0.8524    2.0961 H       1  UNL1        0.0313
     48 H          -4.9010    0.8702    2.3922 H       1  UNL1        0.0313
     49 H          -6.2603   -0.7891    0.2280 H       1  UNL1        0.0428
     50 H          -7.0769   -0.2924    1.7423 H       1  UNL1        0.0428
     51 H          -7.9123    1.1809   -1.2628 H       1  UNL1        0.0391
     52 H          -6.5866    0.0091   -1.3864 H       1  UNL1        0.0391
     53 H          -6.2668    1.7736   -1.6968 H       1  UNL1        0.0391
     54 H          -5.9428    3.1731    0.0187 H       1  UNL1        0.0428
     55 H          -5.6961    2.6067    1.6784 H       1  UNL1        0.0428
     56 H          -4.2003    2.0850   -0.9139 H       1  UNL1        0.0313
     57 H          -3.5402    2.5673    0.7222 H       1  UNL1        0.0313
@<TRIPOS>BOND
     1     1     2    1
     2     2     3    1
     3     3     4   ar
     4     4     5   ar
     5     5     6   ar
     6     6     7    1
     7     7     8    2
     8     7     9   am
     9     9    10    1
    10    10    11    1
    11    11    12   ar
    12    12    13   ar
    13    13    14    1
    14    14    15    1
    15    14    16    1
    16    13    17   ar
    17    17    18   ar
    18     6    19   ar
    19    19    20   ar
    20    20    21    1
    21    21    22    1
    22    22    23    1
    23    23    24    1
    24    24    25    1
    25    25    26    1
    26    25    27    1
    27    27    28    1
    28    20     3   ar
    29    28    22    1
    30    18    11   ar
    31     1    29    1
    32     1    30    1
    33     1    31    1
    34     4    32    1
    35     5    33    1
    36     9    34    1
    37    10    35    1
    38    10    36    1
    39    12    37    1
    40    14    38    1
    41    15    39    1
    42    15    40    1
    43    15    41    1
    44    16    42    1
    45    16    43    1
    46    16    44    1
    47    19    45    1
    48    22    46    1
    49    23    47    1
    50    23    48    1
    51    24    49    1
    52    24    50    1
    53    26    51    1
    54    26    52    1
    55    26    53    1
    56    27    54    1
    57    27    55    1
    58    28    56    1
    59    28    57    1
