
     RDKit          3D

 43 46  0  0  0  0  0  0  0  0999 V2000
    6.3083    1.0660   -0.8076 C   0  0  0  0  0  0  0  0  0  0  0  0
    6.7744   -0.0607    0.0551 C   0  0  0  0  0  0  0  0  0  0  0  0
    5.8243   -1.5593   -0.2253 S   0  0  0  0  0  6  0  0  0  0  0  0
    6.3503   -2.5779    0.7427 O   0  0  0  0  0  0  0  0  0  0  0  0
    5.9967   -1.9947   -1.6512 O   0  0  0  0  0  0  0  0  0  0  0  0
    4.1270   -1.2503    0.1378 C   0  0  0  0  0  0  0  0  0  0  0  0
    3.6247   -1.4487    1.3974 C   0  0  0  0  0  0  0  0  0  0  0  0
    2.3050   -1.2069    1.6735 C   0  0  0  0  0  0  0  0  0  0  0  0
    1.4618   -0.7581    0.6798 C   0  0  0  0  0  0  0  0  0  0  0  0
    0.1505   -0.4369    0.6322 N   0  0  0  0  0  0  0  0  0  0  0  0
   -0.2217   -0.0402   -0.5961 C   0  0  0  0  0  0  0  0  0  0  0  0
   -1.5576    0.3791   -1.0105 C   0  0  0  0  0  0  0  0  0  0  0  0
   -1.8344    0.7690   -2.3012 C   0  0  0  0  0  0  0  0  0  0  0  0
   -3.1198    1.1648   -2.6700 C   0  0  0  0  0  0  0  0  0  0  0  0
   -4.1287    1.1827   -1.7951 N   0  0  0  0  0  0  0  0  0  0  0  0
   -3.8911    0.8010   -0.5003 C   0  0  0  0  0  0  0  0  0  0  0  0
   -5.0033    0.8282    0.4341 C   0  0  0  0  0  0  0  0  0  0  0  0
   -4.8217    0.4577    1.7369 C   0  0  0  0  0  0  0  0  0  0  0  0
   -5.8788    0.4770    2.6512 C   0  0  0  0  0  0  0  0  0  0  0  0
   -7.1252    0.8760    2.2329 C   0  0  0  0  0  0  0  0  0  0  0  0
   -7.3333    1.2542    0.9245 C   0  0  0  0  0  0  0  0  0  0  0  0
   -6.2599    1.2244    0.0367 C   0  0  0  0  0  0  0  0  0  0  0  0
   -2.6153    0.4065   -0.1278 C   0  0  0  0  0  0  0  0  0  0  0  0
    0.8929   -0.1105   -1.3618 N   0  0  0  0  0  0  0  0  0  0  0  0
    1.9249   -0.5412   -0.6170 C   0  0  0  0  0  0  0  0  0  0  0  0
    3.2599   -0.8002   -0.8389 C   0  0  0  0  0  0  0  0  0  0  0  0
    5.2236    0.9527   -0.9869 H   0  0  0  0  0  0  0  0  0  0  0  0
    6.8888    1.1286   -1.7744 H   0  0  0  0  0  0  0  0  0  0  0  0
    6.4978    2.0563   -0.3107 H   0  0  0  0  0  0  0  0  0  0  0  0
    6.6061    0.2390    1.1200 H   0  0  0  0  0  0  0  0  0  0  0  0
    7.8552   -0.2595   -0.0837 H   0  0  0  0  0  0  0  0  0  0  0  0
    4.2868   -1.8016    2.1796 H   0  0  0  0  0  0  0  0  0  0  0  0
    1.9533   -1.3761    2.6761 H   0  0  0  0  0  0  0  0  0  0  0  0
   -1.0797    0.7838   -3.0677 H   0  0  0  0  0  0  0  0  0  0  0  0
   -3.3141    1.4713   -3.7063 H   0  0  0  0  0  0  0  0  0  0  0  0
   -3.8804    0.1312    2.1528 H   0  0  0  0  0  0  0  0  0  0  0  0
   -5.7410    0.1837    3.6878 H   0  0  0  0  0  0  0  0  0  0  0  0
   -7.9387    0.8901    2.9395 H   0  0  0  0  0  0  0  0  0  0  0  0
   -8.3305    1.5591    0.6470 H   0  0  0  0  0  0  0  0  0  0  0  0
   -6.4737    1.5301   -0.9784 H   0  0  0  0  0  0  0  0  0  0  0  0
   -2.3830    0.0956    0.8903 H   0  0  0  0  0  0  0  0  0  0  0  0
    0.9781    0.1251   -2.3782 H   0  0  0  0  0  0  0  0  0  0  0  0
    3.6415   -0.6388   -1.8385 H   0  0  0  0  0  0  0  0  0  0  0  0
  1  2  1  0
  2  3  1  0
  3  4  2  0
  3  5  2  0
  3  6  1  0
  6  7  2  0
  7  8  1  0
  8  9  2  0
  9 10  1  0
 10 11  2  0
 11 12  1  0
 12 13  2  0
 13 14  1  0
 14 15  2  0
 15 16  1  0
 16 17  1  0
 17 18  2  0
 18 19  1  0
 19 20  2  0
 20 21  1  0
 21 22  2  0
 16 23  2  0
 11 24  1  0
 24 25  1  0
 25 26  2  0
 26  6  1  0
 25  9  1  0
 23 12  1  0
 22 17  1  0
  1 27  1  0
  1 28  1  0
  1 29  1  0
  2 30  1  0
  2 31  1  0
  7 32  1  0
  8 33  1  0
 13 34  1  0
 14 35  1  0
 18 36  1  0
 19 37  1  0
 20 38  1  0
 21 39  1  0
 22 40  1  0
 23 41  1  0
 24 42  1  0
 26 43  1  0
M  END
$$$$
