@<TRIPOS>MOLECULE
*****
 43 46 0 0 0
SMALL
GASTEIGER

@<TRIPOS>ATOM
      1 C           6.3083    1.0660   -0.8076 C.3     1  UNL1       -0.0453
      2 C           6.7744   -0.0607    0.0551 C.3     1  UNL1        0.0681
      3 S           5.8243   -1.5593   -0.2253 S.O2    1  UNL1       -0.0033
      4 O           6.3503   -2.5779    0.7427 O.2     1  UNL1       -0.1694
      5 O           5.9967   -1.9947   -1.6512 O.2     1  UNL1       -0.1694
      6 C           4.1270   -1.2503    0.1378 C.ar    1  UNL1        0.0902
      7 C           3.6247   -1.4487    1.3974 C.ar    1  UNL1       -0.0347
      8 C           2.3050   -1.2069    1.6735 C.ar    1  UNL1       -0.0324
      9 C           1.4618   -0.7581    0.6798 C.ar    1  UNL1        0.0896
     10 N           0.1505   -0.4369    0.6322 N.ar    1  UNL1       -0.2277
     11 C          -0.2217   -0.0402   -0.5961 C.ar    1  UNL1        0.1394
     12 C          -1.5576    0.3791   -1.0105 C.ar    1  UNL1        0.0207
     13 C          -1.8344    0.7690   -2.3012 C.ar    1  UNL1       -0.0329
     14 C          -3.1198    1.1648   -2.6700 C.ar    1  UNL1        0.0289
     15 N          -4.1287    1.1827   -1.7951 N.ar    1  UNL1       -0.2549
     16 C          -3.8911    0.8010   -0.5003 C.ar    1  UNL1        0.0716
     17 C          -5.0033    0.8282    0.4341 C.ar    1  UNL1        0.0004
     18 C          -4.8217    0.4577    1.7369 C.ar    1  UNL1       -0.0526
     19 C          -5.8788    0.4770    2.6512 C.ar    1  UNL1       -0.0611
     20 C          -7.1252    0.8760    2.2329 C.ar    1  UNL1       -0.0617
     21 C          -7.3333    1.2542    0.9245 C.ar    1  UNL1       -0.0611
     22 C          -6.2599    1.2244    0.0367 C.ar    1  UNL1       -0.0526
     23 C          -2.6153    0.4065   -0.1278 C.ar    1  UNL1       -0.0251
     24 N           0.8929   -0.1105   -1.3618 N.ar    1  UNL1       -0.3378
     25 C           1.9249   -0.5412   -0.6170 C.ar    1  UNL1        0.0683
     26 C           3.2599   -0.8002   -0.8389 C.ar    1  UNL1       -0.0114
     27 H           5.2236    0.9527   -0.9869 H       1  UNL1        0.0245
     28 H           6.8888    1.1286   -1.7744 H       1  UNL1        0.0245
     29 H           6.4978    2.0563   -0.3107 H       1  UNL1        0.0245
     30 H           6.6061    0.2390    1.1200 H       1  UNL1        0.0501
     31 H           7.8552   -0.2595   -0.0837 H       1  UNL1        0.0501
     32 H           4.2868   -1.8016    2.1796 H       1  UNL1        0.0637
     33 H           1.9533   -1.3761    2.6761 H       1  UNL1        0.0640
     34 H          -1.0797    0.7838   -3.0677 H       1  UNL1        0.0640
     35 H          -3.3141    1.4713   -3.7063 H       1  UNL1        0.0830
     36 H          -3.8804    0.1312    2.1528 H       1  UNL1        0.0624
     37 H          -5.7410    0.1837    3.6878 H       1  UNL1        0.0618
     38 H          -7.9387    0.8901    2.9395 H       1  UNL1        0.0618
     39 H          -8.3305    1.5591    0.6470 H       1  UNL1        0.0618
     40 H          -6.4737    1.5301   -0.9784 H       1  UNL1        0.0624
     41 H          -2.3830    0.0956    0.8903 H       1  UNL1        0.0646
     42 H           0.9781    0.1251   -2.3782 H       1  UNL1        0.1674
     43 H           3.6415   -0.6388   -1.8385 H       1  UNL1        0.0658
@<TRIPOS>BOND
     1     1     2    1
     2     2     3    1
     3     3     4    2
     4     3     5    2
     5     3     6    1
     6     6     7   ar
     7     7     8   ar
     8     8     9   ar
     9     9    10   ar
    10    10    11   ar
    11    11    12    1
    12    12    13   ar
    13    13    14   ar
    14    14    15   ar
    15    15    16   ar
    16    16    17    1
    17    17    18   ar
    18    18    19   ar
    19    19    20   ar
    20    20    21   ar
    21    21    22   ar
    22    16    23   ar
    23    11    24   ar
    24    24    25   ar
    25    25    26   ar
    26    26     6   ar
    27    25     9   ar
    28    23    12   ar
    29    22    17   ar
    30     1    27    1
    31     1    28    1
    32     1    29    1
    33     2    30    1
    34     2    31    1
    35     7    32    1
    36     8    33    1
    37    13    34    1
    38    14    35    1
    39    18    36    1
    40    19    37    1
    41    20    38    1
    42    21    39    1
    43    22    40    1
    44    23    41    1
    45    24    42    1
    46    26    43    1
