@<TRIPOS>MOLECULE
*****
 50 50 0 0 0
SMALL
GASTEIGER

@<TRIPOS>ATOM
      1 CD1         4.9674    0.1432    0.7249 C.3     1  LEU1       -0.0626
      2 CG          3.4467    0.2232    0.7633 C.3     1  LEU1       -0.0447
      3 CD2         3.0880    1.3923    1.6626 C.3     1  LEU1       -0.0626
      4 CB          2.9486   -1.0719    1.3119 C.3     1  LEU1       -0.0255
      5 CA          1.4462   -1.1531    1.4148 C.3     1  LEU1        0.0787
      6 C           1.1491   -2.4951    1.9734 C.2     1  LEU1        0.1404
      7 O           1.6444   -2.8721    3.0055 O.2     1  LEU1       -0.2991
      8 N           0.7689   -0.8872    0.1924 N.am    1  LEU1       -0.3046
      9 C          -0.1283    0.1995    0.0632 C.2     0  UNK0        0.2325
     10 O          -0.2786    0.9088    1.1194 O.2     0  UNK0       -0.2740
     11 C          -0.8644    0.5297   -1.1860 C.3     0  UNK0        0.1070
     12 N          -1.7172    1.6564   -0.9020 N.3     0  UNK0       -0.1778
     13 S          -3.3813    1.3471   -1.2258 S.O2    0  UNK0        0.0591
     14 O          -4.1954    2.5936   -0.9843 O.2     0  UNK0       -0.1530
     15 O          -3.6025    0.9726   -2.6634 O.2     0  UNK0       -0.1530
     16 C          -3.8918    0.0468   -0.1982 C.ar    0  UNK0        0.1054
     17 C          -4.3611    0.3176    1.0579 C.ar    0  UNK0       -0.0326
     18 C          -4.7866   -0.6931    1.9207 C.ar    0  UNK0       -0.0246
     19 C          -4.7056   -1.9756    1.4326 C.ar    0  UNK0        0.1235
     20 F          -5.0995   -3.0163    2.2083 F       0  UNK0       -0.2055
     21 C          -4.2401   -2.2792    0.1788 C.ar    0  UNK0       -0.0246
     22 C          -3.8250   -1.2403   -0.6515 C.ar    0  UNK0       -0.0326
     23 C           0.0865    1.0230   -2.2892 C.3     0  UNK0       -0.0212
     24 C           0.8264    2.2533   -1.8554 C.3     0  UNK0       -0.0607
     25 C           0.9674   -0.0765   -2.8209 C.3     0  UNK0       -0.0607
     26 HD11        5.3108   -0.9168    0.8062 H       1  LEU1        0.0232
     27 HD12        5.3922    0.6596    1.6104 H       1  LEU1        0.0232
     28 HD13        5.3921    0.6249   -0.1696 H       1  LEU1        0.0232
     29 HG          3.1272    0.4144   -0.2798 H       1  LEU1        0.0296
     30 HD21        2.8203    1.0840    2.6819 H       1  LEU1        0.0232
     31 HD22        2.2745    2.0204    1.2154 H       1  LEU1        0.0232
     32 HD23        3.9568    2.0953    1.7734 H       1  LEU1        0.0232
     33 HB1         3.3624   -1.8974    0.6967 H       1  LEU1        0.0290
     34 HB2         3.3689   -1.1939    2.3314 H       1  LEU1        0.0290
     35 HA          1.1310   -0.3857    2.1652 H       1  LEU1        0.0574
     36 H           0.4777   -3.1379    1.4408 H       1  LEU1        0.1046
     37 H           0.9455   -1.5206   -0.6160 H       1  LEU1        0.1494
     38 H          -1.3734   -0.3551   -1.5619 H       0  UNK0        0.0575
     39 H          -1.4468    2.5360   -1.3897 H       0  UNK0        0.1489
     40 H          -4.4294    1.3279    1.4538 H       0  UNK0        0.0638
     41 H          -5.1571   -0.4974    2.9080 H       0  UNK0        0.0647
     42 H          -4.1743   -3.2798   -0.2085 H       0  UNK0        0.0647
     43 H          -3.4583   -1.5142   -1.6521 H       0  UNK0        0.0638
     44 H          -0.5397    1.3555   -3.1739 H       0  UNK0        0.0316
     45 H           1.9141    2.0941   -2.0621 H       0  UNK0        0.0233
     46 H           0.5482    3.1677   -2.4167 H       0  UNK0        0.0233
     47 H           0.7573    2.4367   -0.7640 H       0  UNK0        0.0233
     48 H           1.2198    0.1812   -3.8900 H       0  UNK0        0.0233
     49 H           1.9326   -0.1468   -2.2818 H       0  UNK0        0.0233
     50 H           0.3852   -0.9986   -2.8698 H       0  UNK0        0.0233
@<TRIPOS>BOND
     1     1     2    1
     2     2     3    1
     3     2     4    1
     4     4     5    1
     5     5     6    1
     6     6     7    2
     7     5     8    1
     8     8     9   am
     9     9    10    2
    10     9    11    1
    11    11    12    1
    12    12    13    1
    13    13    14    2
    14    13    15    2
    15    13    16    1
    16    16    17   ar
    17    17    18   ar
    18    18    19   ar
    19    19    20    1
    20    19    21   ar
    21    21    22   ar
    22    11    23    1
    23    23    24    1
    24    23    25    1
    25    22    16   ar
    26     1    26    1
    27     1    27    1
    28     1    28    1
    29     2    29    1
    30     3    30    1
    31     3    31    1
    32     3    32    1
    33     4    33    1
    34     4    34    1
    35     5    35    1
    36     6    36    1
    37     8    37    1
    38    11    38    1
    39    12    39    1
    40    17    40    1
    41    18    41    1
    42    21    42    1
    43    22    43    1
    44    23    44    1
    45    24    45    1
    46    24    46    1
    47    24    47    1
    48    25    48    1
    49    25    49    1
    50    25    50    1
