
     RDKit          3D

 16 16  0  0  0  0  0  0  0  0999 V2000
   -2.6458   -0.4419    1.0236 O   0  0  0  0  0  0  0  0  0  0  0  0
   -2.0928   -0.0670   -0.2213 C   0  0  0  0  0  0  0  0  0  0  0  0
   -0.6057   -0.0009   -0.1631 C   0  0  0  0  0  0  0  0  0  0  0  0
    0.0119    1.2036    0.1884 C   0  0  0  0  0  0  0  0  0  0  0  0
    1.3977    1.2967    0.2514 C   0  0  0  0  0  0  0  0  0  0  0  0
    2.1173    0.1533   -0.0472 C   0  0  0  0  0  0  0  0  0  0  0  0
    4.0197    0.2719    0.0367 Br  0  0  0  0  0  0  0  0  0  0  0  0
    1.5169   -1.0559   -0.3996 C   0  0  0  0  0  0  0  0  0  0  0  0
    0.1421   -1.1232   -0.4551 C   0  0  0  0  0  0  0  0  0  0  0  0
   -1.9085   -0.5666    1.6549 H   0  0  0  0  0  0  0  0  0  0  0  0
   -2.4065   -0.8682   -0.9526 H   0  0  0  0  0  0  0  0  0  0  0  0
   -2.5590    0.8953   -0.4948 H   0  0  0  0  0  0  0  0  0  0  0  0
   -0.6197    2.0726    0.4131 H   0  0  0  0  0  0  0  0  0  0  0  0
    1.8928    2.2231    0.5223 H   0  0  0  0  0  0  0  0  0  0  0  0
    2.0860   -1.9445   -0.6314 H   0  0  0  0  0  0  0  0  0  0  0  0
   -0.3462   -2.0482   -0.7254 H   0  0  0  0  0  0  0  0  0  0  0  0
  1  2  1  0
  2  3  1  0
  3  4  2  0
  4  5  1  0
  5  6  2  0
  6  7  1  0
  6  8  1  0
  8  9  2  0
  9  3  1  0
  1 10  1  0
  2 11  1  0
  2 12  1  0
  4 13  1  0
  5 14  1  0
  8 15  1  0
  9 16  1  0
M  END
$$$$
