@<TRIPOS>MOLECULE
*****
 16 16 0 0 0
SMALL
GASTEIGER

@<TRIPOS>ATOM
      1 O          -2.6458   -0.4419    1.0236 O.3     1  UNL1       -0.3904
      2 C          -2.0928   -0.0670   -0.2213 C.3     1  UNL1        0.0692
      3 C          -0.6057   -0.0009   -0.1631 C.ar    1  UNL1       -0.0221
      4 C           0.0119    1.2036    0.1884 C.ar    1  UNL1       -0.0554
      5 C           1.3977    1.2967    0.2514 C.ar    1  UNL1       -0.0474
      6 C           2.1173    0.1533   -0.0472 C.ar    1  UNL1        0.0179
      7 BR          4.0197    0.2719    0.0367 Br      1  UNL1       -0.0503
      8 C           1.5169   -1.0559   -0.3996 C.ar    1  UNL1       -0.0474
      9 C           0.1421   -1.1232   -0.4551 C.ar    1  UNL1       -0.0554
     10 H          -1.9085   -0.5666    1.6549 H       1  UNL1        0.2098
     11 H          -2.4065   -0.8682   -0.9526 H       1  UNL1        0.0607
     12 H          -2.5590    0.8953   -0.4948 H       1  UNL1        0.0607
     13 H          -0.6197    2.0726    0.4131 H       1  UNL1        0.0621
     14 H           1.8928    2.2231    0.5223 H       1  UNL1        0.0629
     15 H           2.0860   -1.9445   -0.6314 H       1  UNL1        0.0629
     16 H          -0.3462   -2.0482   -0.7254 H       1  UNL1        0.0621
@<TRIPOS>BOND
     1     1     2    1
     2     2     3    1
     3     3     4   ar
     4     4     5   ar
     5     5     6   ar
     6     6     7    1
     7     6     8   ar
     8     8     9   ar
     9     9     3   ar
    10     1    10    1
    11     2    11    1
    12     2    12    1
    13     4    13    1
    14     5    14    1
    15     8    15    1
    16     9    16    1
