@<TRIPOS>MOLECULE
*****
 65 68 0 0 0
SMALL
GASTEIGER

@<TRIPOS>ATOM
      1 C           6.6236    2.5627   -1.0490 C.3     1  UNL1       -0.0131
      2 N           6.3724    2.1985    0.3097 N.3     1  UNL1       -0.3083
      3 C           7.1614    1.0819    0.7661 C.3     1  UNL1       -0.0131
      4 C           4.9712    2.0544    0.6021 C.3     1  UNL1       -0.0016
      5 C           4.3562    0.8532   -0.1064 C.3     1  UNL1       -0.0382
      6 C           2.8997    0.8329    0.2904 C.3     1  UNL1       -0.0292
      7 C           2.1235   -0.2851   -0.2847 C.3     1  UNL1        0.0484
      8 N           0.7096   -0.2267    0.0979 N.am    1  UNL1       -0.3070
      9 C          -0.2737   -0.1574   -0.8942 C.2     1  UNL1        0.2336
     10 O           0.0660   -0.1449   -2.1082 O.2     1  UNL1       -0.2738
     11 C          -1.7524   -0.0951   -0.6296 C.3     1  UNL1        0.0965
     12 N          -1.9006   -0.0801    0.8011 N.3     1  UNL1       -0.3173
     13 C          -2.2358    1.2122   -1.2076 C.3     1  UNL1       -0.0104
     14 C          -3.6858    1.4071   -0.9145 C.3     1  UNL1        0.0156
     15 N          -4.2804    0.1205   -0.5965 N.pl3   1  UNL1       -0.3144
     16 C          -5.1622   -0.0856    0.5000 C.ar    1  UNL1        0.1337
     17 N          -4.8995   -0.9215    1.5209 N.ar    1  UNL1       -0.2200
     18 C          -5.7668   -1.0783    2.5390 C.ar    1  UNL1        0.1204
     19 N          -6.9351   -0.4156    2.5943 N.ar    1  UNL1       -0.2178
     20 C          -7.2538    0.4353    1.6007 C.ar    1  UNL1        0.1432
     21 N          -8.3006    1.2298    1.3482 N.ar    1  UNL1       -0.3457
     22 C          -8.1549    1.9059    0.1998 C.ar    1  UNL1        0.0042
     23 C          -6.9198    1.5164   -0.3269 C.ar    1  UNL1       -0.0318
     24 C          -6.3577    0.5999    0.5456 C.ar    1  UNL1        0.0585
     25 C          -3.9101   -0.9743   -1.4942 C.3     1  UNL1        0.0156
     26 C          -2.4473   -1.2781   -1.2636 C.3     1  UNL1       -0.0104
     27 C           2.5874   -1.6436    0.0671 C.ar    1  UNL1       -0.0271
     28 C           3.4456   -1.8923    1.1072 C.ar    1  UNL1       -0.0554
     29 C           3.8737   -3.1944    1.3876 C.ar    1  UNL1       -0.0431
     30 C           3.4151   -4.2231    0.5979 C.ar    1  UNL1        0.0410
     31 CL          3.9154   -5.8868    0.8952 Cl      1  UNL1       -0.0835
     32 C           2.5507   -4.0057   -0.4546 C.ar    1  UNL1       -0.0431
     33 C           2.1580   -2.7097   -0.6918 C.ar    1  UNL1       -0.0554
     34 H           6.0957    1.9252   -1.7795 H       1  UNL1        0.0391
     35 H           6.2612    3.5990   -1.2039 H       1  UNL1        0.0391
     36 H           7.6986    2.5154   -1.2683 H       1  UNL1        0.0391
     37 H           6.7689    0.8076    1.7830 H       1  UNL1        0.0391
     38 H           8.2176    1.3840    0.9322 H       1  UNL1        0.0391
     39 H           7.0678    0.1815    0.1277 H       1  UNL1        0.0391
     40 H           4.8198    1.8892    1.6765 H       1  UNL1        0.0426
     41 H           4.4522    2.9493    0.2193 H       1  UNL1        0.0426
     42 H           4.9005   -0.0758    0.0301 H       1  UNL1        0.0278
     43 H           4.3324    1.0658   -1.2282 H       1  UNL1        0.0278
     44 H           2.8794    0.8018    1.4104 H       1  UNL1        0.0287
     45 H           2.4746    1.8039   -0.0806 H       1  UNL1        0.0287
     46 H           2.1898   -0.2262   -1.4101 H       1  UNL1        0.0548
     47 H           0.4120   -0.2344    1.0939 H       1  UNL1        0.1493
     48 H          -1.5731   -0.9880    1.2013 H       1  UNL1        0.1192
     49 H          -1.4701    0.7503    1.2197 H       1  UNL1        0.1192
     50 H          -2.0167    1.1862   -2.3035 H       1  UNL1        0.0303
     51 H          -1.6047    2.0163   -0.7514 H       1  UNL1        0.0303
     52 H          -4.1639    1.7961   -1.8408 H       1  UNL1        0.0465
     53 H          -3.8192    2.1095   -0.0658 H       1  UNL1        0.0465
     54 H          -5.5537   -1.7547    3.3647 H       1  UNL1        0.1048
     55 H          -9.1420    1.3260    1.9582 H       1  UNL1        0.1668
     56 H          -8.8329    2.6185   -0.2614 H       1  UNL1        0.0807
     57 H          -6.4778    1.8541   -1.2343 H       1  UNL1        0.0640
     58 H          -4.5438   -1.8791   -1.2957 H       1  UNL1        0.0465
     59 H          -4.0975   -0.6198   -2.5285 H       1  UNL1        0.0465
     60 H          -2.3444   -2.1816   -0.6444 H       1  UNL1        0.0303
     61 H          -1.9623   -1.4809   -2.2534 H       1  UNL1        0.0303
     62 H           3.8167   -1.1100    1.7667 H       1  UNL1        0.0621
     63 H           4.5548   -3.3973    2.2097 H       1  UNL1        0.0632
     64 H           2.1899   -4.8238   -1.0746 H       1  UNL1        0.0632
     65 H           1.4770   -2.5205   -1.5176 H       1  UNL1        0.0621
@<TRIPOS>BOND
     1     1     2    1
     2     2     3    1
     3     2     4    1
     4     4     5    1
     5     5     6    1
     6     6     7    1
     7     7     8    1
     8     8     9   am
     9     9    10    2
    10     9    11    1
    11    11    12    1
    12    11    13    1
    13    13    14    1
    14    14    15    1
    15    15    16    1
    16    16    17   ar
    17    17    18   ar
    18    18    19   ar
    19    19    20   ar
    20    20    21   ar
    21    21    22   ar
    22    22    23   ar
    23    23    24   ar
    24    15    25    1
    25    25    26    1
    26     7    27    1
    27    27    28   ar
    28    28    29   ar
    29    29    30   ar
    30    30    31    1
    31    30    32   ar
    32    32    33   ar
    33    26    11    1
    34    33    27   ar
    35    24    16   ar
    36    24    20   ar
    37     1    34    1
    38     1    35    1
    39     1    36    1
    40     3    37    1
    41     3    38    1
    42     3    39    1
    43     4    40    1
    44     4    41    1
    45     5    42    1
    46     5    43    1
    47     6    44    1
    48     6    45    1
    49     7    46    1
    50     8    47    1
    51    12    48    1
    52    12    49    1
    53    13    50    1
    54    13    51    1
    55    14    52    1
    56    14    53    1
    57    18    54    1
    58    21    55    1
    59    22    56    1
    60    23    57    1
    61    25    58    1
    62    25    59    1
    63    26    60    1
    64    26    61    1
    65    28    62    1
    66    29    63    1
    67    32    64    1
    68    33    65    1
