
     RDKit          3D

 56 60  0  0  0  0  0  0  0  0999 V2000
   -6.2043   -1.8951    0.2464 C   0  0  0  0  0  0  0  0  0  0  0  0
   -4.9730   -2.4986    0.1157 O   0  0  0  0  0  0  0  0  0  0  0  0
   -4.0792   -1.8479   -0.7098 C   0  0  0  0  0  0  0  0  0  0  0  0
   -3.8105   -0.4802   -0.1923 C   0  0  0  0  0  0  0  0  0  0  0  0
   -2.8604    0.2576   -1.0073 N   0  0  0  0  0  0  0  0  0  0  0  0
   -3.1916    1.0432   -2.0402 C   0  0  0  0  0  0  0  0  0  0  0  0
   -2.0688    1.5984   -2.6050 C   0  0  0  0  0  0  0  0  0  0  0  0
   -1.9462    2.5248   -3.7594 C   0  0  0  0  0  0  0  0  0  0  0  0
   -0.9859    1.1158   -1.8649 C   0  0  0  0  0  0  0  0  0  0  0  0
   -1.4949    0.3058   -0.9004 C   0  0  0  0  0  0  0  0  0  0  0  0
   -0.3933   -0.1902   -0.0829 C   0  0  0  0  0  0  0  0  0  0  0  0
   -0.5444    0.1049    1.3518 C   0  0  0  0  0  0  0  0  0  0  0  0
   -1.0589   -0.8670    2.1850 C   0  0  0  0  0  0  0  0  0  0  0  0
   -1.2465   -0.7120    3.5332 C   0  0  0  0  0  0  0  0  0  0  0  0
   -0.8960    0.5003    4.0940 C   0  0  0  0  0  0  0  0  0  0  0  0
   -1.1265    0.7219    5.8141 Cl  0  0  0  0  0  0  0  0  0  0  0  0
   -0.3711    1.5125    3.2862 C   0  0  0  0  0  0  0  0  0  0  0  0
   -0.2066    1.2947    1.9362 C   0  0  0  0  0  0  0  0  0  0  0  0
    0.8111    0.2625   -0.6716 N   0  0  0  0  0  0  0  0  0  0  0  0
    2.1729   -0.0711   -0.2683 C   0  0  0  0  0  0  0  0  0  0  0  0
    2.3875   -0.9639    0.7583 C   0  0  0  0  0  0  0  0  0  0  0  0
    3.6971   -1.2559    1.1251 C   0  0  0  0  0  0  0  0  0  0  0  0
    3.9579   -2.2130    2.2268 C   0  0  0  0  0  0  0  0  0  0  0  0
    4.7798   -0.6847    0.4985 C   0  0  0  0  0  0  0  0  0  0  0  0
    6.1148   -0.7653    0.6239 N   0  0  0  0  0  0  0  0  0  0  0  0
    6.6877    0.0256   -0.2668 N   0  0  0  0  0  0  0  0  0  0  0  0
    5.7253    0.6254   -0.9771 C   0  0  0  0  0  0  0  0  0  0  0  0
    5.9172    1.6062   -2.0946 C   0  0  0  0  0  0  0  0  0  0  0  0
    4.5415    0.1765   -0.4929 N   0  0  0  0  0  0  0  0  0  0  0  0
    3.2810    0.4757   -0.8665 C   0  0  0  0  0  0  0  0  0  0  0  0
    0.4696    1.1125   -1.7436 C   0  0  0  0  0  0  0  0  0  0  0  0
    1.2289    1.7946   -2.5206 O   0  0  0  0  0  0  0  0  0  0  0  0
   -6.8043   -2.5704    0.9325 H   0  0  0  0  0  0  0  0  0  0  0  0
   -6.7577   -1.7851   -0.7074 H   0  0  0  0  0  0  0  0  0  0  0  0
   -6.1537   -0.9384    0.8095 H   0  0  0  0  0  0  0  0  0  0  0  0
   -4.4327   -1.7946   -1.7612 H   0  0  0  0  0  0  0  0  0  0  0  0
   -3.1432   -2.4468   -0.6961 H   0  0  0  0  0  0  0  0  0  0  0  0
   -3.5780   -0.4995    0.8729 H   0  0  0  0  0  0  0  0  0  0  0  0
   -4.8056    0.0683   -0.2451 H   0  0  0  0  0  0  0  0  0  0  0  0
   -4.1884    1.2437   -2.4151 H   0  0  0  0  0  0  0  0  0  0  0  0
   -2.7891    3.2641   -3.7279 H   0  0  0  0  0  0  0  0  0  0  0  0
   -0.9848    3.0907   -3.6888 H   0  0  0  0  0  0  0  0  0  0  0  0
   -1.9935    1.9643   -4.7132 H   0  0  0  0  0  0  0  0  0  0  0  0
   -0.3959   -1.3169   -0.2147 H   0  0  0  0  0  0  0  0  0  0  0  0
   -1.3459   -1.8390    1.7681 H   0  0  0  0  0  0  0  0  0  0  0  0
   -1.6590   -1.5214    4.1390 H   0  0  0  0  0  0  0  0  0  0  0  0
   -0.1190    2.4340    3.7912 H   0  0  0  0  0  0  0  0  0  0  0  0
    0.1983    2.0761    1.3148 H   0  0  0  0  0  0  0  0  0  0  0  0
    1.5520   -1.4274    1.2594 H   0  0  0  0  0  0  0  0  0  0  0  0
    4.8631   -2.7932    1.9433 H   0  0  0  0  0  0  0  0  0  0  0  0
    4.2154   -1.6287    3.1247 H   0  0  0  0  0  0  0  0  0  0  0  0
    3.0669   -2.8581    2.3547 H   0  0  0  0  0  0  0  0  0  0  0  0
    6.8747    1.4550   -2.6101 H   0  0  0  0  0  0  0  0  0  0  0  0
    5.7836    2.6498   -1.7561 H   0  0  0  0  0  0  0  0  0  0  0  0
    5.1058    1.3772   -2.8287 H   0  0  0  0  0  0  0  0  0  0  0  0
    3.1765    1.1826   -1.6767 H   0  0  0  0  0  0  0  0  0  0  0  0
  1  2  1  0
  2  3  1  0
  3  4  1  0
  4  5  1  0
  5  6  1  0
  6  7  2  0
  7  8  1  0
  7  9  1  0
  9 10  2  0
 10 11  1  0
 11 12  1  0
 12 13  2  0
 13 14  1  0
 14 15  2  0
 15 16  1  0
 15 17  1  0
 17 18  2  0
 11 19  1  0
 19 20  1  0
 20 21  1  0
 21 22  2  0
 22 23  1  0
 22 24  1  0
 24 25  2  0
 25 26  1  0
 26 27  2  0
 27 28  1  0
 27 29  1  0
 29 30  1  0
 19 31  1  0
 31 32  2  0
 10  5  1  0
 18 12  1  0
 30 20  2  0
 31  9  1  0
 29 24  1  0
  1 33  1  0
  1 34  1  0
  1 35  1  0
  3 36  1  0
  3 37  1  0
  4 38  1  0
  4 39  1  0
  6 40  1  0
  8 41  1  0
  8 42  1  0
  8 43  1  0
 11 44  1  0
 13 45  1  0
 14 46  1  0
 17 47  1  0
 18 48  1  0
 21 49  1  0
 23 50  1  0
 23 51  1  0
 23 52  1  0
 28 53  1  0
 28 54  1  0
 28 55  1  0
 30 56  1  0
M  END
$$$$
