@<TRIPOS>MOLECULE
*****
 56 60 0 0 0
SMALL
GASTEIGER

@<TRIPOS>ATOM
      1 C          -6.2043   -1.8951    0.2464 C.3     1  UNL1        0.0365
      2 O          -4.9730   -2.4986    0.1157 O.3     1  UNL1       -0.3812
      3 C          -4.0792   -1.8479   -0.7098 C.3     1  UNL1        0.0652
      4 C          -3.8105   -0.4802   -0.1923 C.3     1  UNL1        0.0465
      5 N          -2.8604    0.2576   -1.0073 N.ar    1  UNL1       -0.3456
      6 C          -3.1916    1.0432   -2.0402 C.ar    1  UNL1        0.0086
      7 C          -2.0688    1.5984   -2.6050 C.ar    1  UNL1       -0.0205
      8 C          -1.9462    2.5248   -3.7594 C.3     1  UNL1       -0.0376
      9 C          -0.9859    1.1158   -1.8649 C.ar    1  UNL1        0.0630
     10 C          -1.4949    0.3058   -0.9004 C.ar    1  UNL1        0.0568
     11 C          -0.3933   -0.1902   -0.0829 C.3     1  UNL1        0.0972
     12 C          -0.5444    0.1049    1.3518 C.ar    1  UNL1       -0.0208
     13 C          -1.0589   -0.8670    2.1850 C.ar    1  UNL1       -0.0550
     14 C          -1.2465   -0.7120    3.5332 C.ar    1  UNL1       -0.0431
     15 C          -0.8960    0.5003    4.0940 C.ar    1  UNL1        0.0410
     16 CL         -1.1265    0.7219    5.8141 Cl      1  UNL1       -0.0835
     17 C          -0.3711    1.5125    3.2862 C.ar    1  UNL1       -0.0431
     18 C          -0.2066    1.2947    1.9362 C.ar    1  UNL1       -0.0550
     19 N           0.8111    0.2625   -0.6716 N.am    1  UNL1       -0.2530
     20 C           2.1729   -0.0711   -0.2683 C.ar    1  UNL1        0.0545
     21 C           2.3875   -0.9639    0.7583 C.ar    1  UNL1       -0.0324
     22 C           3.6971   -1.2559    1.1251 C.ar    1  UNL1       -0.0041
     23 C           3.9579   -2.2130    2.2268 C.3     1  UNL1       -0.0361
     24 C           4.7798   -0.6847    0.4985 C.ar    1  UNL1        0.1641
     25 N           6.1148   -0.7653    0.6239 N.ar    1  UNL1       -0.1292
     26 N           6.6877    0.0256   -0.2668 N.ar    1  UNL1       -0.1340
     27 C           5.7253    0.6254   -0.9771 C.ar    1  UNL1        0.1347
     28 C           5.9172    1.6062   -2.0946 C.3     1  UNL1       -0.0041
     29 N           4.5415    0.1765   -0.4929 N.ar    1  UNL1       -0.2846
     30 C           3.2810    0.4757   -0.8665 C.ar    1  UNL1        0.0344
     31 C           0.4696    1.1125   -1.7436 C.2     1  UNL1        0.2538
     32 O           1.2289    1.7946   -2.5206 O.2     1  UNL1       -0.2695
     33 H          -6.8043   -2.5704    0.9325 H       1  UNL1        0.0523
     34 H          -6.7577   -1.7851   -0.7074 H       1  UNL1        0.0523
     35 H          -6.1537   -0.9384    0.8095 H       1  UNL1        0.0523
     36 H          -4.4327   -1.7946   -1.7612 H       1  UNL1        0.0577
     37 H          -3.1432   -2.4468   -0.6961 H       1  UNL1        0.0577
     38 H          -3.5780   -0.4995    0.8729 H       1  UNL1        0.0514
     39 H          -4.8056    0.0683   -0.2451 H       1  UNL1        0.0514
     40 H          -4.1884    1.2437   -2.4151 H       1  UNL1        0.0812
     41 H          -2.7891    3.2641   -3.7279 H       1  UNL1        0.0278
     42 H          -0.9848    3.0907   -3.6888 H       1  UNL1        0.0278
     43 H          -1.9935    1.9643   -4.7132 H       1  UNL1        0.0278
     44 H          -0.3959   -1.3169   -0.2147 H       1  UNL1        0.0619
     45 H          -1.3459   -1.8390    1.7681 H       1  UNL1        0.0621
     46 H          -1.6590   -1.5214    4.1390 H       1  UNL1        0.0632
     47 H          -0.1190    2.4340    3.7912 H       1  UNL1        0.0632
     48 H           0.1983    2.0761    1.3148 H       1  UNL1        0.0621
     49 H           1.5520   -1.4274    1.2594 H       1  UNL1        0.0640
     50 H           4.8631   -2.7932    1.9433 H       1  UNL1        0.0279
     51 H           4.2154   -1.6287    3.1247 H       1  UNL1        0.0279
     52 H           3.0669   -2.8581    2.3547 H       1  UNL1        0.0279
     53 H           6.8747    1.4550   -2.6101 H       1  UNL1        0.0308
     54 H           5.7836    2.6498   -1.7561 H       1  UNL1        0.0308
     55 H           5.1058    1.3772   -2.8287 H       1  UNL1        0.0308
     56 H           3.1765    1.1826   -1.6767 H       1  UNL1        0.0833
@<TRIPOS>BOND
     1     1     2    1
     2     2     3    1
     3     3     4    1
     4     4     5    1
     5     5     6   ar
     6     6     7   ar
     7     7     8    1
     8     7     9   ar
     9     9    10   ar
    10    10    11    1
    11    11    12    1
    12    12    13   ar
    13    13    14   ar
    14    14    15   ar
    15    15    16    1
    16    15    17   ar
    17    17    18   ar
    18    11    19    1
    19    19    20    1
    20    20    21   ar
    21    21    22   ar
    22    22    23    1
    23    22    24   ar
    24    24    25   ar
    25    25    26   ar
    26    26    27   ar
    27    27    28    1
    28    27    29   ar
    29    29    30   ar
    30    19    31   am
    31    31    32    2
    32    10     5   ar
    33    18    12   ar
    34    30    20   ar
    35    31     9    1
    36    29    24   ar
    37     1    33    1
    38     1    34    1
    39     1    35    1
    40     3    36    1
    41     3    37    1
    42     4    38    1
    43     4    39    1
    44     6    40    1
    45     8    41    1
    46     8    42    1
    47     8    43    1
    48    11    44    1
    49    13    45    1
    50    14    46    1
    51    17    47    1
    52    18    48    1
    53    21    49    1
    54    23    50    1
    55    23    51    1
    56    23    52    1
    57    28    53    1
    58    28    54    1
    59    28    55    1
    60    30    56    1
