@<TRIPOS>MOLECULE
*****
 45 45 0 0 0
SMALL
GASTEIGER

@<TRIPOS>ATOM
      1 C          -1.4861    1.2279   -1.7690 C.3     1  UNL1        0.0405
      2 N          -0.6264    2.1834   -2.5173 N.3     1  UNL1       -0.3247
      3 C          -1.3696    1.5331   -0.3184 C.3     1  UNL1       -0.0258
      4 C          -2.1786    0.6681    0.5756 C.3     1  UNL1       -0.0046
      5 S          -3.9323    0.8057    0.1163 S.3     1  UNL1       -0.1579
      6 C          -4.8842   -0.2575    1.2208 C.3     1  UNL1       -0.0004
      7 C          -4.5726   -1.7122    1.0139 C.3     1  UNL1       -0.0536
      8 C          -6.3615    0.0114    0.9359 C.3     1  UNL1       -0.0536
      9 C          -1.0130   -0.1446   -2.1706 C.3     1  UNL1        0.1473
     10 O          -1.7766   -1.1003   -1.5609 O.3     1  UNL1       -0.3810
     11 C           0.4350   -0.3397   -1.8279 C.2     1  UNL1        0.2592
     12 O           0.2538   -1.3229   -1.0605 O.2     1  UNL1       -0.2714
     13 N           1.6604    0.2798   -2.1695 N.am    1  UNL1       -0.2320
     14 N           2.8052   -0.2453   -1.5990 N.am    1  UNL1       -0.2303
     15 C           3.2217    0.2940   -0.3508 C.2     1  UNL1        0.2602
     16 O           2.5377    1.2113    0.1691 O.2     1  UNL1       -0.2687
     17 C           4.4037   -0.1566    0.3678 C.ar    1  UNL1        0.0395
     18 C           4.6953    0.4479    1.5689 C.ar    1  UNL1       -0.0312
     19 C           5.8158    0.0525    2.2953 C.ar    1  UNL1        0.0417
     20 CL          6.1653    0.8415    3.8254 Cl      1  UNL1       -0.0835
     21 C           6.6682   -0.9415    1.8567 C.ar    1  UNL1       -0.0433
     22 C           6.3557   -1.5326    0.6507 C.ar    1  UNL1       -0.0597
     23 C           5.2415   -1.1515   -0.0891 C.ar    1  UNL1       -0.0495
     24 H          -2.5496    1.3626   -2.0895 H       1  UNL1        0.0489
     25 H          -0.0272    2.6582   -1.8113 H       1  UNL1        0.1186
     26 H          -1.2697    2.9231   -2.8713 H       1  UNL1        0.1186
     27 H          -0.3003    1.4149   -0.0019 H       1  UNL1        0.0289
     28 H          -1.5915    2.6193   -0.1151 H       1  UNL1        0.0289
     29 H          -2.0918    0.9958    1.6581 H       1  UNL1        0.0377
     30 H          -1.8429   -0.3695    0.5282 H       1  UNL1        0.0377
     31 H          -4.6635    0.0340    2.2680 H       1  UNL1        0.0407
     32 H          -3.6505   -1.8502    0.4140 H       1  UNL1        0.0240
     33 H          -4.3914   -2.2452    1.9743 H       1  UNL1        0.0240
     34 H          -5.4112   -2.2191    0.5211 H       1  UNL1        0.0240
     35 H          -6.5434   -0.0983   -0.1589 H       1  UNL1        0.0240
     36 H          -6.6382    1.0177    1.3077 H       1  UNL1        0.0240
     37 H          -6.9375   -0.7537    1.4914 H       1  UNL1        0.0240
     38 H          -1.1485   -0.2492   -3.2720 H       1  UNL1        0.0706
     39 H          -1.4601   -2.0170   -1.5872 H       1  UNL1        0.2105
     40 H           1.4269    1.0548   -2.8273 H       1  UNL1        0.1729
     41 H           3.3714   -1.0120   -2.0392 H       1  UNL1        0.1731
     42 H           4.0843    1.2372    1.9937 H       1  UNL1        0.0640
     43 H           7.5221   -1.2052    2.4643 H       1  UNL1        0.0632
     44 H           7.0258   -2.3118    0.3094 H       1  UNL1        0.0618
     45 H           5.0288   -1.6382   -1.0309 H       1  UNL1        0.0625
@<TRIPOS>BOND
     1     1     2    1
     2     1     3    1
     3     3     4    1
     4     4     5    1
     5     5     6    1
     6     6     7    1
     7     6     8    1
     8     1     9    1
     9     9    10    1
    10     9    11    1
    11    11    12    2
    12    11    13   am
    13    13    14    1
    14    14    15   am
    15    15    16    2
    16    15    17    1
    17    17    18   ar
    18    18    19   ar
    19    19    20    1
    20    19    21   ar
    21    21    22   ar
    22    22    23   ar
    23    23    17   ar
    24     1    24    1
    25     2    25    1
    26     2    26    1
    27     3    27    1
    28     3    28    1
    29     4    29    1
    30     4    30    1
    31     6    31    1
    32     7    32    1
    33     7    33    1
    34     7    34    1
    35     8    35    1
    36     8    36    1
    37     8    37    1
    38     9    38    1
    39    10    39    1
    40    13    40    1
    41    14    41    1
    42    18    42    1
    43    21    43    1
    44    22    44    1
    45    23    45    1
