@<TRIPOS>MOLECULE
*****
 58 61 0 0 0
SMALL
GASTEIGER

@<TRIPOS>ATOM
      1 C           5.6679   -0.7942    2.2119 C.3     1  UNL1       -0.0253
      2 C           6.1789    0.0285    1.0478 C.3     1  UNL1        0.1068
      3 C           7.0583   -0.8740    0.2172 C.3     1  UNL1       -0.0253
      4 C           7.0199    1.1377    1.5990 C.3     1  UNL1       -0.0253
      5 O           5.0603    0.5044    0.3321 O.3     1  UNL1       -0.4447
      6 C           4.1460   -0.3508   -0.2385 C.2     1  UNL1        0.4010
      7 O           4.3153   -1.5755   -0.1171 O.2     1  UNL1       -0.2265
      8 N           3.0075    0.0911   -0.9664 N.am    1  UNL1       -0.2767
      9 C           2.0674   -0.8440   -1.5526 C.3     1  UNL1        0.0435
     10 C           1.8230   -0.5750   -3.0065 C.3     1  UNL1       -0.0170
     11 C           0.8809    0.6250   -2.9576 C.3     1  UNL1        0.0196
     12 N          -0.0015    0.2367   -1.8742 N.am    1  UNL1       -0.2656
     13 C          -1.3556    0.6370   -1.7493 C.2     1  UNL1        0.4032
     14 O          -1.9185    1.3854   -2.5958 O.2     1  UNL1       -0.2262
     15 O          -2.0999    0.1998   -0.6662 O.3     1  UNL1       -0.4464
     16 C          -3.4387    0.5812   -0.5206 C.3     1  UNL1        0.1103
     17 C          -4.3812   -0.6020   -0.5002 C.3     1  UNL1       -0.0030
     18 C          -4.0266   -1.4828    0.6552 C.3     1  UNL1       -0.0440
     19 C          -4.2258   -0.6794    1.9273 C.3     1  UNL1       -0.0401
     20 C          -5.6305   -0.1573    2.0354 C.3     1  UNL1       -0.0473
     21 C          -5.9389    0.7287    0.8565 C.3     1  UNL1       -0.0401
     22 C          -5.7928   -0.0786   -0.4157 C.3     1  UNL1       -0.0440
     23 C          -4.9785    1.9004    0.8385 C.3     1  UNL1       -0.0440
     24 C          -3.5621    1.3704    0.7599 C.3     1  UNL1       -0.0030
     25 C          -3.2566    0.4677    1.9368 C.3     1  UNL1       -0.0440
     26 C           0.6992   -0.6170   -0.9408 C.3     1  UNL1        0.0364
     27 H           4.6820   -0.4165    2.5508 H       1  UNL1        0.0268
     28 H           6.4070   -0.7825    3.0648 H       1  UNL1        0.0268
     29 H           5.5403   -1.8350    1.8567 H       1  UNL1        0.0268
     30 H           7.3458   -0.4360   -0.7468 H       1  UNL1        0.0268
     31 H           8.0039   -1.0153    0.7956 H       1  UNL1        0.0268
     32 H           6.6258   -1.9048    0.1185 H       1  UNL1        0.0268
     33 H           6.6339    1.4875    2.5614 H       1  UNL1        0.0268
     34 H           7.1618    1.9766    0.8799 H       1  UNL1        0.0268
     35 H           8.0393    0.6998    1.8027 H       1  UNL1        0.0268
     36 H           2.8780    1.1224   -1.0603 H       1  UNL1        0.1523
     37 H           2.3964   -1.8737   -1.3322 H       1  UNL1        0.0515
     38 H           2.7283   -0.3759   -3.5929 H       1  UNL1        0.0299
     39 H           1.2669   -1.4493   -3.4214 H       1  UNL1        0.0299
     40 H           0.3678    0.6780   -3.9317 H       1  UNL1        0.0466
     41 H           1.4925    1.5066   -2.7261 H       1  UNL1        0.0466
     42 H          -3.7813    1.2399   -1.3493 H       1  UNL1        0.0740
     43 H          -4.2133   -1.1631   -1.4390 H       1  UNL1        0.0337
     44 H          -2.9365   -1.7161    0.5768 H       1  UNL1        0.0272
     45 H          -4.5906   -2.4221    0.6631 H       1  UNL1        0.0272
     46 H          -4.0512   -1.3727    2.7748 H       1  UNL1        0.0301
     47 H          -6.3673   -0.9904    2.0154 H       1  UNL1        0.0271
     48 H          -5.6884    0.4457    2.9633 H       1  UNL1        0.0271
     49 H          -6.9766    1.1066    0.8932 H       1  UNL1        0.0301
     50 H          -5.9512    0.5738   -1.2948 H       1  UNL1        0.0272
     51 H          -6.5400   -0.8906   -0.3746 H       1  UNL1        0.0272
     52 H          -5.1594    2.4573   -0.1007 H       1  UNL1        0.0272
     53 H          -5.1282    2.5095    1.7477 H       1  UNL1        0.0272
     54 H          -2.8512    2.2188    0.6912 H       1  UNL1        0.0337
     55 H          -2.2444    0.0707    1.8074 H       1  UNL1        0.0272
     56 H          -3.3624    1.0563    2.8704 H       1  UNL1        0.0272
     57 H           0.7681   -0.1602    0.0668 H       1  UNL1        0.0484
     58 H           0.1865   -1.6085   -0.9219 H       1  UNL1        0.0484
@<TRIPOS>BOND
     1     1     2    1
     2     2     3    1
     3     2     4    1
     4     2     5    1
     5     5     6    1
     6     6     7    2
     7     6     8   am
     8     8     9    1
     9     9    10    1
    10    10    11    1
    11    11    12    1
    12    12    13   am
    13    13    14    2
    14    13    15    1
    15    15    16    1
    16    16    17    1
    17    17    18    1
    18    18    19    1
    19    19    20    1
    20    20    21    1
    21    21    22    1
    22    21    23    1
    23    23    24    1
    24    24    25    1
    25    12    26    1
    26    26     9    1
    27    24    16    1
    28    22    17    1
    29    25    19    1
    30     1    27    1
    31     1    28    1
    32     1    29    1
    33     3    30    1
    34     3    31    1
    35     3    32    1
    36     4    33    1
    37     4    34    1
    38     4    35    1
    39     8    36    1
    40     9    37    1
    41    10    38    1
    42    10    39    1
    43    11    40    1
    44    11    41    1
    45    16    42    1
    46    17    43    1
    47    18    44    1
    48    18    45    1
    49    19    46    1
    50    20    47    1
    51    20    48    1
    52    21    49    1
    53    22    50    1
    54    22    51    1
    55    23    52    1
    56    23    53    1
    57    24    54    1
    58    25    55    1
    59    25    56    1
    60    26    57    1
    61    26    58    1
