@<TRIPOS>MOLECULE
*****
 66 69 0 0 0
SMALL
GASTEIGER

@<TRIPOS>ATOM
      1 C          -0.1089    0.5888   -2.8670 C.3     1  UNL1       -0.0421
      2 C           0.4974   -0.4859   -2.0027 C.3     1  UNL1        0.0515
      3 C           1.7911   -0.0463   -1.4061 C.ar    1  UNL1       -0.0271
      4 C           2.3837   -0.7400   -0.3722 C.ar    1  UNL1       -0.0562
      5 C           3.5841   -0.3236    0.1734 C.ar    1  UNL1       -0.0537
      6 C           4.2412    0.7981   -0.2876 C.ar    1  UNL1       -0.0165
      7 C           5.5174    1.2236    0.3065 C.ar    1  UNL1       -0.0013
      8 C           5.8741    2.5587    0.3623 C.ar    1  UNL1       -0.0475
      9 C           7.0851    2.8932    0.9318 C.ar    1  UNL1        0.0037
     10 C           7.9296    1.9201    1.4383 C.ar    1  UNL1        0.2554
     11 O           9.0355    2.2370    1.9574 O.2     1  UNL1       -0.2675
     12 N           7.5839    0.6194    1.3848 N.ar    1  UNL1       -0.2578
     13 C           8.4812   -0.4141    1.9229 C.3     1  UNL1        0.3223
     14 F           7.6727   -1.3272    2.5897 F       1  UNL1       -0.1846
     15 F           9.3283    0.1296    2.8435 F       1  UNL1       -0.1846
     16 C           6.4083    0.3105    0.8305 C.ar    1  UNL1        0.0208
     17 C           3.6533    1.4959   -1.3214 C.ar    1  UNL1       -0.0537
     18 C           2.4496    1.0748   -1.8656 C.ar    1  UNL1       -0.0562
     19 N          -0.4144   -0.8325   -0.9119 N.am    1  UNL1       -0.2605
     20 C          -0.7287    0.1880    0.0532 C.3     1  UNL1        0.0224
     21 C          -1.9118   -0.1182    0.9052 C.3     1  UNL1        0.0076
     22 C          -2.9051   -1.0363    0.2885 C.3     1  UNL1        0.1440
     23 C          -3.7222   -0.5738   -0.8327 C.3     1  UNL1        0.0199
     24 C          -4.6579    0.5492   -0.7001 C.3     1  UNL1        0.0645
     25 C          -4.0183    1.8514   -0.3391 C.3     1  UNL1       -0.0362
     26 C          -5.4437    0.7646   -2.0155 C.3     1  UNL1       -0.0362
     27 O          -5.6624    0.3250    0.2542 O.3     1  UNL1       -0.3890
     28 C          -3.8303   -1.5608    1.3519 C.ar    1  UNL1       -0.0040
     29 C          -3.8208   -1.0935    2.6266 C.ar    1  UNL1       -0.0548
     30 C          -4.6860   -1.6329    3.5485 C.ar    1  UNL1       -0.0614
     31 C          -5.5750   -2.6389    3.2368 C.ar    1  UNL1       -0.0617
     32 C          -5.5794   -3.1082    1.9428 C.ar    1  UNL1       -0.0614
     33 C          -4.6986   -2.5593    1.0047 C.ar    1  UNL1       -0.0548
     34 O          -2.2086   -2.2199   -0.1504 O.3     1  UNL1       -0.4387
     35 C          -0.9751   -2.1088   -0.7868 C.2     1  UNL1        0.4042
     36 O          -0.3506   -3.1030   -1.2500 O.2     1  UNL1       -0.2262
     37 H          -0.0056    1.5559   -2.3110 H       1  UNL1        0.0251
     38 H           0.3384    0.6244   -3.8727 H       1  UNL1        0.0251
     39 H          -1.1974    0.4525   -3.0080 H       1  UNL1        0.0251
     40 H           0.6076   -1.3964   -2.6233 H       1  UNL1        0.0549
     41 H           1.8539   -1.6294   -0.0132 H       1  UNL1        0.0621
     42 H           4.0359   -0.8966    0.9992 H       1  UNL1        0.0624
     43 H           5.1931    3.2915   -0.0414 H       1  UNL1        0.0626
     44 H           7.3759    3.9258    0.9824 H       1  UNL1        0.0672
     45 H           8.9827   -0.9683    1.1211 H       1  UNL1        0.1281
     46 H           6.1317   -0.7293    0.7877 H       1  UNL1        0.0818
     47 H           4.1502    2.3723   -1.6938 H       1  UNL1        0.0624
     48 H           1.9960    1.6398   -2.6863 H       1  UNL1        0.0621
     49 H           0.1827    0.2462    0.7275 H       1  UNL1        0.0467
     50 H          -0.7454    1.1776   -0.4474 H       1  UNL1        0.0467
     51 H          -2.3256    0.7840    1.3466 H       1  UNL1        0.0322
     52 H          -1.4882   -0.7262    1.7900 H       1  UNL1        0.0322
     53 H          -3.0257   -0.3996   -1.7144 H       1  UNL1        0.0335
     54 H          -4.3322   -1.4649   -1.1934 H       1  UNL1        0.0335
     55 H          -4.4912    2.6997   -0.9222 H       1  UNL1        0.0257
     56 H          -2.9515    1.9277   -0.5881 H       1  UNL1        0.0257
     57 H          -4.1240    2.1024    0.7530 H       1  UNL1        0.0257
     58 H          -5.7043   -0.2487   -2.3712 H       1  UNL1        0.0257
     59 H          -6.3731    1.3050   -1.8169 H       1  UNL1        0.0257
     60 H          -4.8053    1.3137   -2.7427 H       1  UNL1        0.0257
     61 H          -6.4077    0.9534    0.0496 H       1  UNL1        0.2101
     62 H          -3.1309   -0.2977    2.9069 H       1  UNL1        0.0622
     63 H          -4.7132   -1.2861    4.5906 H       1  UNL1        0.0618
     64 H          -6.2594   -3.0574    3.9876 H       1  UNL1        0.0618
     65 H          -6.2509   -3.8999    1.6183 H       1  UNL1        0.0618
     66 H          -4.7351   -2.9763   -0.0154 H       1  UNL1        0.0622
@<TRIPOS>BOND
     1     1     2    1
     2     2     3    1
     3     3     4   ar
     4     4     5   ar
     5     5     6   ar
     6     6     7    1
     7     7     8   ar
     8     8     9   ar
     9     9    10   ar
    10    10    11    2
    11    10    12   ar
    12    12    13    1
    13    13    14    1
    14    13    15    1
    15    12    16   ar
    16     6    17   ar
    17    17    18   ar
    18     2    19    1
    19    19    20    1
    20    20    21    1
    21    21    22    1
    22    22    23    1
    23    23    24    1
    24    24    25    1
    25    24    26    1
    26    24    27    1
    27    22    28    1
    28    28    29   ar
    29    29    30   ar
    30    30    31   ar
    31    31    32   ar
    32    32    33   ar
    33    22    34    1
    34    34    35    1
    35    35    36    2
    36    18     3   ar
    37    35    19   am
    38    16     7   ar
    39    33    28   ar
    40     1    37    1
    41     1    38    1
    42     1    39    1
    43     2    40    1
    44     4    41    1
    45     5    42    1
    46     8    43    1
    47     9    44    1
    48    13    45    1
    49    16    46    1
    50    17    47    1
    51    18    48    1
    52    20    49    1
    53    20    50    1
    54    21    51    1
    55    21    52    1
    56    23    53    1
    57    23    54    1
    58    25    55    1
    59    25    56    1
    60    25    57    1
    61    26    58    1
    62    26    59    1
    63    26    60    1
    64    27    61    1
    65    29    62    1
    66    30    63    1
    67    31    64    1
    68    32    65    1
    69    33    66    1
