
     RDKit          3D

 60 64  0  0  0  0  0  0  0  0999 V2000
   -0.7546    1.4861    1.3379 C   0  0  0  0  0  0  0  0  0  0  0  0
   -0.2698    0.1379    0.6976 C   0  0  2  0  0  0  0  0  0  0  0  0
    0.8982   -0.2160    1.5535 C   0  0  0  0  0  0  0  0  0  0  0  0
    2.1638    0.0188    0.9689 C   0  0  0  0  0  0  0  0  0  0  0  0
    3.2957   -0.1801    1.7145 C   0  0  0  0  0  0  0  0  0  0  0  0
    4.6374    0.0044    1.1383 C   0  0  0  0  0  0  0  0  0  0  0  0
    4.9794   -0.7020    0.0474 C   0  0  0  0  0  0  0  0  0  0  0  0
    4.0395   -1.5303   -0.4260 F   0  0  0  0  0  0  0  0  0  0  0  0
    6.2573   -0.5730   -0.6104 C   0  0  0  0  0  0  0  0  0  0  0  0
    6.6077   -1.5346   -1.5255 C   0  0  0  0  0  0  0  0  0  0  0  0
    7.8005   -1.4462   -2.1776 C   0  0  0  0  0  0  0  0  0  0  0  0
    8.6489   -0.4182   -1.9383 C   0  0  0  0  0  0  0  0  0  0  0  0
    9.8806   -0.3521   -2.5796 C   0  0  0  0  0  0  0  0  0  0  0  0
   10.9841   -0.2727   -3.1642 N   0  0  0  0  0  0  0  0  0  0  0  0
    8.2939    0.5711   -1.0064 C   0  0  0  0  0  0  0  0  0  0  0  0
    7.1156    0.4491   -0.3815 N   0  0  0  0  0  0  0  0  0  0  0  0
    3.2075   -0.5962    3.0020 C   0  0  0  0  0  0  0  0  0  0  0  0
    1.9901   -0.8485    3.6407 C   0  0  0  0  0  0  0  0  0  0  0  0
    0.8856   -0.6268    2.8171 C   0  0  0  0  0  0  0  0  0  0  0  0
   -0.3058   -0.8605    3.4426 F   0  0  0  0  0  0  0  0  0  0  0  0
    0.2126    0.4950   -0.6123 N   0  0  0  0  0  0  0  0  0  0  0  0
   -0.5585    1.0632   -1.4459 C   0  0  0  0  0  0  0  0  0  0  0  0
   -0.1619    1.4337   -2.7195 N   0  0  0  0  0  0  0  0  0  0  0  0
   -2.2219    1.3351   -0.8709 S   0  0  0  0  0  0  0  0  0  0  0  0
   -2.6112   -0.2002    0.0701 C   0  0  1  0  0  0  0  0  0  0  0  0
   -3.9304   -0.2048    0.6824 C   0  0  0  0  0  0  0  0  0  0  0  0
   -3.9324   -0.2346    1.9808 O   0  0  0  0  0  0  0  0  0  0  0  0
   -5.1622   -0.1739    0.0481 N   0  0  0  0  0  0  0  0  0  0  0  0
   -5.3916   -0.1023   -1.3575 C   0  0  0  0  0  0  0  0  0  0  0  0
   -6.4338    0.9423   -1.6592 C   0  0  0  0  0  0  0  0  0  0  0  0
   -6.9600    1.7563   -0.5555 C   0  0  0  0  0  0  0  0  0  0  0  0
   -6.7603    1.3246    0.8602 C   0  0  0  0  0  0  0  0  0  0  0  0
   -6.3990   -0.1624    0.8687 C   0  0  0  0  0  0  0  0  0  0  0  0
   -1.9783   -1.4393   -0.4209 C   0  0  0  0  0  0  0  0  0  0  0  0
   -1.4312   -0.7716    0.7510 C   0  0  1  0  0  0  0  0  0  0  0  0
   -0.2043    1.6576    2.3041 H   0  0  0  0  0  0  0  0  0  0  0  0
   -1.8207    1.4367    1.5959 H   0  0  0  0  0  0  0  0  0  0  0  0
   -0.4965    2.3202    0.6715 H   0  0  0  0  0  0  0  0  0  0  0  0
    2.2671    0.3417   -0.0460 H   0  0  0  0  0  0  0  0  0  0  0  0
    5.3119    0.6678    1.5855 H   0  0  0  0  0  0  0  0  0  0  0  0
    5.9529   -2.3656   -1.7339 H   0  0  0  0  0  0  0  0  0  0  0  0
    8.0881   -2.2210   -2.9062 H   0  0  0  0  0  0  0  0  0  0  0  0
    8.9803    1.3595   -0.8646 H   0  0  0  0  0  0  0  0  0  0  0  0
    4.1095   -0.7455    3.5800 H   0  0  0  0  0  0  0  0  0  0  0  0
    1.9859   -1.1718    4.6369 H   0  0  0  0  0  0  0  0  0  0  0  0
    0.2493    0.6713   -3.3422 H   0  0  0  0  0  0  0  0  0  0  0  0
   -0.2459    2.3937   -3.0732 H   0  0  0  0  0  0  0  0  0  0  0  0
   -5.8164   -1.0779   -1.7324 H   0  0  0  0  0  0  0  0  0  0  0  0
   -4.4591    0.0848   -1.9535 H   0  0  0  0  0  0  0  0  0  0  0  0
   -5.9283    1.6559   -2.3781 H   0  0  0  0  0  0  0  0  0  0  0  0
   -7.2925    0.4900   -2.2302 H   0  0  0  0  0  0  0  0  0  0  0  0
   -8.1021    1.8286   -0.6644 H   0  0  0  0  0  0  0  0  0  0  0  0
   -6.6629    2.8386   -0.6586 H   0  0  0  0  0  0  0  0  0  0  0  0
   -7.6125    1.5213    1.5268 H   0  0  0  0  0  0  0  0  0  0  0  0
   -5.8917    1.9052    1.2831 H   0  0  0  0  0  0  0  0  0  0  0  0
   -7.1934   -0.6788    0.3408 H   0  0  0  0  0  0  0  0  0  0  0  0
   -6.1849   -0.5386    1.8670 H   0  0  0  0  0  0  0  0  0  0  0  0
   -1.3815   -1.3658   -1.3749 H   0  0  0  0  0  0  0  0  0  0  0  0
   -2.6090   -2.3619   -0.3922 H   0  0  0  0  0  0  0  0  0  0  0  0
   -1.6790   -1.1270    1.7882 H   0  0  0  0  0  0  0  0  0  0  0  0
  2  1  1  1
  2  3  1  0
  3  4  2  0
  4  5  1  0
  5  6  1  0
  6  7  2  0
  7  8  1  0
  7  9  1  0
  9 10  2  0
 10 11  1  0
 11 12  2  0
 12 13  1  0
 13 14  3  0
 12 15  1  0
 15 16  2  0
  5 17  2  0
 17 18  1  0
 18 19  2  0
 19 20  1  0
  2 21  1  0
 21 22  2  0
 22 23  1  0
 22 24  1  0
 24 25  1  0
 25 26  1  1
 26 27  2  0
 26 28  1  0
 28 29  1  0
 29 30  1  0
 30 31  1  0
 31 32  1  0
 32 33  1  0
 25 34  1  0
 34 35  1  0
 35  2  1  0
 19  3  1  0
 35 25  1  0
 16  9  1  0
 33 28  1  0
  1 36  1  0
  1 37  1  0
  1 38  1  0
  4 39  1  0
  6 40  1  0
 10 41  1  0
 11 42  1  0
 15 43  1  0
 17 44  1  0
 18 45  1  0
 23 46  1  0
 23 47  1  0
 29 48  1  0
 29 49  1  0
 30 50  1  0
 30 51  1  0
 31 52  1  0
 31 53  1  0
 32 54  1  0
 32 55  1  0
 33 56  1  0
 33 57  1  0
 34 58  1  0
 34 59  1  0
 35 60  1  1
M  END
$$$$
