@<TRIPOS>MOLECULE
*****
 60 64 0 0 0
SMALL
GASTEIGER

@<TRIPOS>ATOM
      1 C          -0.7546    1.4861    1.3379 C.3     1  UNL1       -0.0351
      2 C          -0.2698    0.1379    0.6976 C.3     1  UNL1        0.0935
      3 C           0.8982   -0.2160    1.5535 C.ar    1  UNL1        0.0158
      4 C           2.1638    0.0188    0.9689 C.ar    1  UNL1       -0.0463
      5 C           3.2957   -0.1801    1.7145 C.ar    1  UNL1       -0.0217
      6 C           4.6374    0.0044    1.1383 C.2     1  UNL1       -0.0172
      7 C           4.9794   -0.7020    0.0474 C.2     1  UNL1        0.1492
      8 F           4.0395   -1.5303   -0.4260 F       1  UNL1       -0.2032
      9 C           6.2573   -0.5730   -0.6104 C.ar    1  UNL1        0.0990
     10 C           6.6077   -1.5346   -1.5255 C.ar    1  UNL1       -0.0322
     11 C           7.8005   -1.4462   -2.1776 C.ar    1  UNL1       -0.0408
     12 C           8.6489   -0.4182   -1.9383 C.ar    1  UNL1        0.0699
     13 C           9.8806   -0.3521   -2.5796 C.1     1  UNL1        0.1007
     14 N          10.9841   -0.2727   -3.1642 N.1     1  UNL1       -0.1908
     15 C           8.2939    0.5711   -1.0064 C.ar    1  UNL1        0.0457
     16 N           7.1156    0.4491   -0.3815 N.ar    1  UNL1       -0.2514
     17 C           3.2075   -0.5962    3.0020 C.ar    1  UNL1       -0.0518
     18 C           1.9901   -0.8485    3.6407 C.ar    1  UNL1       -0.0255
     19 C           0.8856   -0.6268    2.8171 C.ar    1  UNL1        0.1289
     20 F          -0.3058   -0.8605    3.4426 F       1  UNL1       -0.2051
     21 N           0.2126    0.4950   -0.6123 N.2     1  UNL1       -0.2521
     22 C          -0.5585    1.0632   -1.4459 C.2     1  UNL1        0.1485
     23 N          -0.1619    1.4337   -2.7195 N.pl3   1  UNL1       -0.3380
     24 S          -2.2219    1.3351   -0.8709 S.3     1  UNL1       -0.0746
     25 C          -2.6112   -0.2002    0.0701 C.3     1  UNL1        0.1054
     26 C          -3.9304   -0.2048    0.6824 C.2     1  UNL1        0.2324
     27 O          -3.9324   -0.2346    1.9808 O.2     1  UNL1       -0.2741
     28 N          -5.1622   -0.1739    0.0481 N.am    1  UNL1       -0.3003
     29 C          -5.3916   -0.1023   -1.3575 C.3     1  UNL1        0.0147
     30 C          -6.4338    0.9423   -1.6592 C.3     1  UNL1       -0.0371
     31 C          -6.9600    1.7563   -0.5555 C.3     1  UNL1       -0.0502
     32 C          -6.7603    1.3246    0.8602 C.3     1  UNL1       -0.0371
     33 C          -6.3990   -0.1624    0.8687 C.3     1  UNL1        0.0147
     34 C          -1.9783   -1.4393   -0.4209 C.3     1  UNL1       -0.0220
     35 C          -1.4312   -0.7716    0.7510 C.3     1  UNL1        0.0134
     36 H          -0.2043    1.6576    2.3041 H       1  UNL1        0.0256
     37 H          -1.8207    1.4367    1.5959 H       1  UNL1        0.0256
     38 H          -0.4965    2.3202    0.6715 H       1  UNL1        0.0256
     39 H           2.2671    0.3417   -0.0460 H       1  UNL1        0.0628
     40 H           5.3119    0.6678    1.5855 H       1  UNL1        0.0653
     41 H           5.9529   -2.3656   -1.7339 H       1  UNL1        0.0640
     42 H           8.0881   -2.2210   -2.9062 H       1  UNL1        0.0631
     43 H           8.9803    1.3595   -0.8646 H       1  UNL1        0.0843
     44 H           4.1095   -0.7455    3.5800 H       1  UNL1        0.0624
     45 H           1.9859   -1.1718    4.6369 H       1  UNL1        0.0646
     46 H           0.2493    0.6713   -3.3422 H       1  UNL1        0.1442
     47 H          -0.2459    2.3937   -3.0732 H       1  UNL1        0.1442
     48 H          -5.8164   -1.0779   -1.7324 H       1  UNL1        0.0464
     49 H          -4.4591    0.0848   -1.9535 H       1  UNL1        0.0464
     50 H          -5.9283    1.6559   -2.3781 H       1  UNL1        0.0280
     51 H          -7.2925    0.4900   -2.2302 H       1  UNL1        0.0280
     52 H          -8.1021    1.8286   -0.6644 H       1  UNL1        0.0266
     53 H          -6.6629    2.8386   -0.6586 H       1  UNL1        0.0266
     54 H          -7.6125    1.5213    1.5268 H       1  UNL1        0.0280
     55 H          -5.8917    1.9052    1.2831 H       1  UNL1        0.0280
     56 H          -7.1934   -0.6788    0.3408 H       1  UNL1        0.0464
     57 H          -6.1849   -0.5386    1.8670 H       1  UNL1        0.0464
     58 H          -1.3815   -1.3658   -1.3749 H       1  UNL1        0.0287
     59 H          -2.6090   -2.3619   -0.3922 H       1  UNL1        0.0287
     60 H          -1.6790   -1.1270    1.7882 H       1  UNL1        0.0346
@<TRIPOS>BOND
     1     2     1    1
     2     2     3    1
     3     3     4   ar
     4     4     5   ar
     5     5     6    1
     6     6     7    2
     7     7     8    1
     8     7     9    1
     9     9    10   ar
    10    10    11   ar
    11    11    12   ar
    12    12    13    1
    13    13    14    3
    14    12    15   ar
    15    15    16   ar
    16     5    17   ar
    17    17    18   ar
    18    18    19   ar
    19    19    20    1
    20     2    21    1
    21    21    22    2
    22    22    23    1
    23    22    24    1
    24    24    25    1
    25    25    26    1
    26    26    27    2
    27    26    28   am
    28    28    29    1
    29    29    30    1
    30    30    31    1
    31    31    32    1
    32    32    33    1
    33    25    34    1
    34    34    35    1
    35    35     2    1
    36    19     3   ar
    37    35    25    1
    38    16     9   ar
    39    33    28    1
    40     1    36    1
    41     1    37    1
    42     1    38    1
    43     4    39    1
    44     6    40    1
    45    10    41    1
    46    11    42    1
    47    15    43    1
    48    17    44    1
    49    18    45    1
    50    23    46    1
    51    23    47    1
    52    29    48    1
    53    29    49    1
    54    30    50    1
    55    30    51    1
    56    31    52    1
    57    31    53    1
    58    32    54    1
    59    32    55    1
    60    33    56    1
    61    33    57    1
    62    34    58    1
    63    34    59    1
    64    35    60    1
