@<TRIPOS>MOLECULE
*****
 66 68 0 0 0
SMALL
GASTEIGER

@<TRIPOS>ATOM
      1 NH1         7.3299   -2.4198   -0.3316 N.pl3   1  UNL1       -0.1298
      2 CZ          7.0422   -1.6583   -1.3139 C.cat   1  UNL1        0.3762
      3 NH2         7.9041   -1.6575   -2.4465 N.pl3   1  UNL1       -0.2893
      4 NE          5.9008   -0.8221   -1.3109 N.pl3   1  UNL1       -0.2761
      5 CD          5.0721   -0.7886   -0.1276 C.3     1  UNL1        0.0647
      6 CG          3.9181    0.1517   -0.3398 C.3     1  UNL1       -0.0202
      7 CB          3.0383   -0.2473   -1.4817 C.3     1  UNL1       -0.0250
      8 CA          1.9199    0.7530   -1.6330 C.3     1  UNL1        0.0786
      9 C           1.0164    0.4269   -2.7363 C.2     1  UNL1        0.1404
     10 O           1.4460    0.2635   -3.8544 O.2     1  UNL1       -0.2991
     11 N           1.2188    0.9110   -0.3643 N.am    1  UNL1       -0.3044
     12 C           1.2625    2.1039    0.3899 C.2     1  UNL1        0.2341
     13 O           1.9420    3.0752   -0.0280 O.2     1  UNL1       -0.2738
     14 CA          0.5468    2.3010    1.6837 C.3     1  UNL1        0.1023
     15 CB          1.1987    1.5414    2.7696 C.3     1  UNL1       -0.0243
     16 CG          0.0926    0.8969    3.5406 C.3     1  UNL1       -0.0350
     17 CD         -1.1786    1.5688    3.0195 C.3     1  UNL1        0.0156
     18 N          -0.8460    1.8318    1.6413 N.am    1  UNL1       -0.2886
     19 C          -1.6389    1.7334    0.4625 C.2     1  UNL1        0.2335
     20 O          -1.0344    2.0805   -0.6251 O.2     1  UNL1       -0.2739
     21 CA         -3.0106    1.2899    0.4206 C.3     1  UNL1        0.0881
     22 N          -3.5812    0.9942    1.6671 N.3     1  UNL1       -0.3054
     23 C          -4.3129   -0.2198    1.8090 C.3     1  UNL1       -0.0032
     24 C          -5.3128   -0.3645    0.6840 C.3     1  UNL1       -0.0373
     25 C          -4.7559   -0.0122   -0.6441 C.3     1  UNL1       -0.0352
     26 C          -5.0851   -0.9767   -1.7463 C.3     1  UNL1       -0.0499
     27 C          -4.2032   -2.1628   -1.8399 C.3     1  UNL1       -0.0528
     28 C          -3.1823   -2.2768   -0.7376 C.3     1  UNL1       -0.0527
     29 C          -2.4277   -0.9866   -0.5195 C.3     1  UNL1       -0.0481
     30 C          -3.2670    0.2282   -0.6395 C.3     1  UNL1       -0.0142
     31 HH1         8.1411   -3.0401   -0.2899 H       1  UNL1        0.3062
     32 HH21        7.4594   -1.4808   -3.3815 H       1  UNL1        0.2546
     33 HH22        8.9102   -1.8252   -2.3185 H       1  UNL1        0.2546
     34 HE          5.6523   -0.2401   -2.1294 H       1  UNL1        0.2579
     35 HD1         5.6674   -0.3697    0.7289 H       1  UNL1        0.0655
     36 HD2         4.7501   -1.8051    0.1718 H       1  UNL1        0.0655
     37 HG1         4.3280    1.1701   -0.4690 H       1  UNL1        0.0296
     38 HG2         3.2877    0.0810    0.5909 H       1  UNL1        0.0296
     39 HB1         2.6062   -1.2560   -1.3692 H       1  UNL1        0.0288
     40 HB2         3.6470   -0.2145   -2.4309 H       1  UNL1        0.0288
     41 HA          2.4384    1.7178   -1.9079 H       1  UNL1        0.0574
     42 H          -0.0396    0.3285   -2.5685 H       1  UNL1        0.1046
     43 H           0.6612    0.1182    0.0346 H       1  UNL1        0.1494
     44 HA          0.5112    3.3708    1.9644 H       1  UNL1        0.0597
     45 HB1         1.8700    2.1561    3.4121 H       1  UNL1        0.0288
     46 HB2         1.8554    0.7169    2.3875 H       1  UNL1        0.0288
     47 HG1         0.0567   -0.1923    3.4738 H       1  UNL1        0.0281
     48 HG2         0.2029    1.1463    4.6299 H       1  UNL1        0.0281
     49 HD1        -2.0435    0.9391    3.1780 H       1  UNL1        0.0465
     50 HD2        -1.2918    2.5398    3.5870 H       1  UNL1        0.0465
     51 HA         -3.6070    2.1916    0.0226 H       1  UNL1        0.0559
     52 H          -4.1051    1.7770    2.0887 H       1  UNL1        0.1226
     53 H          -3.6866   -1.1216    1.9693 H       1  UNL1        0.0424
     54 H          -4.8774   -0.1220    2.7887 H       1  UNL1        0.0424
     55 H          -5.7918   -1.3740    0.7180 H       1  UNL1        0.0280
     56 H          -6.1516    0.3341    0.9477 H       1  UNL1        0.0280
     57 H          -5.2058    0.9767   -0.9596 H       1  UNL1        0.0304
     58 H          -6.1786   -1.2297   -1.6321 H       1  UNL1        0.0268
     59 H          -5.0199   -0.4220   -2.7079 H       1  UNL1        0.0268
     60 H          -4.8297   -3.0852   -1.7973 H       1  UNL1        0.0265
     61 H          -3.6427   -2.2390   -2.8137 H       1  UNL1        0.0265
     62 H          -3.6179   -2.6945    0.1913 H       1  UNL1        0.0265
     63 H          -2.4483   -3.0579   -1.0774 H       1  UNL1        0.0265
     64 H          -1.8588   -1.0825    0.4350 H       1  UNL1        0.0269
     65 H          -1.6142   -0.9731   -1.3073 H       1  UNL1        0.0269
     66 H          -3.0479    0.7032   -1.6399 H       1  UNL1        0.0323
@<TRIPOS>BOND
     1     1     2    2
     2     2     3    1
     3     2     4    1
     4     4     5    1
     5     5     6    1
     6     6     7    1
     7     7     8    1
     8     8     9    1
     9     9    10    2
    10     8    11    1
    11    11    12   am
    12    12    13    2
    13    12    14    1
    14    14    15    1
    15    15    16    1
    16    16    17    1
    17    17    18    1
    18    18    19   am
    19    19    20    2
    20    19    21    1
    21    21    22    1
    22    22    23    1
    23    23    24    1
    24    24    25    1
    25    25    26    1
    26    26    27    1
    27    27    28    1
    28    28    29    1
    29    29    30    1
    30    18    14    1
    31    30    21    1
    32    30    25    1
    33     1    31    1
    34     3    32    1
    35     3    33    1
    36     4    34    1
    37     5    35    1
    38     5    36    1
    39     6    37    1
    40     6    38    1
    41     7    39    1
    42     7    40    1
    43     8    41    1
    44     9    42    1
    45    11    43    1
    46    14    44    1
    47    15    45    1
    48    15    46    1
    49    16    47    1
    50    16    48    1
    51    17    49    1
    52    17    50    1
    53    21    51    1
    54    22    52    1
    55    23    53    1
    56    23    54    1
    57    24    55    1
    58    24    56    1
    59    25    57    1
    60    26    58    1
    61    26    59    1
    62    27    60    1
    63    27    61    1
    64    28    62    1
    65    28    63    1
    66    29    64    1
    67    29    65    1
    68    30    66    1
