
     RDKit          3D

 66 68  0  0  0  0  0  0  0  0999 V2000
    7.3299   -2.4198   -0.3316 N   0  0  0  0  0  0  0  0  0  0  0  0
    7.0422   -1.6583   -1.3139 C   0  0  0  0  0  0  0  0  0  0  0  0
    7.9041   -1.6575   -2.4465 N   0  0  0  0  0  0  0  0  0  0  0  0
    5.9008   -0.8221   -1.3109 N   0  0  0  0  0  0  0  0  0  0  0  0
    5.0721   -0.7886   -0.1276 C   0  0  0  0  0  0  0  0  0  0  0  0
    3.9181    0.1517   -0.3398 C   0  0  0  0  0  0  0  0  0  0  0  0
    3.0383   -0.2473   -1.4817 C   0  0  0  0  0  0  0  0  0  0  0  0
    1.9199    0.7530   -1.6330 C   0  0  1  0  0  0  0  0  0  0  0  0
    1.0164    0.4269   -2.7363 C   0  0  0  0  0  0  0  0  0  0  0  0
    1.4460    0.2635   -3.8544 O   0  0  0  0  0  0  0  0  0  0  0  0
    1.2188    0.9110   -0.3643 N   0  0  0  0  0  0  0  0  0  0  0  0
    1.2625    2.1039    0.3899 C   0  0  0  0  0  0  0  0  0  0  0  0
    1.9420    3.0752   -0.0280 O   0  0  0  0  0  0  0  0  0  0  0  0
    0.5468    2.3010    1.6837 C   0  0  2  0  0  0  0  0  0  0  0  0
    1.1987    1.5414    2.7696 C   0  0  0  0  0  0  0  0  0  0  0  0
    0.0926    0.8969    3.5406 C   0  0  0  0  0  0  0  0  0  0  0  0
   -1.1786    1.5688    3.0195 C   0  0  0  0  0  0  0  0  0  0  0  0
   -0.8460    1.8318    1.6413 N   0  0  0  0  0  0  0  0  0  0  0  0
   -1.6389    1.7334    0.4625 C   0  0  0  0  0  0  0  0  0  0  0  0
   -1.0344    2.0805   -0.6251 O   0  0  0  0  0  0  0  0  0  0  0  0
   -3.0106    1.2899    0.4206 C   0  0  2  0  0  0  0  0  0  0  0  0
   -3.5812    0.9942    1.6671 N   0  0  0  0  0  0  0  0  0  0  0  0
   -4.3129   -0.2198    1.8090 C   0  0  0  0  0  0  0  0  0  0  0  0
   -5.3128   -0.3645    0.6840 C   0  0  0  0  0  0  0  0  0  0  0  0
   -4.7559   -0.0122   -0.6441 C   0  0  2  0  0  0  0  0  0  0  0  0
   -5.0851   -0.9767   -1.7463 C   0  0  0  0  0  0  0  0  0  0  0  0
   -4.2032   -2.1628   -1.8399 C   0  0  0  0  0  0  0  0  0  0  0  0
   -3.1823   -2.2768   -0.7376 C   0  0  0  0  0  0  0  0  0  0  0  0
   -2.4277   -0.9866   -0.5195 C   0  0  0  0  0  0  0  0  0  0  0  0
   -3.2670    0.2282   -0.6395 C   0  0  2  0  0  0  0  0  0  0  0  0
    8.1411   -3.0401   -0.2899 H   0  0  0  0  0  0  0  0  0  0  0  0
    7.4594   -1.4808   -3.3815 H   0  0  0  0  0  0  0  0  0  0  0  0
    8.9102   -1.8252   -2.3185 H   0  0  0  0  0  0  0  0  0  0  0  0
    5.6523   -0.2401   -2.1294 H   0  0  0  0  0  0  0  0  0  0  0  0
    5.6674   -0.3697    0.7289 H   0  0  0  0  0  0  0  0  0  0  0  0
    4.7501   -1.8051    0.1718 H   0  0  0  0  0  0  0  0  0  0  0  0
    4.3280    1.1701   -0.4690 H   0  0  0  0  0  0  0  0  0  0  0  0
    3.2877    0.0810    0.5909 H   0  0  0  0  0  0  0  0  0  0  0  0
    2.6062   -1.2560   -1.3692 H   0  0  0  0  0  0  0  0  0  0  0  0
    3.6470   -0.2145   -2.4309 H   0  0  0  0  0  0  0  0  0  0  0  0
    2.4384    1.7178   -1.9079 H   0  0  0  0  0  0  0  0  0  0  0  0
   -0.0396    0.3285   -2.5685 H   0  0  0  0  0  0  0  0  0  0  0  0
    0.6612    0.1182    0.0346 H   0  0  0  0  0  0  0  0  0  0  0  0
    0.5112    3.3708    1.9644 H   0  0  0  0  0  0  0  0  0  0  0  0
    1.8700    2.1561    3.4121 H   0  0  0  0  0  0  0  0  0  0  0  0
    1.8554    0.7169    2.3875 H   0  0  0  0  0  0  0  0  0  0  0  0
    0.0567   -0.1923    3.4738 H   0  0  0  0  0  0  0  0  0  0  0  0
    0.2029    1.1463    4.6299 H   0  0  0  0  0  0  0  0  0  0  0  0
   -2.0435    0.9391    3.1780 H   0  0  0  0  0  0  0  0  0  0  0  0
   -1.2918    2.5398    3.5870 H   0  0  0  0  0  0  0  0  0  0  0  0
   -3.6070    2.1916    0.0226 H   0  0  0  0  0  0  0  0  0  0  0  0
   -4.1051    1.7770    2.0887 H   0  0  0  0  0  0  0  0  0  0  0  0
   -3.6866   -1.1216    1.9693 H   0  0  0  0  0  0  0  0  0  0  0  0
   -4.8774   -0.1220    2.7887 H   0  0  0  0  0  0  0  0  0  0  0  0
   -5.7918   -1.3740    0.7180 H   0  0  0  0  0  0  0  0  0  0  0  0
   -6.1516    0.3341    0.9477 H   0  0  0  0  0  0  0  0  0  0  0  0
   -5.2058    0.9767   -0.9596 H   0  0  0  0  0  0  0  0  0  0  0  0
   -6.1786   -1.2297   -1.6321 H   0  0  0  0  0  0  0  0  0  0  0  0
   -5.0199   -0.4220   -2.7079 H   0  0  0  0  0  0  0  0  0  0  0  0
   -4.8297   -3.0852   -1.7973 H   0  0  0  0  0  0  0  0  0  0  0  0
   -3.6427   -2.2390   -2.8137 H   0  0  0  0  0  0  0  0  0  0  0  0
   -3.6179   -2.6945    0.1913 H   0  0  0  0  0  0  0  0  0  0  0  0
   -2.4483   -3.0579   -1.0774 H   0  0  0  0  0  0  0  0  0  0  0  0
   -1.8588   -1.0825    0.4350 H   0  0  0  0  0  0  0  0  0  0  0  0
   -1.6142   -0.9731   -1.3073 H   0  0  0  0  0  0  0  0  0  0  0  0
   -3.0479    0.7032   -1.6399 H   0  0  0  0  0  0  0  0  0  0  0  0
  1  2  2  3
  2  3  1  0
  2  4  1  0
  4  5  1  0
  5  6  1  0
  6  7  1  0
  7  8  1  0
  8  9  1  0
  9 10  2  0
  8 11  1  0
 11 12  1  0
 12 13  2  0
 12 14  1  0
 14 15  1  0
 15 16  1  0
 16 17  1  0
 17 18  1  0
 18 19  1  0
 19 20  2  0
 19 21  1  0
 21 22  1  0
 22 23  1  0
 23 24  1  0
 24 25  1  0
 25 26  1  0
 26 27  1  0
 27 28  1  0
 28 29  1  0
 29 30  1  0
 18 14  1  0
 30 21  1  0
 30 25  1  0
  1 31  1  0
  3 32  1  0
  3 33  1  0
  4 34  1  0
  5 35  1  0
  5 36  1  0
  6 37  1  0
  6 38  1  0
  7 39  1  0
  7 40  1  0
  8 41  1  6
  9 42  1  0
 11 43  1  0
 14 44  1  1
 15 45  1  0
 15 46  1  0
 16 47  1  0
 16 48  1  0
 17 49  1  0
 17 50  1  0
 21 51  1  6
 22 52  1  0
 23 53  1  0
 23 54  1  0
 24 55  1  0
 24 56  1  0
 25 57  1  6
 26 58  1  0
 26 59  1  0
 27 60  1  0
 27 61  1  0
 28 62  1  0
 28 63  1  0
 29 64  1  0
 29 65  1  0
 30 66  1  6
M  END
$$$$
