@<TRIPOS>MOLECULE
*****
 40 43 0 0 0
SMALL
GASTEIGER

@<TRIPOS>ATOM
      1 O          -1.0904   -3.6205   -2.2157 O.2     1  UNL1       -0.2677
      2 C          -1.0385   -2.7132   -1.3396 C.ar    1  UNL1        0.2533
      3 C          -2.0221   -1.7552   -1.3338 C.ar    1  UNL1        0.0427
      4 C          -1.9766   -0.7705   -0.3924 C.ar    1  UNL1        0.1285
      5 N          -2.9922    0.2280   -0.3771 N.pl3   1  UNL1       -0.3106
      6 C          -2.8897    1.2659    0.6393 C.3     1  UNL1        0.0370
      7 C          -4.1209    2.0953    0.7887 C.3     1  UNL1        0.0634
      8 O          -4.7971    2.2745   -0.4210 O.3     1  UNL1       -0.3767
      9 C          -5.2032    1.0825   -0.9680 C.3     1  UNL1        0.0634
     10 C          -4.0658    0.1788   -1.3483 C.3     1  UNL1        0.0370
     11 N          -0.9609   -0.7602    0.5161 N.ar    1  UNL1       -0.2186
     12 C           0.0097   -1.6925    0.5224 C.ar    1  UNL1        0.1191
     13 C           1.1191   -1.6832    1.5130 C.3     1  UNL1        0.0637
     14 C           2.2864   -0.9037    1.0345 C.ar    1  UNL1        0.1155
     15 N           3.2984   -1.4349    0.3273 N.ar    1  UNL1       -0.2321
     16 C           4.1788   -0.4600    0.0601 C.ar    1  UNL1        0.0892
     17 C           5.3773   -0.5025   -0.6353 C.ar    1  UNL1       -0.0332
     18 C           6.1304    0.6474   -0.7873 C.ar    1  UNL1       -0.0456
     19 C           5.6790    1.8307   -0.2427 C.ar    1  UNL1        0.0200
     20 BR          6.7042    3.4401   -0.4390 Br      1  UNL1       -0.0502
     21 C           4.4762    1.8423    0.4477 C.ar    1  UNL1       -0.0223
     22 C           3.7203    0.7177    0.6075 C.ar    1  UNL1        0.0673
     23 N           2.5430    0.3976    1.2029 N.ar    1  UNL1       -0.3414
     24 N          -0.0639   -2.6503   -0.4192 N.ar    1  UNL1       -0.3104
     25 H          -2.8176   -1.7801   -2.0615 H       1  UNL1        0.0706
     26 H          -2.0431    1.9285    0.3333 H       1  UNL1        0.0487
     27 H          -2.6508    0.8246    1.6418 H       1  UNL1        0.0487
     28 H          -4.8149    1.7181    1.5900 H       1  UNL1        0.0575
     29 H          -3.8182    3.1130    1.1315 H       1  UNL1        0.0575
     30 H          -5.9258    0.5624   -0.2886 H       1  UNL1        0.0575
     31 H          -5.7651    1.3190   -1.9014 H       1  UNL1        0.0575
     32 H          -4.5023   -0.8632   -1.3795 H       1  UNL1        0.0487
     33 H          -3.7211    0.4157   -2.3692 H       1  UNL1        0.0487
     34 H           0.7367   -1.3004    2.4875 H       1  UNL1        0.0422
     35 H           1.4083   -2.7338    1.6848 H       1  UNL1        0.0422
     36 H           5.7556   -1.4082   -1.0709 H       1  UNL1        0.0640
     37 H           7.0761    0.6554   -1.3260 H       1  UNL1        0.0629
     38 H           4.1304    2.7787    0.8721 H       1  UNL1        0.0650
     39 H           1.9631    1.1019    1.7050 H       1  UNL1        0.1671
     40 H           0.6872   -3.3857   -0.4271 H       1  UNL1        0.1700
@<TRIPOS>BOND
     1     1     2    2
     2     2     3   ar
     3     3     4   ar
     4     4     5    1
     5     5     6    1
     6     6     7    1
     7     7     8    1
     8     8     9    1
     9     9    10    1
    10     4    11   ar
    11    11    12   ar
    12    12    13    1
    13    13    14    1
    14    14    15   ar
    15    15    16   ar
    16    16    17   ar
    17    17    18   ar
    18    18    19   ar
    19    19    20    1
    20    19    21   ar
    21    21    22   ar
    22    22    23   ar
    23    12    24   ar
    24    24     2   ar
    25    10     5    1
    26    23    14   ar
    27    22    16   ar
    28     3    25    1
    29     6    26    1
    30     6    27    1
    31     7    28    1
    32     7    29    1
    33     9    30    1
    34     9    31    1
    35    10    32    1
    36    10    33    1
    37    13    34    1
    38    13    35    1
    39    17    36    1
    40    18    37    1
    41    21    38    1
    42    23    39    1
    43    24    40    1
