
     RDKit          3D

 40 43  0  0  0  0  0  0  0  0999 V2000
   -1.0904   -3.6205   -2.2157 O   0  0  0  0  0  0  0  0  0  0  0  0
   -1.0385   -2.7132   -1.3396 C   0  0  0  0  0  0  0  0  0  0  0  0
   -2.0221   -1.7552   -1.3338 C   0  0  0  0  0  0  0  0  0  0  0  0
   -1.9766   -0.7705   -0.3924 C   0  0  0  0  0  0  0  0  0  0  0  0
   -2.9922    0.2280   -0.3771 N   0  0  0  0  0  0  0  0  0  0  0  0
   -2.8897    1.2659    0.6393 C   0  0  0  0  0  0  0  0  0  0  0  0
   -4.1209    2.0953    0.7887 C   0  0  0  0  0  0  0  0  0  0  0  0
   -4.7971    2.2745   -0.4210 O   0  0  0  0  0  0  0  0  0  0  0  0
   -5.2032    1.0825   -0.9680 C   0  0  0  0  0  0  0  0  0  0  0  0
   -4.0658    0.1788   -1.3483 C   0  0  0  0  0  0  0  0  0  0  0  0
   -0.9609   -0.7602    0.5161 N   0  0  0  0  0  0  0  0  0  0  0  0
    0.0097   -1.6925    0.5224 C   0  0  0  0  0  0  0  0  0  0  0  0
    1.1191   -1.6832    1.5130 C   0  0  0  0  0  0  0  0  0  0  0  0
    2.2864   -0.9037    1.0345 C   0  0  0  0  0  0  0  0  0  0  0  0
    3.2984   -1.4349    0.3273 N   0  0  0  0  0  0  0  0  0  0  0  0
    4.1788   -0.4600    0.0601 C   0  0  0  0  0  0  0  0  0  0  0  0
    5.3773   -0.5025   -0.6353 C   0  0  0  0  0  0  0  0  0  0  0  0
    6.1304    0.6474   -0.7873 C   0  0  0  0  0  0  0  0  0  0  0  0
    5.6790    1.8307   -0.2427 C   0  0  0  0  0  0  0  0  0  0  0  0
    6.7042    3.4401   -0.4390 Br  0  0  0  0  0  0  0  0  0  0  0  0
    4.4762    1.8423    0.4477 C   0  0  0  0  0  0  0  0  0  0  0  0
    3.7203    0.7177    0.6075 C   0  0  0  0  0  0  0  0  0  0  0  0
    2.5430    0.3976    1.2029 N   0  0  0  0  0  0  0  0  0  0  0  0
   -0.0639   -2.6503   -0.4192 N   0  0  0  0  0  0  0  0  0  0  0  0
   -2.8176   -1.7801   -2.0615 H   0  0  0  0  0  0  0  0  0  0  0  0
   -2.0431    1.9285    0.3333 H   0  0  0  0  0  0  0  0  0  0  0  0
   -2.6508    0.8246    1.6418 H   0  0  0  0  0  0  0  0  0  0  0  0
   -4.8149    1.7181    1.5900 H   0  0  0  0  0  0  0  0  0  0  0  0
   -3.8182    3.1130    1.1315 H   0  0  0  0  0  0  0  0  0  0  0  0
   -5.9258    0.5624   -0.2886 H   0  0  0  0  0  0  0  0  0  0  0  0
   -5.7651    1.3190   -1.9014 H   0  0  0  0  0  0  0  0  0  0  0  0
   -4.5023   -0.8632   -1.3795 H   0  0  0  0  0  0  0  0  0  0  0  0
   -3.7211    0.4157   -2.3692 H   0  0  0  0  0  0  0  0  0  0  0  0
    0.7367   -1.3004    2.4875 H   0  0  0  0  0  0  0  0  0  0  0  0
    1.4083   -2.7338    1.6848 H   0  0  0  0  0  0  0  0  0  0  0  0
    5.7556   -1.4082   -1.0709 H   0  0  0  0  0  0  0  0  0  0  0  0
    7.0761    0.6554   -1.3260 H   0  0  0  0  0  0  0  0  0  0  0  0
    4.1304    2.7787    0.8721 H   0  0  0  0  0  0  0  0  0  0  0  0
    1.9631    1.1019    1.7050 H   0  0  0  0  0  0  0  0  0  0  0  0
    0.6872   -3.3857   -0.4271 H   0  0  0  0  0  0  0  0  0  0  0  0
  1  2  2  0
  2  3  1  0
  3  4  2  0
  4  5  1  0
  5  6  1  0
  6  7  1  0
  7  8  1  0
  8  9  1  0
  9 10  1  0
  4 11  1  0
 11 12  2  0
 12 13  1  0
 13 14  1  0
 14 15  2  0
 15 16  1  0
 16 17  2  0
 17 18  1  0
 18 19  2  0
 19 20  1  0
 19 21  1  0
 21 22  2  0
 22 23  1  0
 12 24  1  0
 24  2  1  0
 10  5  1  0
 23 14  1  0
 22 16  1  0
  3 25  1  0
  6 26  1  0
  6 27  1  0
  7 28  1  0
  7 29  1  0
  9 30  1  0
  9 31  1  0
 10 32  1  0
 10 33  1  0
 13 34  1  0
 13 35  1  0
 17 36  1  0
 18 37  1  0
 21 38  1  0
 23 39  1  0
 24 40  1  0
M  END
$$$$
