@<TRIPOS>MOLECULE
*****
 71 73 0 0 0
SMALL
GASTEIGER

@<TRIPOS>ATOM
      1 C           1.4011    5.6822    0.7675 C.3     1  UNL1       -0.0652
      2 C           1.5473    5.0604   -0.6077 C.3     1  UNL1       -0.0544
      3 C           1.1147    3.5848   -0.5434 C.3     1  UNL1       -0.0357
      4 C           1.2620    2.9987   -1.8807 C.3     1  UNL1        0.0350
      5 N           0.8310    1.5912   -1.9983 N.pl3   1  UNL1       -0.2027
      6 C           1.8904    0.6682   -1.9020 C.ar    1  UNL1        0.0547
      7 C           2.4971    0.3413   -3.1376 C.ar    1  UNL1       -0.0388
      8 C           3.5136   -0.5746   -3.2378 C.ar    1  UNL1       -0.0594
      9 C           3.9654   -1.2001   -2.1193 C.ar    1  UNL1       -0.0537
     10 C           3.4107   -0.9194   -0.8909 C.ar    1  UNL1       -0.0132
     11 C           3.9117   -1.6546    0.2538 C.ar    1  UNL1       -0.0176
     12 C           5.2282   -1.4821    0.6918 C.ar    1  UNL1       -0.0538
     13 C           5.7600   -2.1692    1.7372 C.ar    1  UNL1       -0.0583
     14 C           4.9832   -3.0914    2.4204 C.ar    1  UNL1       -0.0504
     15 C           5.5398   -3.8611    3.5734 C.3     1  UNL1       -0.0397
     16 C           3.6890   -3.2872    2.0192 C.ar    1  UNL1       -0.0583
     17 C           3.1574   -2.5704    0.9390 C.ar    1  UNL1       -0.0538
     18 C           2.3715    0.0248   -0.8126 C.ar    1  UNL1       -0.0202
     19 C           1.9376    0.3110    0.5822 C.3     1  UNL1       -0.0373
     20 S          -0.7937    1.3339   -2.3015 S.O2    1  UNL1        0.0750
     21 O          -0.8313    0.6022   -3.6837 O.2     1  UNL1       -0.1498
     22 O          -1.4424    2.7104   -2.5652 O.2     1  UNL1       -0.1498
     23 C          -1.8332    0.5031   -1.2572 C.ar    1  UNL1        0.1121
     24 C          -1.5688   -0.2609   -0.1693 C.ar    1  UNL1       -0.0313
     25 C          -2.5414   -0.9217    0.5829 C.ar    1  UNL1       -0.0178
     26 C          -3.8579   -0.8271    0.2443 C.ar    1  UNL1        0.1249
     27 O          -4.9023   -1.4362    0.9146 O.3     1  UNL1       -0.4776
     28 C          -4.8038   -2.2474    2.0439 C.3     1  UNL1        0.1931
     29 C          -5.3534   -3.6226    1.6464 C.3     1  UNL1       -0.0172
     30 C          -5.6279   -1.7635    3.1770 C.2     1  UNL1        0.3456
     31 O          -5.6430   -2.3896    4.2638 O.2     1  UNL1       -0.2468
     32 O          -6.3993   -0.6166    3.0718 O.3     1  UNL1       -0.4781
     33 C          -4.1685   -0.0624   -0.8541 C.ar    1  UNL1       -0.0040
     34 C          -5.6148    0.0876   -1.2841 C.3     1  UNL1       -0.0359
     35 C          -3.2089    0.5857   -1.5902 C.ar    1  UNL1       -0.0175
     36 C          -3.6653    1.3900   -2.7630 C.3     1  UNL1       -0.0375
     37 H           0.7850    6.6054    0.6815 H       1  UNL1        0.0230
     38 H           0.8501    4.9858    1.4160 H       1  UNL1        0.0230
     39 H           2.3906    5.8842    1.2214 H       1  UNL1        0.0230
     40 H           0.9040    5.6083   -1.3372 H       1  UNL1        0.0263
     41 H           2.6069    5.0812   -0.9378 H       1  UNL1        0.0263
     42 H           0.1308    3.4958   -0.0948 H       1  UNL1        0.0281
     43 H           1.8820    3.1267    0.1319 H       1  UNL1        0.0281
     44 H           0.5923    3.5594   -2.5976 H       1  UNL1        0.0482
     45 H           2.2823    3.1175   -2.3191 H       1  UNL1        0.0482
     46 H           2.1530    0.8254   -4.0330 H       1  UNL1        0.0637
     47 H           3.9847   -0.8291   -4.1898 H       1  UNL1        0.0618
     48 H           4.7660   -1.9213   -2.2041 H       1  UNL1        0.0624
     49 H           5.8222   -0.7674    0.1583 H       1  UNL1        0.0624
     50 H           6.7834   -2.0444    2.0885 H       1  UNL1        0.0620
     51 H           4.8093   -4.0456    4.3626 H       1  UNL1        0.0278
     52 H           6.4181   -3.3558    4.0044 H       1  UNL1        0.0278
     53 H           5.9043   -4.8490    3.1685 H       1  UNL1        0.0278
     54 H           3.0599   -3.9999    2.5334 H       1  UNL1        0.0620
     55 H           2.1390   -2.7760    0.6464 H       1  UNL1        0.0624
     56 H           1.6126   -0.6085    1.1011 H       1  UNL1        0.0278
     57 H           2.8388    0.6715    1.1547 H       1  UNL1        0.0278
     58 H           1.1281    1.0365    0.6636 H       1  UNL1        0.0278
     59 H          -0.5627   -0.3901    0.1186 H       1  UNL1        0.0638
     60 H          -2.2599   -1.5094    1.4338 H       1  UNL1        0.0655
     61 H          -3.7901   -2.4077    2.4271 H       1  UNL1        0.0849
     62 H          -4.5921   -4.1928    1.0897 H       1  UNL1        0.0271
     63 H          -5.6746   -4.1146    2.5873 H       1  UNL1        0.0271
     64 H          -6.2294   -3.4389    0.9977 H       1  UNL1        0.0271
     65 H          -7.2245   -0.4563    3.6201 H       1  UNL1        0.2952
     66 H          -5.7942    1.1601   -1.3932 H       1  UNL1        0.0279
     67 H          -5.8156   -0.4361   -2.2298 H       1  UNL1        0.0279
     68 H          -6.2767   -0.3452   -0.4989 H       1  UNL1        0.0279
     69 H          -3.7307    2.4428   -2.4155 H       1  UNL1        0.0278
     70 H          -2.9805    1.3550   -3.6095 H       1  UNL1        0.0278
     71 H          -4.6678    1.0151   -3.0767 H       1  UNL1        0.0278
@<TRIPOS>BOND
     1     1     2    1
     2     2     3    1
     3     3     4    1
     4     4     5    1
     5     5     6    1
     6     6     7   ar
     7     7     8   ar
     8     8     9   ar
     9     9    10   ar
    10    10    11    1
    11    11    12   ar
    12    12    13   ar
    13    13    14   ar
    14    14    15    1
    15    14    16   ar
    16    16    17   ar
    17    10    18   ar
    18    18    19    1
    19     5    20    1
    20    20    21    2
    21    20    22    2
    22    20    23    1
    23    23    24   ar
    24    24    25   ar
    25    25    26   ar
    26    26    27    1
    27    27    28    1
    28    28    29    1
    29    28    30    1
    30    30    31    2
    31    30    32    1
    32    26    33   ar
    33    33    34    1
    34    33    35   ar
    35    35    36    1
    36    18     6   ar
    37    35    23   ar
    38    17    11   ar
    39     1    37    1
    40     1    38    1
    41     1    39    1
    42     2    40    1
    43     2    41    1
    44     3    42    1
    45     3    43    1
    46     4    44    1
    47     4    45    1
    48     7    46    1
    49     8    47    1
    50     9    48    1
    51    12    49    1
    52    13    50    1
    53    15    51    1
    54    15    52    1
    55    15    53    1
    56    16    54    1
    57    17    55    1
    58    19    56    1
    59    19    57    1
    60    19    58    1
    61    24    59    1
    62    25    60    1
    63    28    61    1
    64    29    62    1
    65    29    63    1
    66    29    64    1
    67    32    65    1
    68    34    66    1
    69    34    67    1
    70    34    68    1
    71    36    69    1
    72    36    70    1
    73    36    71    1
