
     RDKit          3D

 71 73  0  0  0  0  0  0  0  0999 V2000
    1.4011    5.6822    0.7675 C   0  0  0  0  0  0  0  0  0  0  0  0
    1.5473    5.0604   -0.6077 C   0  0  0  0  0  0  0  0  0  0  0  0
    1.1147    3.5848   -0.5434 C   0  0  0  0  0  0  0  0  0  0  0  0
    1.2620    2.9987   -1.8807 C   0  0  0  0  0  0  0  0  0  0  0  0
    0.8310    1.5912   -1.9983 N   0  0  0  0  0  0  0  0  0  0  0  0
    1.8904    0.6682   -1.9020 C   0  0  0  0  0  0  0  0  0  0  0  0
    2.4971    0.3413   -3.1376 C   0  0  0  0  0  0  0  0  0  0  0  0
    3.5136   -0.5746   -3.2378 C   0  0  0  0  0  0  0  0  0  0  0  0
    3.9654   -1.2001   -2.1193 C   0  0  0  0  0  0  0  0  0  0  0  0
    3.4107   -0.9194   -0.8909 C   0  0  0  0  0  0  0  0  0  0  0  0
    3.9117   -1.6546    0.2538 C   0  0  0  0  0  0  0  0  0  0  0  0
    5.2282   -1.4821    0.6918 C   0  0  0  0  0  0  0  0  0  0  0  0
    5.7600   -2.1692    1.7372 C   0  0  0  0  0  0  0  0  0  0  0  0
    4.9832   -3.0914    2.4204 C   0  0  0  0  0  0  0  0  0  0  0  0
    5.5398   -3.8611    3.5734 C   0  0  0  0  0  0  0  0  0  0  0  0
    3.6890   -3.2872    2.0192 C   0  0  0  0  0  0  0  0  0  0  0  0
    3.1574   -2.5704    0.9390 C   0  0  0  0  0  0  0  0  0  0  0  0
    2.3715    0.0248   -0.8126 C   0  0  0  0  0  0  0  0  0  0  0  0
    1.9376    0.3110    0.5822 C   0  0  0  0  0  0  0  0  0  0  0  0
   -0.7937    1.3339   -2.3015 S   0  0  0  0  0  6  0  0  0  0  0  0
   -0.8313    0.6022   -3.6837 O   0  0  0  0  0  0  0  0  0  0  0  0
   -1.4424    2.7104   -2.5652 O   0  0  0  0  0  0  0  0  0  0  0  0
   -1.8332    0.5031   -1.2572 C   0  0  0  0  0  0  0  0  0  0  0  0
   -1.5688   -0.2609   -0.1693 C   0  0  0  0  0  0  0  0  0  0  0  0
   -2.5414   -0.9217    0.5829 C   0  0  0  0  0  0  0  0  0  0  0  0
   -3.8579   -0.8271    0.2443 C   0  0  0  0  0  0  0  0  0  0  0  0
   -4.9023   -1.4362    0.9146 O   0  0  0  0  0  0  0  0  0  0  0  0
   -4.8038   -2.2474    2.0439 C   0  0  0  0  0  0  0  0  0  0  0  0
   -5.3534   -3.6226    1.6464 C   0  0  0  0  0  0  0  0  0  0  0  0
   -5.6279   -1.7635    3.1770 C   0  0  0  0  0  0  0  0  0  0  0  0
   -5.6430   -2.3896    4.2638 O   0  0  0  0  0  0  0  0  0  0  0  0
   -6.3993   -0.6166    3.0718 O   0  0  0  0  0  0  0  0  0  0  0  0
   -4.1685   -0.0624   -0.8541 C   0  0  0  0  0  0  0  0  0  0  0  0
   -5.6148    0.0876   -1.2841 C   0  0  0  0  0  0  0  0  0  0  0  0
   -3.2089    0.5857   -1.5902 C   0  0  0  0  0  0  0  0  0  0  0  0
   -3.6653    1.3900   -2.7630 C   0  0  0  0  0  0  0  0  0  0  0  0
    0.7850    6.6054    0.6815 H   0  0  0  0  0  0  0  0  0  0  0  0
    0.8501    4.9858    1.4160 H   0  0  0  0  0  0  0  0  0  0  0  0
    2.3906    5.8842    1.2214 H   0  0  0  0  0  0  0  0  0  0  0  0
    0.9040    5.6083   -1.3372 H   0  0  0  0  0  0  0  0  0  0  0  0
    2.6069    5.0812   -0.9378 H   0  0  0  0  0  0  0  0  0  0  0  0
    0.1308    3.4958   -0.0948 H   0  0  0  0  0  0  0  0  0  0  0  0
    1.8820    3.1267    0.1319 H   0  0  0  0  0  0  0  0  0  0  0  0
    0.5923    3.5594   -2.5976 H   0  0  0  0  0  0  0  0  0  0  0  0
    2.2823    3.1175   -2.3191 H   0  0  0  0  0  0  0  0  0  0  0  0
    2.1530    0.8254   -4.0330 H   0  0  0  0  0  0  0  0  0  0  0  0
    3.9847   -0.8291   -4.1898 H   0  0  0  0  0  0  0  0  0  0  0  0
    4.7660   -1.9213   -2.2041 H   0  0  0  0  0  0  0  0  0  0  0  0
    5.8222   -0.7674    0.1583 H   0  0  0  0  0  0  0  0  0  0  0  0
    6.7834   -2.0444    2.0885 H   0  0  0  0  0  0  0  0  0  0  0  0
    4.8093   -4.0456    4.3626 H   0  0  0  0  0  0  0  0  0  0  0  0
    6.4181   -3.3558    4.0044 H   0  0  0  0  0  0  0  0  0  0  0  0
    5.9043   -4.8490    3.1685 H   0  0  0  0  0  0  0  0  0  0  0  0
    3.0599   -3.9999    2.5334 H   0  0  0  0  0  0  0  0  0  0  0  0
    2.1390   -2.7760    0.6464 H   0  0  0  0  0  0  0  0  0  0  0  0
    1.6126   -0.6085    1.1011 H   0  0  0  0  0  0  0  0  0  0  0  0
    2.8388    0.6715    1.1547 H   0  0  0  0  0  0  0  0  0  0  0  0
    1.1281    1.0365    0.6636 H   0  0  0  0  0  0  0  0  0  0  0  0
   -0.5627   -0.3901    0.1186 H   0  0  0  0  0  0  0  0  0  0  0  0
   -2.2599   -1.5094    1.4338 H   0  0  0  0  0  0  0  0  0  0  0  0
   -3.7901   -2.4077    2.4271 H   0  0  0  0  0  0  0  0  0  0  0  0
   -4.5921   -4.1928    1.0897 H   0  0  0  0  0  0  0  0  0  0  0  0
   -5.6746   -4.1146    2.5873 H   0  0  0  0  0  0  0  0  0  0  0  0
   -6.2294   -3.4389    0.9977 H   0  0  0  0  0  0  0  0  0  0  0  0
   -7.2245   -0.4563    3.6201 H   0  0  0  0  0  0  0  0  0  0  0  0
   -5.7942    1.1601   -1.3932 H   0  0  0  0  0  0  0  0  0  0  0  0
   -5.8156   -0.4361   -2.2298 H   0  0  0  0  0  0  0  0  0  0  0  0
   -6.2767   -0.3452   -0.4989 H   0  0  0  0  0  0  0  0  0  0  0  0
   -3.7307    2.4428   -2.4155 H   0  0  0  0  0  0  0  0  0  0  0  0
   -2.9805    1.3550   -3.6095 H   0  0  0  0  0  0  0  0  0  0  0  0
   -4.6678    1.0151   -3.0767 H   0  0  0  0  0  0  0  0  0  0  0  0
  1  2  1  0
  2  3  1  0
  3  4  1  0
  4  5  1  0
  5  6  1  0
  6  7  2  0
  7  8  1  0
  8  9  2  0
  9 10  1  0
 10 11  1  0
 11 12  2  0
 12 13  1  0
 13 14  2  0
 14 15  1  0
 14 16  1  0
 16 17  2  0
 10 18  2  0
 18 19  1  0
  5 20  1  0
 20 21  2  0
 20 22  2  0
 20 23  1  0
 23 24  2  0
 24 25  1  0
 25 26  2  0
 26 27  1  0
 27 28  1  0
 28 29  1  0
 28 30  1  0
 30 31  2  0
 30 32  1  0
 26 33  1  0
 33 34  1  0
 33 35  2  0
 35 36  1  0
 18  6  1  0
 35 23  1  0
 17 11  1  0
  1 37  1  0
  1 38  1  0
  1 39  1  0
  2 40  1  0
  2 41  1  0
  3 42  1  0
  3 43  1  0
  4 44  1  0
  4 45  1  0
  7 46  1  0
  8 47  1  0
  9 48  1  0
 12 49  1  0
 13 50  1  0
 15 51  1  0
 15 52  1  0
 15 53  1  0
 16 54  1  0
 17 55  1  0
 19 56  1  0
 19 57  1  0
 19 58  1  0
 24 59  1  0
 25 60  1  0
 28 61  1  0
 29 62  1  0
 29 63  1  0
 29 64  1  0
 32 65  1  0
 34 66  1  0
 34 67  1  0
 34 68  1  0
 36 69  1  0
 36 70  1  0
 36 71  1  0
M  END
$$$$
