
     RDKit          3D

 85 89  0  0  0  0  0  0  0  0999 V2000
   -4.5965   -0.9304   -2.7569 C   0  0  0  0  0  0  0  0  0  0  0  0
   -3.8244   -0.3645   -3.9008 C   0  0  0  0  0  0  0  0  0  0  0  0
   -2.3557   -0.2773   -3.7630 C   0  0  0  0  0  0  0  0  0  0  0  0
   -1.7696    0.5832   -2.7155 C   0  0  0  0  0  0  0  0  0  0  0  0
   -2.0542    0.3254   -1.3352 N   0  0  0  0  0  0  0  0  0  0  0  0
   -3.1850    0.9519   -0.6836 C   0  0  0  0  0  0  0  0  0  0  0  0
   -3.7749    1.8585   -1.3045 O   0  0  0  0  0  0  0  0  0  0  0  0
   -3.6602    0.5534    0.6907 C   0  0  1  0  0  0  0  0  0  0  0  0
   -5.1252    0.8121    0.7020 C   0  0  2  0  0  0  0  0  0  0  0  0
   -5.2467    2.1830    0.2572 O   0  0  0  0  0  0  0  0  0  0  0  0
   -5.8638    0.7604    1.9882 C   0  0  0  0  0  0  0  0  0  0  0  0
   -7.3316    1.1208    1.6935 C   0  0  0  0  0  0  0  0  0  0  0  0
   -8.1655   -0.1036    1.4581 C   0  0  0  0  0  0  0  0  0  0  0  0
   -8.1976   -1.0621    2.5988 C   0  0  0  0  0  0  0  0  0  0  0  0
   -7.1143   -0.6854    3.5886 C   0  0  0  0  0  0  0  0  0  0  0  0
   -5.8297   -0.5308    2.7546 C   0  0  0  0  0  0  0  0  0  0  0  0
   -3.2457   -0.7533    1.0213 N   0  0  0  0  0  0  0  0  0  0  0  0
   -2.2005   -1.4224    0.2525 C   0  0  0  0  0  0  0  0  0  0  0  0
   -2.1100   -2.6554    0.1896 O   0  0  0  0  0  0  0  0  0  0  0  0
   -1.2505   -0.5045   -0.4510 C   0  0  0  0  0  0  0  0  0  0  0  0
   -0.6702    0.4124    0.6178 C   0  0  0  0  0  0  0  0  0  0  0  0
    0.8548    0.4399    0.5618 C   0  0  0  0  0  0  0  0  0  0  0  0
    1.1969    0.6277   -0.8162 N   0  0  0  0  0  0  0  0  0  0  0  0
    2.4360    1.2909   -1.0610 C   0  0  0  0  0  0  0  0  0  0  0  0
    3.6203    0.6183   -0.4944 C   0  0  0  0  0  0  0  0  0  0  0  0
    4.0842    0.9017    0.7650 C   0  0  0  0  0  0  0  0  0  0  0  0
    5.1913    0.2593    1.2740 C   0  0  0  0  0  0  0  0  0  0  0  0
    5.8482   -0.6884    0.5046 C   0  0  0  0  0  0  0  0  0  0  0  0
    6.9466   -1.3187    1.0237 O   0  0  0  0  0  0  0  0  0  0  0  0
    8.2287   -0.8461    0.8452 C   0  0  0  0  0  0  0  0  0  0  0  0
    9.3220   -1.5019    1.4045 C   0  0  0  0  0  0  0  0  0  0  0  0
   10.6005   -1.0235    1.2209 C   0  0  0  0  0  0  0  0  0  0  0  0
   10.8582    0.1087    0.4871 C   0  0  0  0  0  0  0  0  0  0  0  0
   12.2354    0.5845    0.3146 C   0  0  0  0  0  0  0  0  0  0  0  0
   13.1839   -0.0325    0.8328 O   0  0  0  0  0  0  0  0  0  0  0  0
   12.5007    1.7272   -0.4277 O   0  0  0  0  0  0  0  0  0  0  0  0
    9.7886    0.7660   -0.0706 C   0  0  0  0  0  0  0  0  0  0  0  0
    8.4969    0.2891    0.1108 C   0  0  0  0  0  0  0  0  0  0  0  0
    5.3761   -0.9656   -0.7551 C   0  0  0  0  0  0  0  0  0  0  0  0
    4.2772   -0.3217   -1.2495 C   0  0  0  0  0  0  0  0  0  0  0  0
    1.0593   -0.6278   -1.4853 C   0  0  0  0  0  0  0  0  0  0  0  0
   -0.2003   -1.3286   -1.1034 C   0  0  0  0  0  0  0  0  0  0  0  0
   -5.2686   -0.1251   -2.3857 H   0  0  0  0  0  0  0  0  0  0  0  0
   -4.0009   -1.4331   -1.9792 H   0  0  0  0  0  0  0  0  0  0  0  0
   -5.3133   -1.7433   -3.1022 H   0  0  0  0  0  0  0  0  0  0  0  0
   -4.2818    0.6122   -4.2653 H   0  0  0  0  0  0  0  0  0  0  0  0
   -4.0335   -1.0485   -4.7846 H   0  0  0  0  0  0  0  0  0  0  0  0
   -1.9591    0.0417   -4.8005 H   0  0  0  0  0  0  0  0  0  0  0  0
   -1.9849   -1.3558   -3.7268 H   0  0  0  0  0  0  0  0  0  0  0  0
   -0.6685    0.7566   -2.8721 H   0  0  0  0  0  0  0  0  0  0  0  0
   -2.1854    1.6376   -2.9373 H   0  0  0  0  0  0  0  0  0  0  0  0
   -3.1299    1.2423    1.4337 H   0  0  0  0  0  0  0  0  0  0  0  0
   -5.5828    0.1911   -0.0956 H   0  0  0  0  0  0  0  0  0  0  0  0
   -4.5991    2.6637    0.8498 H   0  0  0  0  0  0  0  0  0  0  0  0
   -5.4906    1.5635    2.6507 H   0  0  0  0  0  0  0  0  0  0  0  0
   -7.3284    1.7277    0.7717 H   0  0  0  0  0  0  0  0  0  0  0  0
   -7.7186    1.7549    2.5120 H   0  0  0  0  0  0  0  0  0  0  0  0
   -9.2126    0.2647    1.2886 H   0  0  0  0  0  0  0  0  0  0  0  0
   -7.8985   -0.6266    0.5175 H   0  0  0  0  0  0  0  0  0  0  0  0
   -9.1649   -1.0120    3.1378 H   0  0  0  0  0  0  0  0  0  0  0  0
   -8.0459   -2.1188    2.2948 H   0  0  0  0  0  0  0  0  0  0  0  0
   -7.3091    0.2900    4.0448 H   0  0  0  0  0  0  0  0  0  0  0  0
   -6.9094   -1.5040    4.3069 H   0  0  0  0  0  0  0  0  0  0  0  0
   -5.8786   -1.3675    2.0361 H   0  0  0  0  0  0  0  0  0  0  0  0
   -5.0206   -0.6035    3.4972 H   0  0  0  0  0  0  0  0  0  0  0  0
   -3.6483   -1.2793    1.8116 H   0  0  0  0  0  0  0  0  0  0  0  0
   -0.9874    1.4547    0.4245 H   0  0  0  0  0  0  0  0  0  0  0  0
   -1.0267    0.1405    1.6271 H   0  0  0  0  0  0  0  0  0  0  0  0
    1.1877   -0.5565    0.9385 H   0  0  0  0  0  0  0  0  0  0  0  0
    1.2206    1.2221    1.2303 H   0  0  0  0  0  0  0  0  0  0  0  0
    2.5186    1.4427   -2.1623 H   0  0  0  0  0  0  0  0  0  0  0  0
    2.3580    2.3173   -0.6304 H   0  0  0  0  0  0  0  0  0  0  0  0
    3.5906    1.6481    1.4084 H   0  0  0  0  0  0  0  0  0  0  0  0
    5.5305    0.5095    2.2757 H   0  0  0  0  0  0  0  0  0  0  0  0
    9.1098   -2.3838    1.9759 H   0  0  0  0  0  0  0  0  0  0  0  0
   11.4343   -1.5512    1.6660 H   0  0  0  0  0  0  0  0  0  0  0  0
   13.3013    1.7214   -1.0778 H   0  0  0  0  0  0  0  0  0  0  0  0
    9.9654    1.6545   -0.6495 H   0  0  0  0  0  0  0  0  0  0  0  0
    7.6626    0.8349   -0.3466 H   0  0  0  0  0  0  0  0  0  0  0  0
    5.9038   -1.7146   -1.3511 H   0  0  0  0  0  0  0  0  0  0  0  0
    3.9433   -0.5840   -2.2663 H   0  0  0  0  0  0  0  0  0  0  0  0
    1.2540   -0.5944   -2.5858 H   0  0  0  0  0  0  0  0  0  0  0  0
    1.9138   -1.2728   -1.1039 H   0  0  0  0  0  0  0  0  0  0  0  0
   -0.5923   -1.8419   -1.9901 H   0  0  0  0  0  0  0  0  0  0  0  0
    0.0114   -2.1784   -0.3705 H   0  0  0  0  0  0  0  0  0  0  0  0
  1  2  1  0
  2  3  1  0
  3  4  1  0
  4  5  1  0
  5  6  1  0
  6  7  2  0
  6  8  1  0
  8  9  1  0
  9 10  1  0
  9 11  1  0
 11 12  1  0
 12 13  1  0
 13 14  1  0
 14 15  1  0
 15 16  1  0
  8 17  1  0
 17 18  1  0
 18 19  2  0
 18 20  1  0
 20 21  1  0
 21 22  1  0
 22 23  1  0
 23 24  1  0
 24 25  1  0
 25 26  2  0
 26 27  1  0
 27 28  2  0
 28 29  1  0
 29 30  1  0
 30 31  2  0
 31 32  1  0
 32 33  2  0
 33 34  1  0
 34 35  2  0
 34 36  1  0
 33 37  1  0
 37 38  2  0
 28 39  1  0
 39 40  2  0
 23 41  1  0
 41 42  1  0
 20  5  1  0
 40 25  1  0
 16 11  1  0
 42 20  1  0
 38 30  1  0
  1 43  1  0
  1 44  1  0
  1 45  1  0
  2 46  1  0
  2 47  1  0
  3 48  1  0
  3 49  1  0
  4 50  1  0
  4 51  1  0
  8 52  1  1
  9 53  1  6
 10 54  1  0
 11 55  1  0
 12 56  1  0
 12 57  1  0
 13 58  1  0
 13 59  1  0
 14 60  1  0
 14 61  1  0
 15 62  1  0
 15 63  1  0
 16 64  1  0
 16 65  1  0
 17 66  1  0
 21 67  1  0
 21 68  1  0
 22 69  1  0
 22 70  1  0
 24 71  1  0
 24 72  1  0
 26 73  1  0
 27 74  1  0
 31 75  1  0
 32 76  1  0
 36 77  1  0
 37 78  1  0
 38 79  1  0
 39 80  1  0
 40 81  1  0
 41 82  1  0
 41 83  1  0
 42 84  1  0
 42 85  1  0
M  END
$$$$
