@<TRIPOS>MOLECULE
*****
 85 89 0 0 0
SMALL
GASTEIGER

@<TRIPOS>ATOM
      1 C          -4.5965   -0.9304   -2.7569 C.3     1  UNL1       -0.0652
      2 C          -3.8244   -0.3645   -3.9008 C.3     1  UNL1       -0.0545
      3 C          -2.3557   -0.2773   -3.7630 C.3     1  UNL1       -0.0374
      4 C          -1.7696    0.5832   -2.7155 C.3     1  UNL1        0.0158
      5 N          -2.0542    0.3254   -1.3352 N.am    1  UNL1       -0.2855
      6 C          -3.1850    0.9519   -0.6836 C.2     1  UNL1        0.2393
      7 O          -3.7749    1.8585   -1.3045 O.2     1  UNL1       -0.2734
      8 C          -3.6602    0.5534    0.6907 C.3     1  UNL1        0.1259
      9 C          -5.1252    0.8121    0.7020 C.3     1  UNL1        0.0848
     10 O          -5.2467    2.1830    0.2572 O.3     1  UNL1       -0.3892
     11 C          -5.8638    0.7604    1.9882 C.3     1  UNL1       -0.0127
     12 C          -7.3316    1.1208    1.6935 C.3     1  UNL1       -0.0478
     13 C          -8.1655   -0.1036    1.4581 C.3     1  UNL1       -0.0527
     14 C          -8.1976   -1.0621    2.5988 C.3     1  UNL1       -0.0530
     15 C          -7.1143   -0.6854    3.5886 C.3     1  UNL1       -0.0527
     16 C          -5.8297   -0.5308    2.7546 C.3     1  UNL1       -0.0478
     17 N          -3.2457   -0.7533    1.0213 N.am    1  UNL1       -0.3001
     18 C          -2.2005   -1.4224    0.2525 C.2     1  UNL1        0.2375
     19 O          -2.1100   -2.6554    0.1896 O.2     1  UNL1       -0.2734
     20 C          -1.2505   -0.5045   -0.4510 C.3     1  UNL1        0.1156
     21 C          -0.6702    0.4124    0.6178 C.3     1  UNL1       -0.0100
     22 C           0.8548    0.4399    0.5618 C.3     1  UNL1        0.0016
     23 N           1.1969    0.6277   -0.8162 N.3     1  UNL1       -0.2980
     24 C           2.4360    1.2909   -1.0610 C.3     1  UNL1        0.0240
     25 C           3.6203    0.6183   -0.4944 C.ar    1  UNL1       -0.0331
     26 C           4.0842    0.9017    0.7650 C.ar    1  UNL1       -0.0539
     27 C           5.1913    0.2593    1.2740 C.ar    1  UNL1       -0.0190
     28 C           5.8482   -0.6884    0.5046 C.ar    1  UNL1        0.1285
     29 O           6.9466   -1.3187    1.0237 O.3     1  UNL1       -0.4560
     30 C           8.2287   -0.8461    0.8452 C.ar    1  UNL1        0.1285
     31 C           9.3220   -1.5019    1.4045 C.ar    1  UNL1       -0.0186
     32 C          10.6005   -1.0235    1.2209 C.ar    1  UNL1       -0.0443
     33 C          10.8582    0.1087    0.4871 C.ar    1  UNL1        0.0591
     34 C          12.2354    0.5845    0.3146 C.2     1  UNL1        0.3368
     35 O          13.1839   -0.0325    0.8328 O.2     1  UNL1       -0.2451
     36 O          12.5007    1.7272   -0.4277 O.3     1  UNL1       -0.4771
     37 C           9.7886    0.7660   -0.0706 C.ar    1  UNL1       -0.0443
     38 C           8.4969    0.2891    0.1108 C.ar    1  UNL1       -0.0186
     39 C           5.3761   -0.9656   -0.7551 C.ar    1  UNL1       -0.0190
     40 C           4.2772   -0.3217   -1.2495 C.ar    1  UNL1       -0.0539
     41 C           1.0593   -0.6278   -1.4853 C.3     1  UNL1        0.0016
     42 C          -0.2003   -1.3286   -1.1034 C.3     1  UNL1       -0.0100
     43 H          -5.2686   -0.1251   -2.3857 H       1  UNL1        0.0230
     44 H          -4.0009   -1.4331   -1.9792 H       1  UNL1        0.0230
     45 H          -5.3133   -1.7433   -3.1022 H       1  UNL1        0.0230
     46 H          -4.2818    0.6122   -4.2653 H       1  UNL1        0.0263
     47 H          -4.0335   -1.0485   -4.7846 H       1  UNL1        0.0263
     48 H          -1.9591    0.0417   -4.8005 H       1  UNL1        0.0280
     49 H          -1.9849   -1.3558   -3.7268 H       1  UNL1        0.0280
     50 H          -0.6685    0.7566   -2.8721 H       1  UNL1        0.0465
     51 H          -2.1854    1.6376   -2.9373 H       1  UNL1        0.0465
     52 H          -3.1299    1.2423    1.4337 H       1  UNL1        0.0621
     53 H          -5.5828    0.1911   -0.0956 H       1  UNL1        0.0619
     54 H          -4.5991    2.6637    0.8498 H       1  UNL1        0.2099
     55 H          -5.4906    1.5635    2.6507 H       1  UNL1        0.0326
     56 H          -7.3284    1.7277    0.7717 H       1  UNL1        0.0269
     57 H          -7.7186    1.7549    2.5120 H       1  UNL1        0.0269
     58 H          -9.2126    0.2647    1.2886 H       1  UNL1        0.0265
     59 H          -7.8985   -0.6266    0.5175 H       1  UNL1        0.0265
     60 H          -9.1649   -1.0120    3.1378 H       1  UNL1        0.0265
     61 H          -8.0459   -2.1188    2.2948 H       1  UNL1        0.0265
     62 H          -7.3091    0.2900    4.0448 H       1  UNL1        0.0265
     63 H          -6.9094   -1.5040    4.3069 H       1  UNL1        0.0265
     64 H          -5.8786   -1.3675    2.0361 H       1  UNL1        0.0269
     65 H          -5.0206   -0.6035    3.4972 H       1  UNL1        0.0269
     66 H          -3.6483   -1.2793    1.8116 H       1  UNL1        0.1496
     67 H          -0.9874    1.4547    0.4245 H       1  UNL1        0.0303
     68 H          -1.0267    0.1405    1.6271 H       1  UNL1        0.0303
     69 H           1.1877   -0.5565    0.9385 H       1  UNL1        0.0427
     70 H           1.2206    1.2221    1.2303 H       1  UNL1        0.0427
     71 H           2.5186    1.4427   -2.1623 H       1  UNL1        0.0476
     72 H           2.3580    2.3173   -0.6304 H       1  UNL1        0.0476
     73 H           3.5906    1.6481    1.4084 H       1  UNL1        0.0622
     74 H           5.5305    0.5095    2.2757 H       1  UNL1        0.0654
     75 H           9.1098   -2.3838    1.9759 H       1  UNL1        0.0654
     76 H          11.4343   -1.5512    1.6660 H       1  UNL1        0.0627
     77 H          13.3013    1.7214   -1.0778 H       1  UNL1        0.2954
     78 H           9.9654    1.6545   -0.6495 H       1  UNL1        0.0627
     79 H           7.6626    0.8349   -0.3466 H       1  UNL1        0.0654
     80 H           5.9038   -1.7146   -1.3511 H       1  UNL1        0.0654
     81 H           3.9433   -0.5840   -2.2663 H       1  UNL1        0.0622
     82 H           1.2540   -0.5944   -2.5858 H       1  UNL1        0.0427
     83 H           1.9138   -1.2728   -1.1039 H       1  UNL1        0.0427
     84 H          -0.5923   -1.8419   -1.9901 H       1  UNL1        0.0303
     85 H           0.0114   -2.1784   -0.3705 H       1  UNL1        0.0303
@<TRIPOS>BOND
     1     1     2    1
     2     2     3    1
     3     3     4    1
     4     4     5    1
     5     5     6   am
     6     6     7    2
     7     6     8    1
     8     8     9    1
     9     9    10    1
    10     9    11    1
    11    11    12    1
    12    12    13    1
    13    13    14    1
    14    14    15    1
    15    15    16    1
    16     8    17    1
    17    17    18   am
    18    18    19    2
    19    18    20    1
    20    20    21    1
    21    21    22    1
    22    22    23    1
    23    23    24    1
    24    24    25    1
    25    25    26   ar
    26    26    27   ar
    27    27    28   ar
    28    28    29    1
    29    29    30    1
    30    30    31   ar
    31    31    32   ar
    32    32    33   ar
    33    33    34    1
    34    34    35    2
    35    34    36    1
    36    33    37   ar
    37    37    38   ar
    38    28    39   ar
    39    39    40   ar
    40    23    41    1
    41    41    42    1
    42    20     5    1
    43    40    25   ar
    44    16    11    1
    45    42    20    1
    46    38    30   ar
    47     1    43    1
    48     1    44    1
    49     1    45    1
    50     2    46    1
    51     2    47    1
    52     3    48    1
    53     3    49    1
    54     4    50    1
    55     4    51    1
    56     8    52    1
    57     9    53    1
    58    10    54    1
    59    11    55    1
    60    12    56    1
    61    12    57    1
    62    13    58    1
    63    13    59    1
    64    14    60    1
    65    14    61    1
    66    15    62    1
    67    15    63    1
    68    16    64    1
    69    16    65    1
    70    17    66    1
    71    21    67    1
    72    21    68    1
    73    22    69    1
    74    22    70    1
    75    24    71    1
    76    24    72    1
    77    26    73    1
    78    27    74    1
    79    31    75    1
    80    32    76    1
    81    36    77    1
    82    37    78    1
    83    38    79    1
    84    39    80    1
    85    40    81    1
    86    41    82    1
    87    41    83    1
    88    42    84    1
    89    42    85    1
