@<TRIPOS>MOLECULE
*****
 51 56 0 0 0
SMALL
GASTEIGER

@<TRIPOS>ATOM
      1 C           1.6092    0.8047   -0.8285 C.3     1  UNL1        0.1143
      2 C           2.0379    0.5086    0.6376 C.3     1  UNL1        0.0363
      3 N           2.0424   -0.9369    0.4404 N.3     1  UNL1       -0.2943
      4 C           1.9478   -1.7400    1.5669 C.3     1  UNL1        0.0189
      5 C           1.2439   -3.0316    1.2248 C.3     1  UNL1        0.0559
      6 N          -0.0706   -2.8000    0.7119 N.ar    1  UNL1       -0.2501
      7 N          -0.6616   -1.6341    0.6092 N.ar    1  UNL1       -0.2934
      8 C          -1.8782   -1.6960    0.0686 C.ar    1  UNL1        0.0770
      9 C          -2.7356   -0.6798   -0.1850 C.ar    1  UNL1        0.0311
     10 C          -3.9675   -0.8827   -0.7581 C.ar    1  UNL1       -0.0503
     11 C          -4.2486   -2.2243   -1.0526 C.ar    1  UNL1       -0.0603
     12 C          -3.3503   -3.2502   -0.7844 C.ar    1  UNL1       -0.0473
     13 C          -2.1181   -3.0207   -0.2086 C.ar    1  UNL1        0.0661
     14 C          -0.9785   -3.6763    0.2021 C.ar    1  UNL1        0.2748
     15 O          -0.8954   -4.9404    0.0733 O.2     1  UNL1       -0.2656
     16 C          -2.4191    0.7180    0.0835 C.ar    1  UNL1        0.1379
     17 N          -1.2375    1.1766   -0.2722 N.ar    1  UNL1       -0.2360
     18 C          -0.8027    2.4107   -0.1175 C.ar    1  UNL1        0.1295
     19 C          -1.7388    3.2174    0.4773 C.ar    1  UNL1        0.0713
     20 N          -2.9561    2.8062    0.8605 N.ar    1  UNL1       -0.3190
     21 C          -3.3640    1.5177    0.6811 C.ar    1  UNL1        0.2754
     22 O          -4.4661    1.0039    0.9917 O.2     1  UNL1       -0.2656
     23 C          -1.5048    4.5715    0.7450 C.ar    1  UNL1       -0.0360
     24 C          -0.2704    5.0884    0.3841 C.ar    1  UNL1       -0.0562
     25 C           0.6633    4.2488   -0.2179 C.ar    1  UNL1       -0.0177
     26 C           0.4199    2.9073   -0.4783 C.ar    1  UNL1        0.1482
     27 O           1.4215    2.1332   -1.0878 O.3     1  UNL1       -0.4853
     28 C           3.0724   -1.0807   -0.5120 C.3     1  UNL1        0.0112
     29 C           4.4674   -0.8831    0.0232 C.3     1  UNL1       -0.0494
     30 C           2.7732    0.0986   -1.4882 C.3     1  UNL1        0.0009
     31 H           0.7311    0.1542   -1.0256 H       1  UNL1        0.0746
     32 H           1.3339    0.8802    1.3631 H       1  UNL1        0.0463
     33 H           3.0453    0.9324    0.7399 H       1  UNL1        0.0463
     34 H           2.9261   -1.9740    2.0634 H       1  UNL1        0.0445
     35 H           1.3146   -1.2821    2.3877 H       1  UNL1        0.0445
     36 H           1.8385   -3.4619    0.3652 H       1  UNL1        0.0522
     37 H           1.2625   -3.7558    2.0618 H       1  UNL1        0.0522
     38 H          -0.3938   -0.6764    0.8792 H       1  UNL1        0.1871
     39 H          -4.6579   -0.0806   -0.9708 H       1  UNL1        0.0625
     40 H          -5.2045   -2.4804   -1.5086 H       1  UNL1        0.0618
     41 H          -3.5679   -4.2910   -1.0132 H       1  UNL1        0.0626
     42 H          -3.6740    3.4309    1.3185 H       1  UNL1        0.1690
     43 H          -2.2420    5.2214    1.2170 H       1  UNL1        0.0639
     44 H          -0.0253    6.1369    0.5653 H       1  UNL1        0.0619
     45 H           1.6205    4.7252   -0.4774 H       1  UNL1        0.0655
     46 H           2.9797   -2.0457   -1.0153 H       1  UNL1        0.0461
     47 H           4.5071   -0.7833    1.1255 H       1  UNL1        0.0245
     48 H           5.1051   -1.7791   -0.2238 H       1  UNL1        0.0245
     49 H           4.9445    0.0116   -0.4205 H       1  UNL1        0.0245
     50 H           3.6390    0.7597   -1.5617 H       1  UNL1        0.0316
     51 H           2.4819   -0.3771   -2.4471 H       1  UNL1        0.0316
@<TRIPOS>BOND
     1     1     2    1
     2     2     3    1
     3     3     4    1
     4     4     5    1
     5     5     6    1
     6     6     7   ar
     7     7     8   ar
     8     8     9   ar
     9     9    10   ar
    10    10    11   ar
    11    11    12   ar
    12    12    13   ar
    13    13    14   ar
    14    14    15    2
    15     9    16    1
    16    16    17   ar
    17    17    18   ar
    18    18    19   ar
    19    19    20   ar
    20    20    21   ar
    21    21    22    2
    22    19    23   ar
    23    23    24   ar
    24    24    25   ar
    25    25    26   ar
    26    26    27    1
    27     3    28    1
    28    28    29    1
    29    28    30    1
    30    27     1    1
    31    30     1    1
    32    14     6   ar
    33    21    16   ar
    34    13     8   ar
    35    26    18   ar
    36     1    31    1
    37     2    32    1
    38     2    33    1
    39     4    34    1
    40     4    35    1
    41     5    36    1
    42     5    37    1
    43     7    38    1
    44    10    39    1
    45    11    40    1
    46    12    41    1
    47    20    42    1
    48    23    43    1
    49    24    44    1
    50    25    45    1
    51    28    46    1
    52    29    47    1
    53    29    48    1
    54    29    49    1
    55    30    50    1
    56    30    51    1
