@<TRIPOS>MOLECULE
*****
 70 74 0 0 0
SMALL
GASTEIGER

@<TRIPOS>ATOM
      1 C          -0.4758    2.9778    1.3385 C.3     1  UNL1       -0.0421
      2 C          -0.2610    2.2463    0.0345 C.3     1  UNL1        0.0515
      3 C           1.0838    1.6048   -0.0097 C.ar    1  UNL1       -0.0271
      4 C           1.4765    0.7955   -1.0546 C.ar    1  UNL1       -0.0562
      5 C           2.7220    0.2003   -1.1023 C.ar    1  UNL1       -0.0537
      6 C           3.6398    0.3925   -0.0924 C.ar    1  UNL1       -0.0177
      7 C           4.9656   -0.2171   -0.1013 C.ar    1  UNL1       -0.0114
      8 C           5.1761   -1.4382   -0.6780 C.ar    1  UNL1       -0.0376
      9 C           6.4506   -1.9542   -0.6504 C.ar    1  UNL1        0.0088
     10 N           7.4983   -1.3292   -0.0907 N.ar    1  UNL1       -0.3121
     11 C           8.8376   -1.8716   -0.0613 C.3     1  UNL1        0.0375
     12 C           9.6277   -2.0575   -1.2870 C.3     1  UNL1       -0.0301
     13 C           9.9218   -0.8720   -0.3807 C.3     1  UNL1       -0.0301
     14 C           7.3035   -0.1306    0.4780 C.ar    1  UNL1        0.2521
     15 O           8.2611    0.4986    1.0191 O.2     1  UNL1       -0.2677
     16 C           6.0526    0.4194    0.4733 C.ar    1  UNL1        0.0107
     17 C           3.2554    1.2003    0.9565 C.ar    1  UNL1       -0.0537
     18 C           2.0097    1.7922    0.9985 C.ar    1  UNL1       -0.0562
     19 N          -1.3336    1.3854   -0.3279 N.am    1  UNL1       -0.2605
     20 C          -2.1923    1.5955   -1.5025 C.3     1  UNL1        0.0224
     21 C          -3.6070    1.6290   -0.9102 C.3     1  UNL1        0.0076
     22 C          -3.9918    0.2308   -0.3761 C.3     1  UNL1        0.1440
     23 C          -4.5103   -0.5268   -1.5302 C.3     1  UNL1        0.0199
     24 C          -4.9429   -1.9258   -1.3253 C.3     1  UNL1        0.0645
     25 C          -3.7869   -2.7969   -0.8096 C.3     1  UNL1       -0.0362
     26 C          -6.1843   -2.1790   -0.5643 C.3     1  UNL1       -0.0362
     27 O          -5.1771   -2.4523   -2.6269 O.3     1  UNL1       -0.3890
     28 C          -4.9171    0.5173    0.7210 C.ar    1  UNL1       -0.0040
     29 C          -6.2741    0.7418    0.5572 C.ar    1  UNL1       -0.0548
     30 C          -7.0888    1.0040    1.6330 C.ar    1  UNL1       -0.0614
     31 C          -6.5971    1.0563    2.9218 C.ar    1  UNL1       -0.0617
     32 C          -5.2460    0.8331    3.0866 C.ar    1  UNL1       -0.0614
     33 C          -4.4239    0.5691    2.0071 C.ar    1  UNL1       -0.0548
     34 O          -2.8408   -0.4119    0.1639 O.3     1  UNL1       -0.4387
     35 C          -1.6513    0.2385    0.4461 C.2     1  UNL1        0.4042
     36 O          -0.8307   -0.1029    1.3303 O.2     1  UNL1       -0.2262
     37 H           0.3140    3.7856    1.3678 H       1  UNL1        0.0251
     38 H          -0.3265    2.3686    2.2229 H       1  UNL1        0.0251
     39 H          -1.4375    3.5279    1.3226 H       1  UNL1        0.0251
     40 H          -0.2287    3.0683   -0.7437 H       1  UNL1        0.0549
     41 H           0.7478    0.6410   -1.8594 H       1  UNL1        0.0621
     42 H           3.0234   -0.4307   -1.9208 H       1  UNL1        0.0624
     43 H           4.3787   -2.0103   -1.1537 H       1  UNL1        0.0638
     44 H           6.6358   -2.9182   -1.1012 H       1  UNL1        0.0810
     45 H           9.0279   -2.5684    0.7854 H       1  UNL1        0.0529
     46 H           9.1646   -1.8492   -2.2727 H       1  UNL1        0.0286
     47 H          10.3971   -2.8593   -1.2700 H       1  UNL1        0.0286
     48 H           9.6651    0.1043   -0.8143 H       1  UNL1        0.0286
     49 H          10.8288   -0.9114    0.2534 H       1  UNL1        0.0286
     50 H           5.9390    1.4047    0.9513 H       1  UNL1        0.0678
     51 H           3.9831    1.3561    1.7633 H       1  UNL1        0.0624
     52 H           1.7513    2.4154    1.8356 H       1  UNL1        0.0621
     53 H          -2.1166    0.7557   -2.1971 H       1  UNL1        0.0467
     54 H          -2.0321    2.5788   -1.9503 H       1  UNL1        0.0467
     55 H          -4.3447    1.9870   -1.6268 H       1  UNL1        0.0322
     56 H          -3.5448    2.3340   -0.0548 H       1  UNL1        0.0322
     57 H          -5.3055    0.0145   -2.0892 H       1  UNL1        0.0335
     58 H          -3.6602   -0.5733   -2.2794 H       1  UNL1        0.0335
     59 H          -2.8846   -2.5286   -1.3996 H       1  UNL1        0.0257
     60 H          -3.5793   -2.6269    0.2444 H       1  UNL1        0.0257
     61 H          -4.0709   -3.8514   -0.9904 H       1  UNL1        0.0257
     62 H          -6.4673   -3.2631   -0.7607 H       1  UNL1        0.0257
     63 H          -6.1151   -2.1221    0.5283 H       1  UNL1        0.0257
     64 H          -7.0544   -1.6028   -0.9268 H       1  UNL1        0.0257
     65 H          -4.3615   -2.3071   -3.1389 H       1  UNL1        0.2101
     66 H          -6.6303    0.6977   -0.4625 H       1  UNL1        0.0622
     67 H          -8.1496    1.1746    1.4572 H       1  UNL1        0.0618
     68 H          -7.2644    1.2664    3.7595 H       1  UNL1        0.0618
     69 H          -4.8572    0.8735    4.0947 H       1  UNL1        0.0618
     70 H          -3.3748    0.4061    2.2322 H       1  UNL1        0.0622
@<TRIPOS>BOND
     1     1     2    1
     2     2     3    1
     3     3     4   ar
     4     4     5   ar
     5     5     6   ar
     6     6     7    1
     7     7     8   ar
     8     8     9   ar
     9     9    10   ar
    10    10    11    1
    11    11    12    1
    12    12    13    1
    13    10    14   ar
    14    14    15    2
    15    14    16   ar
    16     6    17   ar
    17    17    18   ar
    18     2    19    1
    19    19    20    1
    20    20    21    1
    21    21    22    1
    22    22    23    1
    23    23    24    1
    24    24    25    1
    25    24    26    1
    26    24    27    1
    27    22    28    1
    28    28    29   ar
    29    29    30   ar
    30    30    31   ar
    31    31    32   ar
    32    32    33   ar
    33    22    34    1
    34    34    35    1
    35    35    36    2
    36    18     3   ar
    37    35    19   am
    38    16     7   ar
    39    33    28   ar
    40    13    11    1
    41     1    37    1
    42     1    38    1
    43     1    39    1
    44     2    40    1
    45     4    41    1
    46     5    42    1
    47     8    43    1
    48     9    44    1
    49    11    45    1
    50    12    46    1
    51    12    47    1
    52    13    48    1
    53    13    49    1
    54    16    50    1
    55    17    51    1
    56    18    52    1
    57    20    53    1
    58    20    54    1
    59    21    55    1
    60    21    56    1
    61    23    57    1
    62    23    58    1
    63    25    59    1
    64    25    60    1
    65    25    61    1
    66    26    62    1
    67    26    63    1
    68    26    64    1
    69    27    65    1
    70    29    66    1
    71    30    67    1
    72    31    68    1
    73    32    69    1
    74    33    70    1
