@<TRIPOS>MOLECULE
*****
 52 54 0 0 0
SMALL
GASTEIGER

@<TRIPOS>ATOM
      1 C           5.9061    0.7042   -0.2434 C.3     1  UNL1        0.0563
      2 N           5.4986    0.8839    1.1267 N.pl3   1  UNL1       -0.2613
      3 C           4.2196    1.4230    1.5343 C.3     1  UNL1        0.0923
      4 C           3.0715    0.6154    1.0493 C.ar    1  UNL1       -0.0139
      5 C           2.5255   -0.4351    1.7522 C.ar    1  UNL1       -0.0549
      6 C           1.4590   -1.1697    1.2830 C.ar    1  UNL1       -0.0493
      7 C           0.8883   -0.8627    0.0530 C.ar    1  UNL1        0.0370
      8 C          -0.2305   -1.6035   -0.4806 C.2     1  UNL1        0.2483
      9 O          -0.6893   -2.5599    0.2103 O.2     1  UNL1       -0.2699
     10 N          -0.8659   -1.3543   -1.7170 N.am    1  UNL1       -0.2808
     11 C          -1.9640   -2.1162   -2.1920 C.ar    1  UNL1        0.0459
     12 C          -1.8534   -3.2497   -2.9577 C.ar    1  UNL1       -0.0384
     13 C          -2.9403   -3.9651   -3.4012 C.ar    1  UNL1       -0.0416
     14 C          -4.1790   -3.5403   -3.0731 C.ar    1  UNL1        0.0418
     15 CL         -5.5743   -4.4506   -3.6371 Cl      1  UNL1       -0.0835
     16 C          -4.3478   -2.4078   -2.3061 C.ar    1  UNL1       -0.0295
     17 C          -3.2493   -1.6973   -1.8664 C.ar    1  UNL1        0.0596
     18 C          -3.4266   -0.4896   -1.0526 C.2     1  UNL1        0.2511
     19 O          -2.3800    0.1055   -0.6980 O.2     1  UNL1       -0.2697
     20 N          -4.6501    0.0505   -0.6419 N.am    1  UNL1       -0.2663
     21 C          -4.8838    1.2033    0.1370 C.ar    1  UNL1        0.1252
     22 C          -3.9514    2.0513    0.6634 C.ar    1  UNL1       -0.0201
     23 C          -4.3011    3.1777    1.4298 C.ar    1  UNL1       -0.0387
     24 C          -5.6237    3.4573    1.6723 C.ar    1  UNL1        0.0592
     25 CL         -6.1215    4.8514    2.6239 Cl      1  UNL1       -0.0820
     26 C          -6.5488    2.5902    1.1329 C.ar    1  UNL1        0.0480
     27 N          -6.1829    1.5264    0.4075 N.ar    1  UNL1       -0.2387
     28 C           1.4255    0.1810   -0.6526 C.ar    1  UNL1       -0.0493
     29 C           2.5119    0.9259   -0.1700 C.ar    1  UNL1       -0.0549
     30 C           6.4113    0.5073    2.1495 C.cat   1  UNL1        0.3786
     31 N           6.4573   -0.6875    2.6358 N.pl3   1  UNL1       -0.1296
     32 N           7.2918    1.5292    2.6244 N.pl3   1  UNL1       -0.2891
     33 H           5.9902   -0.4022   -0.4040 H       1  UNL1        0.0620
     34 H           6.9019    1.1918   -0.4449 H       1  UNL1        0.0620
     35 H           5.2149    1.0983   -0.9865 H       1  UNL1        0.0620
     36 H           4.1211    1.5013    2.6212 H       1  UNL1        0.0708
     37 H           4.1442    2.4840    1.1520 H       1  UNL1        0.0708
     38 H           2.9724   -0.6690    2.7070 H       1  UNL1        0.0621
     39 H           1.0203   -1.9924    1.8163 H       1  UNL1        0.0625
     40 H          -0.4705   -0.5477   -2.2877 H       1  UNL1        0.1552
     41 H          -0.8698   -3.6051   -3.2304 H       1  UNL1        0.0637
     42 H          -2.8141   -4.8454   -3.9973 H       1  UNL1        0.0633
     43 H          -5.3614   -2.0847   -2.0542 H       1  UNL1        0.0640
     44 H          -5.5094   -0.4929   -0.9690 H       1  UNL1        0.1566
     45 H          -2.8982    1.8483    0.4833 H       1  UNL1        0.0652
     46 H          -3.5331    3.8112    1.8201 H       1  UNL1        0.0634
     47 H          -7.5933    2.8261    1.3342 H       1  UNL1        0.0845
     48 H           1.0686    0.5111   -1.6155 H       1  UNL1        0.0625
     49 H           2.9248    1.7549   -0.7475 H       1  UNL1        0.0621
     50 H           5.7859   -1.3825    2.2427 H       1  UNL1        0.3062
     51 H           7.1802    1.8219    3.6058 H       1  UNL1        0.2547
     52 H           8.0223    1.9790    2.0366 H       1  UNL1        0.2547
@<TRIPOS>BOND
     1     1     2    1
     2     2     3    1
     3     3     4    1
     4     4     5   ar
     5     5     6   ar
     6     6     7   ar
     7     7     8    1
     8     8     9    2
     9     8    10   am
    10    10    11    1
    11    11    12   ar
    12    12    13   ar
    13    13    14   ar
    14    14    15    1
    15    14    16   ar
    16    16    17   ar
    17    17    18    1
    18    18    19    2
    19    18    20   am
    20    20    21    1
    21    21    22   ar
    22    22    23   ar
    23    23    24   ar
    24    24    25    1
    25    24    26   ar
    26    26    27   ar
    27     7    28   ar
    28    28    29   ar
    29     2    30    1
    30    30    31    2
    31    30    32    1
    32    29     4   ar
    33    17    11   ar
    34    27    21   ar
    35     1    33    1
    36     1    34    1
    37     1    35    1
    38     3    36    1
    39     3    37    1
    40     5    38    1
    41     6    39    1
    42    10    40    1
    43    12    41    1
    44    13    42    1
    45    16    43    1
    46    20    44    1
    47    22    45    1
    48    23    46    1
    49    26    47    1
    50    28    48    1
    51    29    49    1
    52    31    50    1
    53    32    51    1
    54    32    52    1
