
     RDKit          3D

 52 54  0  0  0  0  0  0  0  0999 V2000
    5.9061    0.7042   -0.2434 C   0  0  0  0  0  0  0  0  0  0  0  0
    5.4986    0.8839    1.1267 N   0  0  0  0  0  0  0  0  0  0  0  0
    4.2196    1.4230    1.5343 C   0  0  0  0  0  0  0  0  0  0  0  0
    3.0715    0.6154    1.0493 C   0  0  0  0  0  0  0  0  0  0  0  0
    2.5255   -0.4351    1.7522 C   0  0  0  0  0  0  0  0  0  0  0  0
    1.4590   -1.1697    1.2830 C   0  0  0  0  0  0  0  0  0  0  0  0
    0.8883   -0.8627    0.0530 C   0  0  0  0  0  0  0  0  0  0  0  0
   -0.2305   -1.6035   -0.4806 C   0  0  0  0  0  0  0  0  0  0  0  0
   -0.6893   -2.5599    0.2103 O   0  0  0  0  0  0  0  0  0  0  0  0
   -0.8659   -1.3543   -1.7170 N   0  0  0  0  0  0  0  0  0  0  0  0
   -1.9640   -2.1162   -2.1920 C   0  0  0  0  0  0  0  0  0  0  0  0
   -1.8534   -3.2497   -2.9577 C   0  0  0  0  0  0  0  0  0  0  0  0
   -2.9403   -3.9651   -3.4012 C   0  0  0  0  0  0  0  0  0  0  0  0
   -4.1790   -3.5403   -3.0731 C   0  0  0  0  0  0  0  0  0  0  0  0
   -5.5743   -4.4506   -3.6371 Cl  0  0  0  0  0  0  0  0  0  0  0  0
   -4.3478   -2.4078   -2.3061 C   0  0  0  0  0  0  0  0  0  0  0  0
   -3.2493   -1.6973   -1.8664 C   0  0  0  0  0  0  0  0  0  0  0  0
   -3.4266   -0.4896   -1.0526 C   0  0  0  0  0  0  0  0  0  0  0  0
   -2.3800    0.1055   -0.6980 O   0  0  0  0  0  0  0  0  0  0  0  0
   -4.6501    0.0505   -0.6419 N   0  0  0  0  0  0  0  0  0  0  0  0
   -4.8838    1.2033    0.1370 C   0  0  0  0  0  0  0  0  0  0  0  0
   -3.9514    2.0513    0.6634 C   0  0  0  0  0  0  0  0  0  0  0  0
   -4.3011    3.1777    1.4298 C   0  0  0  0  0  0  0  0  0  0  0  0
   -5.6237    3.4573    1.6723 C   0  0  0  0  0  0  0  0  0  0  0  0
   -6.1215    4.8514    2.6239 Cl  0  0  0  0  0  0  0  0  0  0  0  0
   -6.5488    2.5902    1.1329 C   0  0  0  0  0  0  0  0  0  0  0  0
   -6.1829    1.5264    0.4075 N   0  0  0  0  0  0  0  0  0  0  0  0
    1.4255    0.1810   -0.6526 C   0  0  0  0  0  0  0  0  0  0  0  0
    2.5119    0.9259   -0.1700 C   0  0  0  0  0  0  0  0  0  0  0  0
    6.4113    0.5073    2.1495 C   0  0  0  0  0  0  0  0  0  0  0  0
    6.4573   -0.6875    2.6358 N   0  0  0  0  0  0  0  0  0  0  0  0
    7.2918    1.5292    2.6244 N   0  0  0  0  0  0  0  0  0  0  0  0
    5.9902   -0.4022   -0.4040 H   0  0  0  0  0  0  0  0  0  0  0  0
    6.9019    1.1918   -0.4449 H   0  0  0  0  0  0  0  0  0  0  0  0
    5.2149    1.0983   -0.9865 H   0  0  0  0  0  0  0  0  0  0  0  0
    4.1211    1.5013    2.6212 H   0  0  0  0  0  0  0  0  0  0  0  0
    4.1442    2.4840    1.1520 H   0  0  0  0  0  0  0  0  0  0  0  0
    2.9724   -0.6690    2.7070 H   0  0  0  0  0  0  0  0  0  0  0  0
    1.0203   -1.9924    1.8163 H   0  0  0  0  0  0  0  0  0  0  0  0
   -0.4705   -0.5477   -2.2877 H   0  0  0  0  0  0  0  0  0  0  0  0
   -0.8698   -3.6051   -3.2304 H   0  0  0  0  0  0  0  0  0  0  0  0
   -2.8141   -4.8454   -3.9973 H   0  0  0  0  0  0  0  0  0  0  0  0
   -5.3614   -2.0847   -2.0542 H   0  0  0  0  0  0  0  0  0  0  0  0
   -5.5094   -0.4929   -0.9690 H   0  0  0  0  0  0  0  0  0  0  0  0
   -2.8982    1.8483    0.4833 H   0  0  0  0  0  0  0  0  0  0  0  0
   -3.5331    3.8112    1.8201 H   0  0  0  0  0  0  0  0  0  0  0  0
   -7.5933    2.8261    1.3342 H   0  0  0  0  0  0  0  0  0  0  0  0
    1.0686    0.5111   -1.6155 H   0  0  0  0  0  0  0  0  0  0  0  0
    2.9248    1.7549   -0.7475 H   0  0  0  0  0  0  0  0  0  0  0  0
    5.7859   -1.3825    2.2427 H   0  0  0  0  0  0  0  0  0  0  0  0
    7.1802    1.8219    3.6058 H   0  0  0  0  0  0  0  0  0  0  0  0
    8.0223    1.9790    2.0366 H   0  0  0  0  0  0  0  0  0  0  0  0
  1  2  1  0
  2  3  1  0
  3  4  1  0
  4  5  2  0
  5  6  1  0
  6  7  2  0
  7  8  1  0
  8  9  2  0
  8 10  1  0
 10 11  1  0
 11 12  2  0
 12 13  1  0
 13 14  2  0
 14 15  1  0
 14 16  1  0
 16 17  2  0
 17 18  1  0
 18 19  2  0
 18 20  1  0
 20 21  1  0
 21 22  2  0
 22 23  1  0
 23 24  2  0
 24 25  1  0
 24 26  1  0
 26 27  2  0
  7 28  1  0
 28 29  2  0
  2 30  1  0
 30 31  2  3
 30 32  1  0
 29  4  1  0
 17 11  1  0
 27 21  1  0
  1 33  1  0
  1 34  1  0
  1 35  1  0
  3 36  1  0
  3 37  1  0
  5 38  1  0
  6 39  1  0
 10 40  1  0
 12 41  1  0
 13 42  1  0
 16 43  1  0
 20 44  1  0
 22 45  1  0
 23 46  1  0
 26 47  1  0
 28 48  1  0
 29 49  1  0
 31 50  1  0
 32 51  1  0
 32 52  1  0
M  END
$$$$
