@<TRIPOS>MOLECULE
*****
 41 43 0 0 0
SMALL
GASTEIGER

@<TRIPOS>ATOM
      1 O          -2.1871   -1.4896    1.7839 O.2     1  UNL1       -0.2524
      2 C          -1.9578   -0.5737    0.8587 C.2     1  UNL1        0.3050
      3 N          -3.0174   -0.4218   -0.0378 N.am    1  UNL1       -0.2811
      4 C          -4.2157   -1.2713    0.1600 C.3     1  UNL1        0.0396
      5 C          -5.4773   -0.4707    0.0290 C.3     1  UNL1        0.0635
      6 O          -5.2586    0.7636   -0.5928 O.3     1  UNL1       -0.3767
      7 C          -4.4258    0.6197   -1.6981 C.3     1  UNL1        0.0635
      8 C          -2.9953    0.5085   -1.1313 C.3     1  UNL1        0.0396
      9 N          -0.7208    0.0771    0.9284 N.am    1  UNL1       -0.2825
     10 C          -0.2563    1.0878    0.0569 C.3     1  UNL1        0.0319
     11 C           1.2339    1.3805    0.2455 C.3     1  UNL1        0.0281
     12 N           2.0032    0.2129    0.5757 N.pl3   1  UNL1       -0.3269
     13 C           3.3589    0.0860    0.2188 C.ar    1  UNL1        0.0298
     14 C           4.0427   -1.0911    0.3855 C.ar    1  UNL1       -0.0397
     15 C           5.3896   -1.1904    0.0302 C.ar    1  UNL1       -0.0469
     16 C           6.0289   -0.0918   -0.4915 C.ar    1  UNL1        0.0135
     17 I           8.0797   -0.2536   -1.0293 I       1  UNL1       -0.0438
     18 C           5.3617    1.1012   -0.6679 C.ar    1  UNL1       -0.0469
     19 C           4.0288    1.1646   -0.3054 C.ar    1  UNL1       -0.0397
     20 C           1.4055   -0.9002    1.3126 C.3     1  UNL1        0.0281
     21 C           0.1856   -0.3316    2.0131 C.3     1  UNL1        0.0319
     22 H          -4.1820   -1.7136    1.1647 H       1  UNL1        0.0488
     23 H          -4.1905   -2.0855   -0.5797 H       1  UNL1        0.0488
     24 H          -6.2456   -1.0502   -0.5314 H       1  UNL1        0.0575
     25 H          -5.8813   -0.2423    1.0320 H       1  UNL1        0.0575
     26 H          -4.4564    1.5383   -2.2844 H       1  UNL1        0.0575
     27 H          -4.6435   -0.3015   -2.2562 H       1  UNL1        0.0575
     28 H          -2.3876    0.1747   -1.9976 H       1  UNL1        0.0488
     29 H          -2.6955    1.5003   -0.8010 H       1  UNL1        0.0488
     30 H          -0.7617    2.0536    0.3189 H       1  UNL1        0.0480
     31 H          -0.4321    0.8399   -0.9902 H       1  UNL1        0.0480
     32 H           1.3456    2.1248    1.0561 H       1  UNL1        0.0479
     33 H           1.5671    1.7957   -0.7270 H       1  UNL1        0.0479
     34 H           3.5567   -1.9901    0.7999 H       1  UNL1        0.0636
     35 H           5.8927   -2.1187    0.1721 H       1  UNL1        0.0628
     36 H           5.9284    1.9190   -1.0823 H       1  UNL1        0.0628
     37 H           3.5294    2.1121   -0.4510 H       1  UNL1        0.0636
     38 H           2.1257   -1.3078    2.0558 H       1  UNL1        0.0479
     39 H           1.0675   -1.6266    0.5593 H       1  UNL1        0.0479
     40 H           0.5009    0.5795    2.5336 H       1  UNL1        0.0480
     41 H          -0.2444   -1.1174    2.6473 H       1  UNL1        0.0480
@<TRIPOS>BOND
     1     1     2    2
     2     2     3   am
     3     3     4    1
     4     4     5    1
     5     5     6    1
     6     6     7    1
     7     7     8    1
     8     2     9   am
     9     9    10    1
    10    10    11    1
    11    11    12    1
    12    12    13    1
    13    13    14   ar
    14    14    15   ar
    15    15    16   ar
    16    16    17    1
    17    16    18   ar
    18    18    19   ar
    19    12    20    1
    20    20    21    1
    21     8     3    1
    22    21     9    1
    23    19    13   ar
    24     4    22    1
    25     4    23    1
    26     5    24    1
    27     5    25    1
    28     7    26    1
    29     7    27    1
    30     8    28    1
    31     8    29    1
    32    10    30    1
    33    10    31    1
    34    11    32    1
    35    11    33    1
    36    14    34    1
    37    15    35    1
    38    18    36    1
    39    19    37    1
    40    20    38    1
    41    20    39    1
    42    21    40    1
    43    21    41    1
