@<TRIPOS>MOLECULE
*****
 56 59 0 0 0
SMALL
GASTEIGER

@<TRIPOS>ATOM
      1 C          -2.8718   -0.3078   -3.2992 C.3     1  UNL1       -0.0489
      2 C          -3.9743   -0.9633   -2.4954 C.3     1  UNL1        0.0172
      3 N          -3.8762   -0.4460   -1.1434 N.pl3   1  UNL1       -0.2682
      4 C          -2.6352   -0.7133   -0.5073 C.ar    1  UNL1        0.1388
      5 N          -1.8776   -1.6109   -1.1423 N.ar    1  UNL1       -0.2389
      6 C          -0.6695   -1.9968   -0.6979 C.ar    1  UNL1        0.0330
      7 C          -0.1659   -1.4640    0.4540 C.ar    1  UNL1       -0.0252
      8 C           1.1809   -1.8616    0.9932 C.3     1  UNL1        0.0081
      9 C           2.1816   -0.9253    0.3988 C.3     1  UNL1        0.0936
     10 O           3.5026   -1.1927    0.8287 O.3     1  UNL1       -0.4914
     11 C           4.5982   -0.4693    0.4217 C.ar    1  UNL1        0.1234
     12 C           4.5742    0.5985   -0.4447 C.ar    1  UNL1       -0.0189
     13 C           5.6993    1.2905   -0.8216 C.ar    1  UNL1       -0.0443
     14 C           6.9324    0.9243   -0.3261 C.ar    1  UNL1        0.0593
     15 C           8.1310    1.6449   -0.7142 C.2     1  UNL1        0.3368
     16 O           9.2522    1.3170   -0.2679 O.2     1  UNL1       -0.2451
     17 O           8.0336    2.7045   -1.5859 O.3     1  UNL1       -0.4771
     18 C           6.9737   -0.1548    0.5522 C.ar    1  UNL1       -0.0414
     19 C           5.8342   -0.8311    0.9140 C.ar    1  UNL1       -0.0080
     20 C           5.9568   -1.9833    1.8646 C.3     1  UNL1       -0.0362
     21 C          -0.8851   -0.5306    1.1701 C.ar    1  UNL1       -0.0416
     22 C          -2.1178   -0.1733    0.6658 C.ar    1  UNL1        0.0777
     23 C          -2.7841    0.8073    1.4906 C.2     1  UNL1        0.2540
     24 O          -2.0537    1.3145    2.3797 O.2     1  UNL1       -0.2695
     25 N          -4.1123    1.3123    1.4915 N.am    1  UNL1       -0.2674
     26 C          -4.5098    2.2131    2.5708 C.3     1  UNL1        0.0087
     27 C          -5.0992    1.0074    0.5129 C.ar    1  UNL1        0.0770
     28 C          -6.3191    1.5796    0.7905 C.ar    1  UNL1       -0.0327
     29 C          -7.4114    1.3918   -0.0582 C.ar    1  UNL1       -0.0054
     30 C          -7.2448    0.6147   -1.1913 C.ar    1  UNL1        0.2150
     31 F          -8.2998    0.4330   -2.0114 F       1  UNL1       -0.1838
     32 N          -6.0513    0.0737   -1.4332 N.ar    1  UNL1       -0.2019
     33 C          -4.9926    0.2439   -0.6293 C.ar    1  UNL1        0.1513
     34 H          -1.9945   -0.9775   -3.4335 H       1  UNL1        0.0245
     35 H          -3.2350   -0.0440   -4.2950 H       1  UNL1        0.0245
     36 H          -2.5103    0.6328   -2.7983 H       1  UNL1        0.0245
     37 H          -4.9594   -0.8410   -2.9438 H       1  UNL1        0.0466
     38 H          -3.7119   -2.0456   -2.4314 H       1  UNL1        0.0466
     39 H          -0.0559   -2.7269   -1.2165 H       1  UNL1        0.0833
     40 H           1.1004   -1.8184    2.0928 H       1  UNL1        0.0347
     41 H           1.3778   -2.9205    0.6844 H       1  UNL1        0.0347
     42 H           1.9377    0.1018    0.7693 H       1  UNL1        0.0700
     43 H           2.1017   -0.9807   -0.6934 H       1  UNL1        0.0700
     44 H           3.6271    0.9121   -0.8514 H       1  UNL1        0.0654
     45 H           5.6614    2.1385   -1.5127 H       1  UNL1        0.0627
     46 H           8.8180    3.3321   -1.8088 H       1  UNL1        0.2954
     47 H           7.9438   -0.4416    0.9409 H       1  UNL1        0.0629
     48 H           5.9699   -2.8983    1.2180 H       1  UNL1        0.0279
     49 H           6.8914   -1.9289    2.4494 H       1  UNL1        0.0279
     50 H           5.0419   -1.9515    2.4934 H       1  UNL1        0.0279
     51 H          -0.5228   -0.0851    2.0855 H       1  UNL1        0.0629
     52 H          -3.5818    2.3670    3.1974 H       1  UNL1        0.0433
     53 H          -5.2425    1.7574    3.2538 H       1  UNL1        0.0433
     54 H          -4.7784    3.2159    2.2079 H       1  UNL1        0.0433
     55 H          -6.4418    2.1741    1.6596 H       1  UNL1        0.0639
     56 H          -8.3362    1.8578    0.2025 H       1  UNL1        0.0663
@<TRIPOS>BOND
     1     1     2    1
     2     2     3    1
     3     3     4    1
     4     4     5   ar
     5     5     6   ar
     6     6     7   ar
     7     7     8    1
     8     8     9    1
     9     9    10    1
    10    10    11    1
    11    11    12   ar
    12    12    13   ar
    13    13    14   ar
    14    14    15    1
    15    15    16    2
    16    15    17    1
    17    14    18   ar
    18    18    19   ar
    19    19    20    1
    20     7    21   ar
    21    21    22   ar
    22    22    23    1
    23    23    24    2
    24    23    25   am
    25    25    26    1
    26    25    27    1
    27    27    28   ar
    28    28    29   ar
    29    29    30   ar
    30    30    31    1
    31    30    32   ar
    32    32    33   ar
    33    33     3    1
    34    22     4   ar
    35    33    27   ar
    36    19    11   ar
    37     1    34    1
    38     1    35    1
    39     1    36    1
    40     2    37    1
    41     2    38    1
    42     6    39    1
    43     8    40    1
    44     8    41    1
    45     9    42    1
    46     9    43    1
    47    12    44    1
    48    13    45    1
    49    17    46    1
    50    18    47    1
    51    20    48    1
    52    20    49    1
    53    20    50    1
    54    21    51    1
    55    26    52    1
    56    26    53    1
    57    26    54    1
    58    28    55    1
    59    29    56    1
