
     RDKit          3D

 64 68  0  0  0  0  0  0  0  0999 V2000
    9.2519   -2.0171    1.2054 C   0  0  0  0  0  0  0  0  0  0  0  0
    7.9126   -1.3969    1.0392 C   0  0  0  0  0  0  0  0  0  0  0  0
    7.1493   -1.1360    2.1561 C   0  0  0  0  0  0  0  0  0  0  0  0
    5.8975   -0.5553    2.0046 C   0  0  0  0  0  0  0  0  0  0  0  0
    5.3840   -0.2271    0.7727 C   0  0  0  0  0  0  0  0  0  0  0  0
    6.1492   -0.4873   -0.3681 C   0  0  0  0  0  0  0  0  0  0  0  0
    7.3892   -1.0641   -0.1935 C   0  0  0  0  0  0  0  0  0  0  0  0
    5.8225   -0.2317   -1.7694 C   0  0  0  0  0  0  0  0  0  0  0  0
    6.6990   -0.5942   -2.5916 O   0  0  0  0  0  0  0  0  0  0  0  0
    4.6721    0.3618   -2.3631 N   0  0  0  0  0  0  0  0  0  0  0  0
    4.7203    0.6818   -3.7726 C   0  0  0  0  0  0  0  0  0  0  0  0
    3.4800    0.6679   -1.6372 C   0  0  0  0  0  0  0  0  0  0  0  0
    2.4743    1.0079   -2.4958 C   0  0  0  0  0  0  0  0  0  0  0  0
    1.2946    1.3469   -2.0121 N   0  0  0  0  0  0  0  0  0  0  0  0
    1.0050    1.3812   -0.6800 C   0  0  0  0  0  0  0  0  0  0  0  0
   -0.2890    1.7584   -0.2491 N   0  0  0  0  0  0  0  0  0  0  0  0
   -1.2340    0.8845    0.3457 C   0  0  0  0  0  0  0  0  0  0  0  0
   -0.8299   -0.3575    0.7768 C   0  0  0  0  0  0  0  0  0  0  0  0
   -1.7349   -1.2512    1.3530 C   0  0  0  0  0  0  0  0  0  0  0  0
   -3.0552   -0.8456    1.4756 C   0  0  0  0  0  0  0  0  0  0  0  0
   -3.4628    0.4016    1.0422 C   0  0  0  0  0  0  0  0  0  0  0  0
   -5.1304    0.9240    1.1657 S   0  0  0  0  0  6  0  0  0  0  0  0
   -5.7546    0.4392    2.4669 O   0  0  0  0  0  0  0  0  0  0  0  0
   -5.1195    2.4358    1.2773 O   0  0  0  0  0  0  0  0  0  0  0  0
   -6.0405    0.5086   -0.2005 N   0  0  0  0  0  0  0  0  0  0  0  0
   -6.1833   -0.8614   -0.5016 C   0  0  0  0  0  0  0  0  0  0  0  0
   -7.6243   -1.2245   -0.8489 C   0  0  0  0  0  0  0  0  0  0  0  0
   -8.6064   -0.6169    0.0996 C   0  0  0  0  0  0  0  0  0  0  0  0
   -9.8835   -1.0112   -0.3460 O   0  0  0  0  0  0  0  0  0  0  0  0
   -8.4674    0.8832    0.0868 C   0  0  0  0  0  0  0  0  0  0  0  0
   -7.1375    1.3710   -0.3971 C   0  0  0  0  0  0  0  0  0  0  0  0
   -2.5691    1.2745    0.4789 C   0  0  0  0  0  0  0  0  0  0  0  0
    1.9892    1.0465    0.1666 N   0  0  0  0  0  0  0  0  0  0  0  0
    3.2235    0.6894   -0.2906 C   0  0  0  0  0  0  0  0  0  0  0  0
    4.0860    0.3601    0.7998 N   0  0  0  0  0  0  0  0  0  0  0  0
    3.5943    0.6464    2.1348 C   0  0  0  0  0  0  0  0  0  0  0  0
   10.0033   -1.1920    1.2283 H   0  0  0  0  0  0  0  0  0  0  0  0
    9.4919   -2.5848    0.2583 H   0  0  0  0  0  0  0  0  0  0  0  0
    9.3111   -2.6643    2.0890 H   0  0  0  0  0  0  0  0  0  0  0  0
    7.5454   -1.3917    3.1400 H   0  0  0  0  0  0  0  0  0  0  0  0
    5.3156   -0.3594    2.8926 H   0  0  0  0  0  0  0  0  0  0  0  0
    7.9706   -1.2592   -1.0872 H   0  0  0  0  0  0  0  0  0  0  0  0
    4.4532    1.7597   -3.9636 H   0  0  0  0  0  0  0  0  0  0  0  0
    5.8003    0.6422   -4.1097 H   0  0  0  0  0  0  0  0  0  0  0  0
    4.1915   -0.0284   -4.4108 H   0  0  0  0  0  0  0  0  0  0  0  0
    2.6422    0.9950   -3.5562 H   0  0  0  0  0  0  0  0  0  0  0  0
   -0.5407    2.7753   -0.3997 H   0  0  0  0  0  0  0  0  0  0  0  0
    0.2022   -0.6867    0.6871 H   0  0  0  0  0  0  0  0  0  0  0  0
   -1.4079   -2.2247    1.6906 H   0  0  0  0  0  0  0  0  0  0  0  0
   -3.7617   -1.5382    1.9228 H   0  0  0  0  0  0  0  0  0  0  0  0
   -5.5935   -1.0949   -1.4368 H   0  0  0  0  0  0  0  0  0  0  0  0
   -5.7954   -1.4503    0.3567 H   0  0  0  0  0  0  0  0  0  0  0  0
   -7.6687   -2.3122   -0.9043 H   0  0  0  0  0  0  0  0  0  0  0  0
   -7.7896   -0.7979   -1.8678 H   0  0  0  0  0  0  0  0  0  0  0  0
   -8.4811   -1.0543    1.1209 H   0  0  0  0  0  0  0  0  0  0  0  0
  -10.1374   -1.8432    0.1141 H   0  0  0  0  0  0  0  0  0  0  0  0
   -8.7041    1.2653    1.1050 H   0  0  0  0  0  0  0  0  0  0  0  0
   -9.2543    1.2764   -0.5859 H   0  0  0  0  0  0  0  0  0  0  0  0
   -7.2429    1.7488   -1.4408 H   0  0  0  0  0  0  0  0  0  0  0  0
   -6.9267    2.3110    0.2007 H   0  0  0  0  0  0  0  0  0  0  0  0
   -2.8381    2.2622    0.1242 H   0  0  0  0  0  0  0  0  0  0  0  0
    3.3038   -0.2805    2.6802 H   0  0  0  0  0  0  0  0  0  0  0  0
    2.6144    1.1953    2.0066 H   0  0  0  0  0  0  0  0  0  0  0  0
    4.2243    1.3390    2.7034 H   0  0  0  0  0  0  0  0  0  0  0  0
  1  2  1  0
  2  3  2  0
  3  4  1  0
  4  5  2  0
  5  6  1  0
  6  7  2  0
  6  8  1  0
  8  9  2  0
  8 10  1  0
 10 11  1  0
 10 12  1  0
 12 13  2  0
 13 14  1  0
 14 15  2  0
 15 16  1  0
 16 17  1  0
 17 18  2  0
 18 19  1  0
 19 20  2  0
 20 21  1  0
 21 22  1  0
 22 23  2  0
 22 24  2  0
 22 25  1  0
 25 26  1  0
 26 27  1  0
 27 28  1  0
 28 29  1  0
 28 30  1  0
 30 31  1  0
 21 32  2  0
 15 33  1  0
 33 34  2  0
 34 35  1  0
 35 36  1  0
  7  2  1  0
 34 12  1  0
 35  5  1  0
 32 17  1  0
 31 25  1  0
  1 37  1  0
  1 38  1  0
  1 39  1  0
  3 40  1  0
  4 41  1  0
  7 42  1  0
 11 43  1  0
 11 44  1  0
 11 45  1  0
 13 46  1  0
 16 47  1  0
 18 48  1  0
 19 49  1  0
 20 50  1  0
 26 51  1  0
 26 52  1  0
 27 53  1  0
 27 54  1  0
 28 55  1  0
 29 56  1  0
 30 57  1  0
 30 58  1  0
 31 59  1  0
 31 60  1  0
 32 61  1  0
 36 62  1  0
 36 63  1  0
 36 64  1  0
M  END
$$$$
