@<TRIPOS>MOLECULE
*****
 64 68 0 0 0
SMALL
GASTEIGER

@<TRIPOS>ATOM
      1 C           9.2519   -2.0171    1.2054 C.3     1  UNL1       -0.0397
      2 C           7.9126   -1.3969    1.0392 C.ar    1  UNL1       -0.0496
      3 C           7.1493   -1.1360    2.1561 C.ar    1  UNL1       -0.0570
      4 C           5.8975   -0.5553    2.0046 C.ar    1  UNL1       -0.0393
      5 C           5.3840   -0.2271    0.7727 C.ar    1  UNL1        0.0471
      6 C           6.1492   -0.4873   -0.3681 C.ar    1  UNL1        0.0588
      7 C           7.3892   -1.0641   -0.1935 C.ar    1  UNL1       -0.0449
      8 C           5.8225   -0.2317   -1.7694 C.2     1  UNL1        0.2525
      9 O           6.6990   -0.5942   -2.5916 O.2     1  UNL1       -0.2696
     10 N           4.6721    0.3618   -2.3631 N.am    1  UNL1       -0.2663
     11 C           4.7203    0.6818   -3.7726 C.3     1  UNL1        0.0087
     12 C           3.4800    0.6679   -1.6372 C.ar    1  UNL1        0.0952
     13 C           2.4743    1.0079   -2.4958 C.ar    1  UNL1        0.0560
     14 N           1.2946    1.3469   -2.0121 N.ar    1  UNL1       -0.2207
     15 C           1.0050    1.3812   -0.6800 C.ar    1  UNL1        0.2213
     16 N          -0.2890    1.7584   -0.2491 N.pl3   1  UNL1       -0.2835
     17 C          -1.2340    0.8845    0.3457 C.ar    1  UNL1        0.0354
     18 C          -0.8299   -0.3575    0.7768 C.ar    1  UNL1       -0.0404
     19 C          -1.7349   -1.2512    1.3530 C.ar    1  UNL1       -0.0582
     20 C          -3.0552   -0.8456    1.4756 C.ar    1  UNL1       -0.0352
     21 C          -3.4628    0.4016    1.0422 C.ar    1  UNL1        0.1072
     22 S          -5.1304    0.9240    1.1657 S.O2    1  UNL1        0.0609
     23 O          -5.7546    0.4392    2.4669 O.2     1  UNL1       -0.1528
     24 O          -5.1195    2.4358    1.2773 O.2     1  UNL1       -0.1528
     25 N          -6.0405    0.5086   -0.2005 N.3     1  UNL1       -0.1764
     26 C          -6.1833   -0.8614   -0.5016 C.3     1  UNL1        0.0228
     27 C          -7.6243   -1.2245   -0.8489 C.3     1  UNL1       -0.0124
     28 C          -8.6064   -0.6169    0.0996 C.3     1  UNL1        0.0577
     29 O          -9.8835   -1.0112   -0.3460 O.3     1  UNL1       -0.3917
     30 C          -8.4674    0.8832    0.0868 C.3     1  UNL1       -0.0124
     31 C          -7.1375    1.3710   -0.3971 C.3     1  UNL1        0.0228
     32 C          -2.5691    1.2745    0.4789 C.ar    1  UNL1       -0.0141
     33 N           1.9892    1.0465    0.1666 N.ar    1  UNL1       -0.1970
     34 C           3.2235    0.6894   -0.2906 C.ar    1  UNL1        0.1520
     35 N           4.0860    0.3601    0.7998 N.pl3   1  UNL1       -0.2860
     36 C           3.5943    0.6464    2.1348 C.3     1  UNL1        0.0072
     37 H          10.0033   -1.1920    1.2283 H       1  UNL1        0.0278
     38 H           9.4919   -2.5848    0.2583 H       1  UNL1        0.0278
     39 H           9.3111   -2.6643    2.0890 H       1  UNL1        0.0278
     40 H           7.5454   -1.3917    3.1400 H       1  UNL1        0.0621
     41 H           5.3156   -0.3594    2.8926 H       1  UNL1        0.0636
     42 H           7.9706   -1.2592   -1.0872 H       1  UNL1        0.0628
     43 H           4.4532    1.7597   -3.9636 H       1  UNL1        0.0433
     44 H           5.8003    0.6422   -4.1097 H       1  UNL1        0.0433
     45 H           4.1915   -0.0284   -4.4108 H       1  UNL1        0.0433
     46 H           2.6422    0.9950   -3.5562 H       1  UNL1        0.0851
     47 H          -0.5407    2.7753   -0.3997 H       1  UNL1        0.1550
     48 H           0.2022   -0.6867    0.6871 H       1  UNL1        0.0636
     49 H          -1.4079   -2.2247    1.6906 H       1  UNL1        0.0619
     50 H          -3.7617   -1.5382    1.9228 H       1  UNL1        0.0637
     51 H          -5.5935   -1.0949   -1.4368 H       1  UNL1        0.0445
     52 H          -5.7954   -1.4503    0.3567 H       1  UNL1        0.0445
     53 H          -7.6687   -2.3122   -0.9043 H       1  UNL1        0.0303
     54 H          -7.7896   -0.7979   -1.8678 H       1  UNL1        0.0303
     55 H          -8.4811   -1.0543    1.1209 H       1  UNL1        0.0594
     56 H         -10.1374   -1.8432    0.1141 H       1  UNL1        0.2098
     57 H          -8.7041    1.2653    1.1050 H       1  UNL1        0.0303
     58 H          -9.2543    1.2764   -0.5859 H       1  UNL1        0.0303
     59 H          -7.2429    1.7488   -1.4408 H       1  UNL1        0.0445
     60 H          -6.9267    2.3110    0.2007 H       1  UNL1        0.0445
     61 H          -2.8381    2.2622    0.1242 H       1  UNL1        0.0656
     62 H           3.3038   -0.2805    2.6802 H       1  UNL1        0.0432
     63 H           2.6144    1.1953    2.0066 H       1  UNL1        0.0432
     64 H           4.2243    1.3390    2.7034 H       1  UNL1        0.0432
@<TRIPOS>BOND
     1     1     2    1
     2     2     3   ar
     3     3     4   ar
     4     4     5   ar
     5     5     6   ar
     6     6     7   ar
     7     6     8    1
     8     8     9    2
     9     8    10   am
    10    10    11    1
    11    10    12    1
    12    12    13   ar
    13    13    14   ar
    14    14    15   ar
    15    15    16    1
    16    16    17    1
    17    17    18   ar
    18    18    19   ar
    19    19    20   ar
    20    20    21   ar
    21    21    22    1
    22    22    23    2
    23    22    24    2
    24    22    25    1
    25    25    26    1
    26    26    27    1
    27    27    28    1
    28    28    29    1
    29    28    30    1
    30    30    31    1
    31    21    32   ar
    32    15    33   ar
    33    33    34   ar
    34    34    35    1
    35    35    36    1
    36     7     2   ar
    37    34    12   ar
    38    35     5    1
    39    32    17   ar
    40    31    25    1
    41     1    37    1
    42     1    38    1
    43     1    39    1
    44     3    40    1
    45     4    41    1
    46     7    42    1
    47    11    43    1
    48    11    44    1
    49    11    45    1
    50    13    46    1
    51    16    47    1
    52    18    48    1
    53    19    49    1
    54    20    50    1
    55    26    51    1
    56    26    52    1
    57    27    53    1
    58    27    54    1
    59    28    55    1
    60    29    56    1
    61    30    57    1
    62    30    58    1
    63    31    59    1
    64    31    60    1
    65    32    61    1
    66    36    62    1
    67    36    63    1
    68    36    64    1
