@<TRIPOS>MOLECULE
*****
 33 34 0 0 0
SMALL
GASTEIGER

@<TRIPOS>ATOM
      1 O          -1.7531    2.7445    0.6891 O.3     1  UNL1       -0.3924
      2 C          -2.0414    2.2638   -0.6058 C.3     1  UNL1        0.0729
      3 C          -1.1850    1.0364   -0.8328 C.3     1  UNL1        0.1109
      4 O           0.1713    1.3265   -0.7396 O.3     1  UNL1       -0.3483
      5 C           0.7218    0.1002   -0.4378 C.3     1  UNL1        0.1422
      6 C          -0.1289   -0.3075    0.7711 C.3     1  UNL1        0.0222
      7 C          -1.5141   -0.0209    0.1783 C.3     1  UNL1        0.1025
      8 O          -1.8705   -1.1677   -0.5421 O.3     1  UNL1       -0.2806
      9 P          -3.3272   -1.8181   -0.0341 P.3     1  UNL1        0.4727
     10 O          -3.7921   -1.2479    1.4891 O.3     1  UNL1       -0.3026
     11 O          -4.4806   -1.5057   -1.2237 O.3     1  UNL1       -0.3026
     12 O          -3.2215   -3.3386    0.1097 O.2     1  UNL1       -0.2275
     13 N           2.1136    0.0944   -0.1395 N.ar    1  UNL1       -0.2740
     14 C           2.9033    1.0880    0.2439 C.ar    1  UNL1        0.0170
     15 C           4.2491    0.8939    0.4919 C.ar    1  UNL1        0.0192
     16 C           4.8364   -0.3540    0.3502 C.ar    1  UNL1        0.2539
     17 O           6.0510   -0.5686    0.5655 O.2     1  UNL1       -0.2677
     18 N           4.0048   -1.3506   -0.0430 N.ar    1  UNL1       -0.2749
     19 C           2.6806   -1.1395   -0.2826 C.ar    1  UNL1        0.3313
     20 O           2.0491   -2.1839   -0.6429 O.2     1  UNL1       -0.2464
     21 H          -2.3188    3.5390    0.8895 H       1  UNL1        0.2095
     22 H          -3.1089    1.9654   -0.5796 H       1  UNL1        0.0584
     23 H          -1.8897    3.0324   -1.3625 H       1  UNL1        0.0584
     24 H          -1.3577    0.7103   -1.8882 H       1  UNL1        0.0646
     25 H           0.4564   -0.5842   -1.2689 H       1  UNL1        0.0840
     26 H          -0.0183   -1.3657    1.0338 H       1  UNL1        0.0335
     27 H          -0.0013    0.4023    1.5873 H       1  UNL1        0.0335
     28 H          -2.2313    0.2660    0.9477 H       1  UNL1        0.0630
     29 H          -3.2532   -1.7386    2.1581 H       1  UNL1        0.2220
     30 H          -4.4524   -2.2653   -1.8791 H       1  UNL1        0.2220
     31 H           2.4048    2.0392    0.3410 H       1  UNL1        0.0813
     32 H           4.8606    1.7382    0.8048 H       1  UNL1        0.0686
     33 H           4.4431   -2.2836   -0.1490 H       1  UNL1        0.1734
@<TRIPOS>BOND
     1     1     2    1
     2     2     3    1
     3     3     4    1
     4     4     5    1
     5     5     6    1
     6     6     7    1
     7     7     8    1
     8     8     9    1
     9     9    10    1
    10     9    11    1
    11     9    12    2
    12     5    13    1
    13    13    14   ar
    14    14    15   ar
    15    15    16   ar
    16    16    17    2
    17    16    18   ar
    18    18    19   ar
    19    19    20    2
    20     7     3    1
    21    19    13   ar
    22     1    21    1
    23     2    22    1
    24     2    23    1
    25     3    24    1
    26     5    25    1
    27     6    26    1
    28     6    27    1
    29     7    28    1
    30    10    29    1
    31    11    30    1
    32    14    31    1
    33    15    32    1
    34    18    33    1
