@<TRIPOS>MOLECULE
*****
 62 64 0 0 0
SMALL
GASTEIGER

@<TRIPOS>ATOM
      1 C          -6.4959   -2.2516    1.4465 C.3     1  UNL1       -0.0645
      2 C          -6.8541   -0.8220    1.6946 C.3     1  UNL1       -0.0467
      3 C          -6.9636    0.0153    0.4536 C.3     1  UNL1       -0.0101
      4 C          -7.9953   -0.4688   -0.5102 C.3     1  UNL1       -0.0558
      5 C          -7.4068    1.4122    0.9180 C.3     1  UNL1       -0.0558
      6 C          -5.6856    0.2101   -0.2473 C.ar    1  UNL1       -0.0401
      7 C          -4.4911   -0.2840    0.1658 C.ar    1  UNL1       -0.0545
      8 C          -3.3157   -0.0549   -0.5614 C.ar    1  UNL1       -0.0182
      9 C          -3.3072    0.6789   -1.7247 C.ar    1  UNL1        0.1387
     10 O          -2.2182    0.9553   -2.5047 O.3     1  UNL1       -0.4904
     11 C          -0.9050    0.6279   -2.3464 C.3     1  UNL1        0.0927
     12 C          -0.2978    1.2722   -1.1411 C.3     1  UNL1        0.0157
     13 C           1.1592    0.8203   -1.0659 C.3     1  UNL1        0.0927
     14 O           1.7350    1.4286    0.0736 O.3     1  UNL1       -0.4917
     15 C           3.0652    1.1752    0.3668 C.ar    1  UNL1        0.1240
     16 C           3.6301    1.7654    1.4756 C.ar    1  UNL1       -0.0195
     17 C           4.9674    1.5330    1.8020 C.ar    1  UNL1       -0.0517
     18 C           5.7134    0.7019    0.9947 C.ar    1  UNL1       -0.0053
     19 C           5.1768    0.0968   -0.1212 C.ar    1  UNL1        0.1287
     20 C           3.8453    0.3512   -0.4137 C.ar    1  UNL1        0.0221
     21 O           5.9499   -0.7401   -0.9234 O.3     1  UNL1       -0.4744
     22 C           7.2183   -1.2243   -0.5290 C.3     1  UNL1        0.2034
     23 C           7.2206   -2.7189   -0.8567 C.3     1  UNL1       -0.0143
     24 C           8.3056   -0.5917   -1.3132 C.2     1  UNL1        0.3488
     25 O           8.0022    0.2541   -2.1897 O.2     1  UNL1       -0.2465
     26 O           9.6416   -0.8873   -1.1273 O.3     1  UNL1       -0.4779
     27 C           7.3829   -1.0303    0.9430 C.3     1  UNL1        0.0015
     28 C           7.1493    0.4227    1.3033 C.3     1  UNL1       -0.0201
     29 C          -4.5515    1.1807   -2.1355 C.ar    1  UNL1        0.0828
     30 CL         -4.6047    2.1258   -3.6165 Cl      1  UNL1       -0.0797
     31 C          -5.6953    0.9483   -1.4140 C.ar    1  UNL1       -0.0361
     32 H          -7.3643   -2.9367    1.6819 H       1  UNL1        0.0230
     33 H          -5.7147   -2.5438    2.1782 H       1  UNL1        0.0230
     34 H          -6.0963   -2.4585    0.4375 H       1  UNL1        0.0230
     35 H          -6.0890   -0.3125    2.3512 H       1  UNL1        0.0271
     36 H          -7.7934   -0.7832    2.2821 H       1  UNL1        0.0271
     37 H          -8.7619   -1.1218   -0.0454 H       1  UNL1        0.0238
     38 H          -7.5053   -0.9884   -1.3816 H       1  UNL1        0.0238
     39 H          -8.5470    0.3900   -0.9558 H       1  UNL1        0.0238
     40 H          -8.3237    1.2750    1.5394 H       1  UNL1        0.0238
     41 H          -6.6174    1.8195    1.6023 H       1  UNL1        0.0238
     42 H          -7.5812    2.0700    0.0472 H       1  UNL1        0.0238
     43 H          -4.4262   -0.8614    1.0633 H       1  UNL1        0.0622
     44 H          -2.3810   -0.4891   -0.2093 H       1  UNL1        0.0655
     45 H          -0.3297    1.0209   -3.2405 H       1  UNL1        0.0697
     46 H          -0.7088   -0.4809   -2.3367 H       1  UNL1        0.0697
     47 H          -0.8196    1.1184   -0.2001 H       1  UNL1        0.0331
     48 H          -0.2940    2.4004   -1.2814 H       1  UNL1        0.0331
     49 H           1.2519   -0.2659   -1.0889 H       1  UNL1        0.0697
     50 H           1.6319    1.2008   -2.0138 H       1  UNL1        0.0697
     51 H           3.0745    2.4216    2.1294 H       1  UNL1        0.0654
     52 H           5.3960    2.0106    2.6852 H       1  UNL1        0.0623
     53 H           3.4296   -0.1215   -1.2837 H       1  UNL1        0.0691
     54 H           8.2244   -3.1423   -0.8816 H       1  UNL1        0.0274
     55 H           6.5584   -3.1866   -0.0948 H       1  UNL1        0.0274
     56 H           6.6906   -2.8195   -1.8254 H       1  UNL1        0.0274
     57 H          10.3259   -0.2047   -1.4326 H       1  UNL1        0.2952
     58 H           8.3370   -1.3944    1.3336 H       1  UNL1        0.0312
     59 H           6.5690   -1.6064    1.4462 H       1  UNL1        0.0312
     60 H           7.7393    1.1148    0.6722 H       1  UNL1        0.0316
     61 H           7.4063    0.6140    2.3491 H       1  UNL1        0.0316
     62 H          -6.6563    1.3593   -1.7683 H       1  UNL1        0.0636
@<TRIPOS>BOND
     1     1     2    1
     2     2     3    1
     3     3     4    1
     4     3     5    1
     5     3     6    1
     6     6     7   ar
     7     7     8   ar
     8     8     9   ar
     9     9    10    1
    10    10    11    1
    11    11    12    1
    12    12    13    1
    13    13    14    1
    14    14    15    1
    15    15    16   ar
    16    16    17   ar
    17    17    18   ar
    18    18    19   ar
    19    19    20   ar
    20    19    21    1
    21    21    22    1
    22    22    23    1
    23    22    24    1
    24    24    25    2
    25    24    26    1
    26    22    27    1
    27    27    28    1
    28     9    29   ar
    29    29    30    1
    30    29    31   ar
    31    31     6   ar
    32    20    15   ar
    33    28    18    1
    34     1    32    1
    35     1    33    1
    36     1    34    1
    37     2    35    1
    38     2    36    1
    39     4    37    1
    40     4    38    1
    41     4    39    1
    42     5    40    1
    43     5    41    1
    44     5    42    1
    45     7    43    1
    46     8    44    1
    47    11    45    1
    48    11    46    1
    49    12    47    1
    50    12    48    1
    51    13    49    1
    52    13    50    1
    53    16    51    1
    54    17    52    1
    55    20    53    1
    56    23    54    1
    57    23    55    1
    58    23    56    1
    59    26    57    1
    60    27    58    1
    61    27    59    1
    62    28    60    1
    63    28    61    1
    64    31    62    1
