@<TRIPOS>MOLECULE
*****
 39 38 0 0 0
SMALL
GASTEIGER

@<TRIPOS>ATOM
      1 C           4.0561    0.7603    0.0830 C.3     1  UNL1        0.0863
      2 C           4.6936    1.4832    1.2450 C.3     1  UNL1       -0.0299
      3 N           5.0941   -0.0761   -0.4977 N.am    1  UNL1       -0.2999
      4 C           5.7313   -0.0676   -1.7664 C.2     1  UNL1        0.2013
      5 O           5.5099    0.7233   -2.7127 O.2     1  UNL1       -0.2795
      6 N           2.9485   -0.0701    0.4498 N.am    1  UNL1       -0.2958
      7 C           1.6278   -0.0725   -0.0406 C.2     1  UNL1        0.2345
      8 O           1.1849    0.7081   -0.9390 O.2     1  UNL1       -0.2737
      9 C           0.5905   -0.9922    0.4364 C.3     1  UNL1        0.0997
     10 C           0.9500   -2.4355    0.2981 C.3     1  UNL1       -0.0380
     11 N          -0.6416   -0.7172   -0.2815 N.am    1  UNL1       -0.2701
     12 C          -1.8586   -0.2914    0.2725 C.2     1  UNL1        0.4014
     13 O          -2.0317   -0.0910    1.4961 O.2     1  UNL1       -0.2264
     14 O          -2.8977   -0.0934   -0.6113 O.3     1  UNL1       -0.4447
     15 C          -4.1757    0.3269   -0.2499 C.3     1  UNL1        0.1068
     16 C          -5.1000    0.4539   -1.4379 C.3     1  UNL1       -0.0253
     17 C          -4.0547    1.6773    0.4278 C.3     1  UNL1       -0.0253
     18 C          -4.8414   -0.5694    0.7677 C.3     1  UNL1       -0.0253
     19 H           3.8004    1.5006   -0.7080 H       1  UNL1        0.0704
     20 H           5.3678    2.2608    0.8253 H       1  UNL1        0.0263
     21 H           3.9457    1.9536    1.9127 H       1  UNL1        0.0263
     22 H           5.3239    0.8082    1.8533 H       1  UNL1        0.0263
     23 H           5.3434   -0.7770    0.2365 H       1  UNL1        0.1502
     24 H           6.4916   -0.8463   -1.9015 H       1  UNL1        0.1252
     25 H           3.2472   -0.7413    1.1918 H       1  UNL1        0.1505
     26 H           0.3551   -0.7908    1.5175 H       1  UNL1        0.0593
     27 H           1.2303   -2.6101   -0.7597 H       1  UNL1        0.0252
     28 H           1.7342   -2.7693    0.9741 H       1  UNL1        0.0252
     29 H           0.0500   -3.0423    0.5320 H       1  UNL1        0.0252
     30 H          -0.4572   -0.8965   -1.3054 H       1  UNL1        0.1528
     31 H          -4.6276    1.0682   -2.2467 H       1  UNL1        0.0268
     32 H          -5.3953   -0.5338   -1.8294 H       1  UNL1        0.0268
     33 H          -6.0353    0.9661   -1.1140 H       1  UNL1        0.0268
     34 H          -3.1716    2.1881   -0.0081 H       1  UNL1        0.0268
     35 H          -3.8241    1.5338    1.5155 H       1  UNL1        0.0268
     36 H          -4.9473    2.3101    0.2620 H       1  UNL1        0.0268
     37 H          -4.4978   -0.3226    1.7950 H       1  UNL1        0.0268
     38 H          -4.7846   -1.6300    0.5279 H       1  UNL1        0.0268
     39 H          -5.9340   -0.2861    0.7497 H       1  UNL1        0.0268
@<TRIPOS>BOND
     1     1     2    1
     2     1     3    1
     3     3     4   am
     4     4     5    2
     5     1     6    1
     6     6     7   am
     7     7     8    2
     8     7     9    1
     9     9    10    1
    10     9    11    1
    11    11    12   am
    12    12    13    2
    13    12    14    1
    14    14    15    1
    15    15    16    1
    16    15    17    1
    17    15    18    1
    18     1    19    1
    19     2    20    1
    20     2    21    1
    21     2    22    1
    22     3    23    1
    23     4    24    1
    24     6    25    1
    25     9    26    1
    26    10    27    1
    27    10    28    1
    28    10    29    1
    29    11    30    1
    30    16    31    1
    31    16    32    1
    32    16    33    1
    33    17    34    1
    34    17    35    1
    35    17    36    1
    36    18    37    1
    37    18    38    1
    38    18    39    1
