@<TRIPOS>MOLECULE
*****
 91 97 0 0 0
SMALL
GASTEIGER

@<TRIPOS>ATOM
      1 C          12.5085   -1.7952    0.2210 C.3     1  UNL1       -0.0497
      2 C          11.8435   -0.4782   -0.1050 C.3     1  UNL1        0.0049
      3 C          11.6599    0.3701    1.1410 C.3     1  UNL1       -0.0497
      4 N          10.5678   -0.7367   -0.6903 N.3     1  UNL1       -0.2969
      5 C          10.5807   -1.5221   -1.8866 C.3     1  UNL1        0.0150
      6 C           9.2780   -1.3046   -2.6190 C.3     1  UNL1        0.0278
      7 N           8.1975   -1.2850   -1.6250 N.am    1  UNL1       -0.2951
      8 C           7.0054   -0.6349   -1.9750 C.2     1  UNL1        0.2467
      9 O           6.8525   -0.0816   -3.0970 O.2     1  UNL1       -0.2700
     10 C           5.9034   -0.5874   -1.0313 C.ar    1  UNL1        0.0370
     11 C           5.3135   -1.7456   -0.6331 C.ar    1  UNL1       -0.0479
     12 C           4.2470   -1.6995    0.2749 C.ar    1  UNL1       -0.0397
     13 C           3.7866   -0.5034    0.7696 C.ar    1  UNL1        0.0348
     14 N           2.7200   -0.3983    1.6844 N.am    1  UNL1       -0.2692
     15 C           1.3581   -0.2788    1.3345 C.2     1  UNL1        0.3081
     16 O           1.0975   -0.2752    0.0830 O.2     1  UNL1       -0.2522
     17 N           0.2735   -0.1642    2.2156 N.am    1  UNL1       -0.2692
     18 C          -1.0908   -0.0498    1.8254 C.ar    1  UNL1        0.0348
     19 C          -1.9465   -1.1004    1.6713 C.ar    1  UNL1       -0.0398
     20 C          -3.2728   -0.9166    1.2804 C.ar    1  UNL1       -0.0493
     21 C          -3.7743    0.3501    1.0320 C.ar    1  UNL1        0.0194
     22 C          -5.1576    0.5792    0.6122 C.ar    1  UNL1        0.1652
     23 N          -5.5421    1.8623    0.3496 N.ar    1  UNL1       -0.2122
     24 C          -6.7945    2.1428   -0.0370 C.ar    1  UNL1        0.1382
     25 C          -7.1809    3.5564   -0.3129 C.3     1  UNL1        0.0233
     26 C          -6.9102    4.4533    0.8690 C.3     1  UNL1       -0.0197
     27 C          -5.4597    4.7397    1.1031 C.3     1  UNL1        0.0483
     28 O          -4.6635    4.5692   -0.0127 O.3     1  UNL1       -0.3797
     29 C          -5.2915    4.9813   -1.1724 C.3     1  UNL1        0.0483
     30 C          -6.4755    4.1120   -1.5211 C.3     1  UNL1       -0.0197
     31 N          -7.6633    1.1292   -0.1606 N.ar    1  UNL1       -0.1991
     32 C          -7.3252   -0.1721    0.0912 C.ar    1  UNL1        0.2220
     33 N          -8.2899   -1.1946   -0.0711 N.pl3   1  UNL1       -0.2891
     34 C          -8.3109   -2.5415    0.4439 C.3     1  UNL1        0.0500
     35 C          -8.6586   -3.3441   -0.8107 C.3     1  UNL1       -0.0304
     36 C          -9.5175   -2.3900   -1.5914 C.3     1  UNL1       -0.0304
     37 C          -9.5020   -1.0605   -0.8513 C.3     1  UNL1        0.0500
     38 C         -10.6496   -0.9861    0.1550 C.3     1  UNL1        0.0663
     39 O         -10.2835   -1.4833    1.3800 O.3     1  UNL1       -0.3761
     40 C          -9.5173   -2.6256    1.3608 C.3     1  UNL1        0.0663
     41 N          -6.0556   -0.3847    0.4751 N.ar    1  UNL1       -0.1945
     42 C          -2.9087    1.4095    1.1880 C.ar    1  UNL1       -0.0493
     43 C          -1.5932    1.2273    1.5758 C.ar    1  UNL1       -0.0398
     44 C           4.4159    0.6397    0.3369 C.ar    1  UNL1       -0.0397
     45 C           5.4725    0.6333   -0.5589 C.ar    1  UNL1       -0.0479
     46 C           8.4615   -1.9376   -0.3761 C.3     1  UNL1        0.0278
     47 C           9.6610   -1.2441    0.2912 C.3     1  UNL1        0.0150
     48 H          11.8409   -2.6619    0.1921 H       1  UNL1        0.0245
     49 H          13.0359   -1.7833    1.1981 H       1  UNL1        0.0245
     50 H          13.3065   -1.9737   -0.5466 H       1  UNL1        0.0245
     51 H          12.4554    0.0902   -0.8596 H       1  UNL1        0.0457
     52 H          10.8167    1.0756    1.0388 H       1  UNL1        0.0245
     53 H          12.5641    0.9615    1.3506 H       1  UNL1        0.0245
     54 H          11.3885   -0.3252    1.9694 H       1  UNL1        0.0245
     55 H          10.6579   -2.6136   -1.6985 H       1  UNL1        0.0442
     56 H          11.4074   -1.1770   -2.5455 H       1  UNL1        0.0442
     57 H           9.0892   -2.1234   -3.3726 H       1  UNL1        0.0477
     58 H           9.2740   -0.3262   -3.1846 H       1  UNL1        0.0477
     59 H           5.6118   -2.7352   -0.9739 H       1  UNL1        0.0626
     60 H           3.7544   -2.5999    0.6139 H       1  UNL1        0.0636
     61 H           2.9349   -0.4072    2.7108 H       1  UNL1        0.1564
     62 H           0.4970   -0.1640    3.2553 H       1  UNL1        0.1564
     63 H          -1.5445   -2.0909    1.8671 H       1  UNL1        0.0636
     64 H          -3.9285   -1.7583    1.1654 H       1  UNL1        0.0625
     65 H          -8.2753    3.6015   -0.5307 H       1  UNL1        0.0381
     66 H          -7.4442    5.4207    0.6807 H       1  UNL1        0.0294
     67 H          -7.4063    4.0258    1.7832 H       1  UNL1        0.0294
     68 H          -5.0966    4.0386    1.8822 H       1  UNL1        0.0560
     69 H          -5.2683    5.7785    1.4860 H       1  UNL1        0.0560
     70 H          -5.6657    6.0216   -1.0406 H       1  UNL1        0.0560
     71 H          -4.5426    4.9922   -1.9710 H       1  UNL1        0.0560
     72 H          -7.1831    4.6510   -2.1607 H       1  UNL1        0.0294
     73 H          -6.0744    3.2580   -2.1379 H       1  UNL1        0.0294
     74 H          -7.3777   -2.8527    0.9079 H       1  UNL1        0.0523
     75 H          -7.6928   -3.5462   -1.3152 H       1  UNL1        0.0284
     76 H          -9.1783   -4.2882   -0.5393 H       1  UNL1        0.0284
     77 H         -10.5705   -2.7105   -1.6547 H       1  UNL1        0.0284
     78 H          -9.0999   -2.1914   -2.6060 H       1  UNL1        0.0284
     79 H          -9.5069   -0.2041   -1.5396 H       1  UNL1        0.0523
     80 H         -10.8551    0.1078    0.2729 H       1  UNL1        0.0578
     81 H         -11.5863   -1.4182   -0.2549 H       1  UNL1        0.0578
     82 H         -10.0897   -3.5387    1.1405 H       1  UNL1        0.0578
     83 H          -9.1241   -2.7533    2.4116 H       1  UNL1        0.0578
     84 H          -3.2828    2.4200    0.9969 H       1  UNL1        0.0625
     85 H          -0.9396    2.0666    1.6900 H       1  UNL1        0.0636
     86 H           4.1017    1.6337    0.6897 H       1  UNL1        0.0636
     87 H           5.9713    1.5427   -0.9005 H       1  UNL1        0.0626
     88 H           8.6984   -3.0253   -0.5651 H       1  UNL1        0.0477
     89 H           7.6492   -1.9135    0.3524 H       1  UNL1        0.0477
     90 H           9.2121   -0.3614    0.8352 H       1  UNL1        0.0442
     91 H          10.0963   -1.9764    0.9936 H       1  UNL1        0.0442
@<TRIPOS>BOND
     1     1     2    1
     2     2     3    1
     3     2     4    1
     4     4     5    1
     5     5     6    1
     6     6     7    1
     7     7     8   am
     8     8     9    2
     9     8    10    1
    10    10    11   ar
    11    11    12   ar
    12    12    13   ar
    13    13    14    1
    14    14    15   am
    15    15    16    2
    16    15    17   am
    17    17    18    1
    18    18    19   ar
    19    19    20   ar
    20    20    21   ar
    21    21    22    1
    22    22    23   ar
    23    23    24   ar
    24    24    25    1
    25    25    26    1
    26    26    27    1
    27    27    28    1
    28    28    29    1
    29    29    30    1
    30    24    31   ar
    31    31    32   ar
    32    32    33    1
    33    33    34    1
    34    34    35    1
    35    35    36    1
    36    36    37    1
    37    37    38    1
    38    38    39    1
    39    39    40    1
    40    32    41   ar
    41    21    42   ar
    42    42    43   ar
    43    13    44   ar
    44    44    45   ar
    45     7    46    1
    46    46    47    1
    47    47     4    1
    48    45    10   ar
    49    43    18   ar
    50    41    22   ar
    51    30    25    1
    52    37    33    1
    53    40    34    1
    54     1    48    1
    55     1    49    1
    56     1    50    1
    57     2    51    1
    58     3    52    1
    59     3    53    1
    60     3    54    1
    61     5    55    1
    62     5    56    1
    63     6    57    1
    64     6    58    1
    65    11    59    1
    66    12    60    1
    67    14    61    1
    68    17    62    1
    69    19    63    1
    70    20    64    1
    71    25    65    1
    72    26    66    1
    73    26    67    1
    74    27    68    1
    75    27    69    1
    76    29    70    1
    77    29    71    1
    78    30    72    1
    79    30    73    1
    80    34    74    1
    81    35    75    1
    82    35    76    1
    83    36    77    1
    84    36    78    1
    85    37    79    1
    86    38    80    1
    87    38    81    1
    88    40    82    1
    89    40    83    1
    90    42    84    1
    91    43    85    1
    92    44    86    1
    93    45    87    1
    94    46    88    1
    95    46    89    1
    96    47    90    1
    97    47    91    1
