@<TRIPOS>MOLECULE
*****
 31 33 0 0 0
SMALL
GASTEIGER

@<TRIPOS>ATOM
      1 C           1.5094    3.0532   -1.2678 C.3     1  UNL1       -0.0107
      2 S           0.4624    2.6998    0.1450 S.3     1  UNL1       -0.0907
      3 C          -0.4779    1.1956   -0.0587 C.ar    1  UNL1        0.1766
      4 N          -1.7015    1.2258   -0.6336 N.ar    1  UNL1       -0.2228
      5 C          -2.4611    0.1308   -0.8167 C.ar    1  UNL1        0.0790
      6 C          -3.7120    0.1998   -1.4104 C.ar    1  UNL1       -0.0355
      7 C          -4.3937   -1.0039   -1.5403 C.ar    1  UNL1       -0.0597
      8 C          -3.9167   -2.2121   -1.1295 C.ar    1  UNL1       -0.0609
      9 C          -2.6578   -2.2725   -0.5335 C.ar    1  UNL1       -0.0473
     10 C          -1.9634   -1.0869   -0.3948 C.ar    1  UNL1        0.0653
     11 C          -0.7156   -1.0498    0.1808 C.ar    1  UNL1        0.2670
     12 O          -0.2189   -2.1502    0.5839 O.2     1  UNL1       -0.2665
     13 N           0.0605    0.0315    0.3738 N.ar    1  UNL1       -0.2498
     14 C           1.3422   -0.0706    0.9868 C.ar    1  UNL1        0.1221
     15 C           1.6100    0.0014    2.3400 C.ar    1  UNL1        0.1501
     16 F           0.5268    0.1889    3.1480 F       1  UNL1       -0.2032
     17 C           2.9094   -0.1139    2.8097 C.ar    1  UNL1       -0.0242
     18 C           3.8902   -0.3001    1.8626 C.ar    1  UNL1       -0.0562
     19 C           3.6783   -0.3790    0.5047 C.ar    1  UNL1       -0.0242
     20 C           2.3669   -0.2597    0.0694 C.ar    1  UNL1        0.1501
     21 F           2.1833   -0.3406   -1.2731 F       1  UNL1       -0.2032
     22 H           2.3751    2.3673   -1.3655 H       1  UNL1        0.0345
     23 H           1.9395    4.0732   -1.0949 H       1  UNL1        0.0345
     24 H           0.9458    3.1415   -2.2168 H       1  UNL1        0.0345
     25 H          -4.1016    1.1521   -1.7405 H       1  UNL1        0.0639
     26 H          -5.3750   -0.9362   -2.0081 H       1  UNL1        0.0618
     27 H          -4.4455   -3.1446   -1.2305 H       1  UNL1        0.0618
     28 H          -2.1651   -3.1648   -0.1646 H       1  UNL1        0.0626
     29 H           3.0778   -0.0532    3.8647 H       1  UNL1        0.0647
     30 H           4.9281   -0.3957    2.1915 H       1  UNL1        0.0619
     31 H           4.4999   -0.5268   -0.1817 H       1  UNL1        0.0647
@<TRIPOS>BOND
     1     1     2    1
     2     2     3    1
     3     3     4   ar
     4     4     5   ar
     5     5     6   ar
     6     6     7   ar
     7     7     8   ar
     8     8     9   ar
     9     9    10   ar
    10    10    11   ar
    11    11    12    2
    12    11    13   ar
    13    13    14    1
    14    14    15   ar
    15    15    16    1
    16    15    17   ar
    17    17    18   ar
    18    18    19   ar
    19    19    20   ar
    20    20    21    1
    21    13     3   ar
    22    20    14   ar
    23    10     5   ar
    24     1    22    1
    25     1    23    1
    26     1    24    1
    27     6    25    1
    28     7    26    1
    29     8    27    1
    30     9    28    1
    31    17    29    1
    32    18    30    1
    33    19    31    1
