@<TRIPOS>MOLECULE
*****
 49 52 0 0 0
SMALL
GASTEIGER

@<TRIPOS>ATOM
      1 C          -1.6991   -0.1749    0.7187 C.3     1  UNL1       -0.0301
      2 C          -2.5360   -1.3203    1.1776 C.3     1  UNL1       -0.0470
      3 C          -3.8886   -1.1031    0.4987 C.3     1  UNL1       -0.0261
      4 C          -3.7038    0.1246   -0.3909 C.3     1  UNL1        0.0609
      5 O          -4.4089    0.0442   -1.5721 O.3     1  UNL1       -0.3912
      6 C          -2.2243    0.0140   -0.7036 C.3     1  UNL1       -0.0030
      7 C          -2.0139   -1.1692   -1.5833 C.3     1  UNL1       -0.0569
      8 C          -1.6296    1.2869   -1.1965 C.3     1  UNL1       -0.0447
      9 C          -0.1458    1.1695   -1.2702 C.3     1  UNL1       -0.0486
     10 C           0.4686    0.7188    0.0294 C.3     1  UNL1       -0.0288
     11 C          -0.2288   -0.4828    0.6136 C.3     1  UNL1       -0.0337
     12 C           0.2664   -0.7301    2.0071 C.3     1  UNL1       -0.0459
     13 C           1.7492   -0.7245    2.1492 C.3     1  UNL1       -0.0305
     14 C           2.4560    0.1824    1.2202 C.2     1  UNL1       -0.0601
     15 C           3.5457    0.8375    1.6572 C.2     1  UNL1       -0.0194
     16 C           4.2481    1.7434    0.7226 C.2     1  UNL1        0.1561
     17 O           4.8095    2.7494    1.2495 O.2     1  UNL1       -0.2927
     18 C           4.1582    1.2839   -0.7097 C.3     1  UNL1        0.0107
     19 C           2.6816    1.2232   -1.0418 C.3     1  UNL1       -0.0367
     20 C           1.9057    0.3112   -0.1563 C.3     1  UNL1       -0.0072
     21 C           1.9743   -1.0868   -0.7851 C.3     1  UNL1       -0.0556
     22 H          -1.9068    0.7553    1.2599 H       1  UNL1        0.0310
     23 H          -2.7141   -1.1777    2.2717 H       1  UNL1        0.0269
     24 H          -2.1111   -2.2982    0.9614 H       1  UNL1        0.0269
     25 H          -4.1088   -1.9447   -0.1901 H       1  UNL1        0.0290
     26 H          -4.7001   -0.9597    1.2244 H       1  UNL1        0.0290
     27 H          -3.9236    1.0345    0.1932 H       1  UNL1        0.0599
     28 H          -5.2441   -0.4528   -1.5056 H       1  UNL1        0.2098
     29 H          -2.9612   -1.3282   -2.1780 H       1  UNL1        0.0236
     30 H          -1.8386   -2.1160   -1.0555 H       1  UNL1        0.0236
     31 H          -1.2233   -1.0014   -2.3597 H       1  UNL1        0.0236
     32 H          -2.0054    1.6062   -2.1825 H       1  UNL1        0.0271
     33 H          -1.8804    2.0805   -0.4729 H       1  UNL1        0.0271
     34 H           0.2621    2.1745   -1.5069 H       1  UNL1        0.0268
     35 H           0.1986    0.5153   -2.1005 H       1  UNL1        0.0268
     36 H           0.4606    1.5346    0.7862 H       1  UNL1        0.0312
     37 H          -0.1105   -1.3542   -0.0485 H       1  UNL1        0.0307
     38 H          -0.1986    0.0206    2.6828 H       1  UNL1        0.0271
     39 H          -0.1298   -1.7391    2.3112 H       1  UNL1        0.0271
     40 H           2.1849   -1.7614    2.0432 H       1  UNL1        0.0310
     41 H           1.9791   -0.4765    3.2265 H       1  UNL1        0.0310
     42 H           3.8783    0.6779    2.6951 H       1  UNL1        0.0652
     43 H           4.5658    2.1155   -1.3346 H       1  UNL1        0.0345
     44 H           4.6845    0.3247   -0.8675 H       1  UNL1        0.0345
     45 H           2.3098    2.2638   -1.0571 H       1  UNL1        0.0278
     46 H           2.6313    0.8707   -2.1110 H       1  UNL1        0.0278
     47 H           1.8748   -1.8889   -0.0248 H       1  UNL1        0.0238
     48 H           1.2474   -1.1738   -1.6094 H       1  UNL1        0.0238
     49 H           2.9948   -1.1983   -1.2053 H       1  UNL1        0.0238
@<TRIPOS>BOND
     1     1     2    1
     2     2     3    1
     3     3     4    1
     4     4     5    1
     5     4     6    1
     6     6     7    1
     7     6     8    1
     8     8     9    1
     9     9    10    1
    10    10    11    1
    11    11    12    1
    12    12    13    1
    13    13    14    1
    14    14    15    2
    15    15    16    1
    16    16    17    2
    17    16    18    1
    18    18    19    1
    19    19    20    1
    20    20    21    1
    21     6     1    1
    22    20    10    1
    23    11     1    1
    24    20    14    1
    25     1    22    1
    26     2    23    1
    27     2    24    1
    28     3    25    1
    29     3    26    1
    30     4    27    1
    31     5    28    1
    32     7    29    1
    33     7    30    1
    34     7    31    1
    35     8    32    1
    36     8    33    1
    37     9    34    1
    38     9    35    1
    39    10    36    1
    40    11    37    1
    41    12    38    1
    42    12    39    1
    43    13    40    1
    44    13    41    1
    45    15    42    1
    46    18    43    1
    47    18    44    1
    48    19    45    1
    49    19    46    1
    50    21    47    1
    51    21    48    1
    52    21    49    1
