@<TRIPOS>MOLECULE
*****
 52 55 0 0 0
SMALL
GASTEIGER

@<TRIPOS>ATOM
      1 C           6.7160    1.5512   -0.1562 C.3     1  UNL1       -0.0653
      2 C           5.3923    1.4788   -0.8899 C.3     1  UNL1       -0.0555
      3 C           4.2971    1.8779    0.0704 C.3     1  UNL1       -0.0465
      4 C           2.9186    1.8290   -0.6193 C.3     1  UNL1        0.0056
      5 C           2.7455    0.4076   -1.0620 C.ar    1  UNL1        0.1105
      6 N           3.1793   -0.0242   -2.2648 N.ar    1  UNL1       -0.2398
      7 C           2.9339   -1.3193   -2.3997 C.ar    1  UNL1        0.0601
      8 C           2.3095   -1.7247   -1.2137 C.ar    1  UNL1        0.1466
      9 C           1.8893   -3.1136   -0.9758 C.2     1  UNL1        0.3550
     10 O           1.3496   -3.4430    0.0943 O.2     1  UNL1       -0.2434
     11 O           2.0782   -4.1003   -1.9293 O.3     1  UNL1       -0.4761
     12 N           2.2083   -0.6476   -0.4219 N.ar    1  UNL1       -0.3180
     13 C           1.6327   -0.5949    0.9016 C.3     1  UNL1        0.0501
     14 C           0.1652   -0.4060    0.9313 C.ar    1  UNL1       -0.0277
     15 C          -0.5911   -1.3815    1.5765 C.ar    1  UNL1       -0.0563
     16 C          -1.9522   -1.2554    1.6079 C.ar    1  UNL1       -0.0537
     17 C          -2.6579   -0.2115    1.0371 C.ar    1  UNL1       -0.0158
     18 C          -4.1105   -0.1568    1.1265 C.ar    1  UNL1        0.0076
     19 C          -4.7667   -0.3616    2.3469 C.ar    1  UNL1       -0.0520
     20 C          -6.1441   -0.3019    2.4283 C.ar    1  UNL1       -0.0611
     21 C          -6.8947   -0.0363    1.2919 C.ar    1  UNL1       -0.0597
     22 C          -6.2335    0.1599    0.1133 C.ar    1  UNL1       -0.0356
     23 C          -4.8400    0.1067   -0.0065 C.ar    1  UNL1        0.0764
     24 N          -4.1801    0.3045   -1.2283 N.ar    1  UNL1       -0.1997
     25 C          -4.3936    1.3050   -2.0893 C.ar    1  UNL1        0.1437
     26 N          -3.5688    1.1603   -3.1615 N.ar    1  UNL1       -0.1165
     27 N          -2.8762    0.0720   -2.9190 N.ar    1  UNL1       -0.0230
     28 N          -3.2422   -0.4528   -1.7469 N.ar    1  UNL1       -0.0391
     29 C          -1.8989    0.7459    0.4029 C.ar    1  UNL1       -0.0537
     30 C          -0.4940    0.6441    0.3529 C.ar    1  UNL1       -0.0563
     31 H           6.6189    0.9819    0.7898 H       1  UNL1        0.0230
     32 H           6.9377    2.6132    0.1306 H       1  UNL1        0.0230
     33 H           7.5475    1.0986   -0.7341 H       1  UNL1        0.0230
     34 H           5.2531    0.4429   -1.2259 H       1  UNL1        0.0263
     35 H           5.3855    2.1908   -1.7381 H       1  UNL1        0.0263
     36 H           4.2633    1.1376    0.8896 H       1  UNL1        0.0269
     37 H           4.4843    2.8631    0.5207 H       1  UNL1        0.0269
     38 H           2.8658    2.5265   -1.4552 H       1  UNL1        0.0343
     39 H           2.2118    2.0525    0.2034 H       1  UNL1        0.0343
     40 H           3.1835   -1.9072   -3.2704 H       1  UNL1        0.0853
     41 H           1.8495   -5.0683   -1.7594 H       1  UNL1        0.2955
     42 H           1.9373   -1.5019    1.4972 H       1  UNL1        0.0542
     43 H           2.1300    0.2462    1.4565 H       1  UNL1        0.0542
     44 H          -0.0728   -2.2286    2.0523 H       1  UNL1        0.0621
     45 H          -2.5224   -2.0295    2.1172 H       1  UNL1        0.0624
     46 H          -4.1997   -0.5691    3.2399 H       1  UNL1        0.0624
     47 H          -6.6568   -0.4616    3.3802 H       1  UNL1        0.0618
     48 H          -7.9746    0.0180    1.3186 H       1  UNL1        0.0618
     49 H          -6.8179    0.3705   -0.7910 H       1  UNL1        0.0639
     50 H          -5.1015    2.1257   -1.9925 H       1  UNL1        0.1067
     51 H          -2.3589    1.5842   -0.0593 H       1  UNL1        0.0624
     52 H           0.0651    1.4033   -0.1575 H       1  UNL1        0.0621
@<TRIPOS>BOND
     1     1     2    1
     2     2     3    1
     3     3     4    1
     4     4     5    1
     5     5     6   ar
     6     6     7   ar
     7     7     8   ar
     8     8     9    1
     9     9    10    2
    10     9    11    1
    11     8    12   ar
    12    12    13    1
    13    13    14    1
    14    14    15   ar
    15    15    16   ar
    16    16    17   ar
    17    17    18    1
    18    18    19   ar
    19    19    20   ar
    20    20    21   ar
    21    21    22   ar
    22    22    23   ar
    23    23    24    1
    24    24    25   ar
    25    25    26   ar
    26    26    27   ar
    27    27    28   ar
    28    17    29   ar
    29    29    30   ar
    30    12     5   ar
    31    30    14   ar
    32    23    18   ar
    33    28    24   ar
    34     1    31    1
    35     1    32    1
    36     1    33    1
    37     2    34    1
    38     2    35    1
    39     3    36    1
    40     3    37    1
    41     4    38    1
    42     4    39    1
    43     7    40    1
    44    11    41    1
    45    13    42    1
    46    13    43    1
    47    15    44    1
    48    16    45    1
    49    19    46    1
    50    20    47    1
    51    21    48    1
    52    22    49    1
    53    25    50    1
    54    29    51    1
    55    30    52    1
