
     RDKit          3D

 52 55  0  0  0  0  0  0  0  0999 V2000
    6.7160    1.5512   -0.1562 C   0  0  0  0  0  0  0  0  0  0  0  0
    5.3923    1.4788   -0.8899 C   0  0  0  0  0  0  0  0  0  0  0  0
    4.2971    1.8779    0.0704 C   0  0  0  0  0  0  0  0  0  0  0  0
    2.9186    1.8290   -0.6193 C   0  0  0  0  0  0  0  0  0  0  0  0
    2.7455    0.4076   -1.0620 C   0  0  0  0  0  0  0  0  0  0  0  0
    3.1793   -0.0242   -2.2648 N   0  0  0  0  0  0  0  0  0  0  0  0
    2.9339   -1.3193   -2.3997 C   0  0  0  0  0  0  0  0  0  0  0  0
    2.3095   -1.7247   -1.2137 C   0  0  0  0  0  0  0  0  0  0  0  0
    1.8893   -3.1136   -0.9758 C   0  0  0  0  0  0  0  0  0  0  0  0
    1.3496   -3.4430    0.0943 O   0  0  0  0  0  0  0  0  0  0  0  0
    2.0782   -4.1003   -1.9293 O   0  0  0  0  0  0  0  0  0  0  0  0
    2.2083   -0.6476   -0.4219 N   0  0  0  0  0  0  0  0  0  0  0  0
    1.6327   -0.5949    0.9016 C   0  0  0  0  0  0  0  0  0  0  0  0
    0.1652   -0.4060    0.9313 C   0  0  0  0  0  0  0  0  0  0  0  0
   -0.5911   -1.3815    1.5765 C   0  0  0  0  0  0  0  0  0  0  0  0
   -1.9522   -1.2554    1.6079 C   0  0  0  0  0  0  0  0  0  0  0  0
   -2.6579   -0.2115    1.0371 C   0  0  0  0  0  0  0  0  0  0  0  0
   -4.1105   -0.1568    1.1265 C   0  0  0  0  0  0  0  0  0  0  0  0
   -4.7667   -0.3616    2.3469 C   0  0  0  0  0  0  0  0  0  0  0  0
   -6.1441   -0.3019    2.4283 C   0  0  0  0  0  0  0  0  0  0  0  0
   -6.8947   -0.0363    1.2919 C   0  0  0  0  0  0  0  0  0  0  0  0
   -6.2335    0.1599    0.1133 C   0  0  0  0  0  0  0  0  0  0  0  0
   -4.8400    0.1067   -0.0065 C   0  0  0  0  0  0  0  0  0  0  0  0
   -4.1801    0.3045   -1.2283 N   0  0  0  0  0  0  0  0  0  0  0  0
   -4.3936    1.3050   -2.0893 C   0  0  0  0  0  0  0  0  0  0  0  0
   -3.5688    1.1603   -3.1615 N   0  0  0  0  0  0  0  0  0  0  0  0
   -2.8762    0.0720   -2.9190 N   0  0  0  0  0  0  0  0  0  0  0  0
   -3.2422   -0.4528   -1.7469 N   0  0  0  0  0  0  0  0  0  0  0  0
   -1.8989    0.7459    0.4029 C   0  0  0  0  0  0  0  0  0  0  0  0
   -0.4940    0.6441    0.3529 C   0  0  0  0  0  0  0  0  0  0  0  0
    6.6189    0.9819    0.7898 H   0  0  0  0  0  0  0  0  0  0  0  0
    6.9377    2.6132    0.1306 H   0  0  0  0  0  0  0  0  0  0  0  0
    7.5475    1.0986   -0.7341 H   0  0  0  0  0  0  0  0  0  0  0  0
    5.2531    0.4429   -1.2259 H   0  0  0  0  0  0  0  0  0  0  0  0
    5.3855    2.1908   -1.7381 H   0  0  0  0  0  0  0  0  0  0  0  0
    4.2633    1.1376    0.8896 H   0  0  0  0  0  0  0  0  0  0  0  0
    4.4843    2.8631    0.5207 H   0  0  0  0  0  0  0  0  0  0  0  0
    2.8658    2.5265   -1.4552 H   0  0  0  0  0  0  0  0  0  0  0  0
    2.2118    2.0525    0.2034 H   0  0  0  0  0  0  0  0  0  0  0  0
    3.1835   -1.9072   -3.2704 H   0  0  0  0  0  0  0  0  0  0  0  0
    1.8495   -5.0683   -1.7594 H   0  0  0  0  0  0  0  0  0  0  0  0
    1.9373   -1.5019    1.4972 H   0  0  0  0  0  0  0  0  0  0  0  0
    2.1300    0.2462    1.4565 H   0  0  0  0  0  0  0  0  0  0  0  0
   -0.0728   -2.2286    2.0523 H   0  0  0  0  0  0  0  0  0  0  0  0
   -2.5224   -2.0295    2.1172 H   0  0  0  0  0  0  0  0  0  0  0  0
   -4.1997   -0.5691    3.2399 H   0  0  0  0  0  0  0  0  0  0  0  0
   -6.6568   -0.4616    3.3802 H   0  0  0  0  0  0  0  0  0  0  0  0
   -7.9746    0.0180    1.3186 H   0  0  0  0  0  0  0  0  0  0  0  0
   -6.8179    0.3705   -0.7910 H   0  0  0  0  0  0  0  0  0  0  0  0
   -5.1015    2.1257   -1.9925 H   0  0  0  0  0  0  0  0  0  0  0  0
   -2.3589    1.5842   -0.0593 H   0  0  0  0  0  0  0  0  0  0  0  0
    0.0651    1.4033   -0.1575 H   0  0  0  0  0  0  0  0  0  0  0  0
  1  2  1  0
  2  3  1  0
  3  4  1  0
  4  5  1  0
  5  6  2  0
  6  7  1  0
  7  8  2  0
  8  9  1  0
  9 10  2  0
  9 11  1  0
  8 12  1  0
 12 13  1  0
 13 14  1  0
 14 15  2  0
 15 16  1  0
 16 17  2  0
 17 18  1  0
 18 19  2  0
 19 20  1  0
 20 21  2  0
 21 22  1  0
 22 23  2  0
 23 24  1  0
 24 25  1  0
 25 26  2  0
 26 27  1  0
 27 28  2  0
 17 29  1  0
 29 30  2  0
 12  5  1  0
 30 14  1  0
 23 18  1  0
 28 24  1  0
  1 31  1  0
  1 32  1  0
  1 33  1  0
  2 34  1  0
  2 35  1  0
  3 36  1  0
  3 37  1  0
  4 38  1  0
  4 39  1  0
  7 40  1  0
 11 41  1  0
 13 42  1  0
 13 43  1  0
 15 44  1  0
 16 45  1  0
 19 46  1  0
 20 47  1  0
 21 48  1  0
 22 49  1  0
 25 50  1  0
 29 51  1  0
 30 52  1  0
M  END
$$$$
