
     RDKit          3D

 52 55  0  0  0  0  0  0  0  0999 V2000
    3.4222    0.3089    3.1574 O   0  0  0  0  0  0  0  0  0  0  0  0
    4.3919    0.3574    2.3770 C   0  0  0  0  0  0  0  0  0  0  0  0
    5.6754    0.3065    2.8736 O   0  0  0  0  0  0  0  0  0  0  0  0
    4.1847    0.4670    0.9470 C   0  0  0  0  0  0  0  0  0  0  0  0
    5.2747    0.5218    0.0787 C   0  0  0  0  0  0  0  0  0  0  0  0
    5.0550    0.6228   -1.2427 N   0  0  0  0  0  0  0  0  0  0  0  0
    3.8040    0.6714   -1.7272 C   0  0  0  0  0  0  0  0  0  0  0  0
    2.6917    0.6217   -0.9240 C   0  0  0  0  0  0  0  0  0  0  0  0
    1.3444    0.6987   -1.5289 C   0  0  0  0  0  0  0  0  0  0  0  0
    0.2876   -0.0165   -1.2252 C   0  0  0  0  0  0  0  0  0  0  0  0
    0.2122   -1.0852   -0.1886 C   0  0  0  0  0  0  0  0  0  0  0  0
    1.2089   -2.0179   -0.0221 C   0  0  0  0  0  0  0  0  0  0  0  0
    1.1590   -3.0128    0.9293 C   0  0  0  0  0  0  0  0  0  0  0  0
    2.2721   -4.0105    1.0764 C   0  0  0  0  0  0  0  0  0  0  0  0
    1.8671   -5.2787    0.7504 F   0  0  0  0  0  0  0  0  0  0  0  0
    2.7994   -4.0102    2.3304 F   0  0  0  0  0  0  0  0  0  0  0  0
    3.2731   -3.6597    0.1921 F   0  0  0  0  0  0  0  0  0  0  0  0
    0.0434   -3.0515    1.7401 C   0  0  0  0  0  0  0  0  0  0  0  0
   -0.9731   -2.1171    1.5853 C   0  0  0  0  0  0  0  0  0  0  0  0
   -0.9050   -1.1261    0.6254 C   0  0  0  0  0  0  0  0  0  0  0  0
   -1.8909   -0.1683    0.4303 O   0  0  0  0  0  0  0  0  0  0  0  0
   -3.0491   -0.2205    1.2726 C   0  0  0  0  0  0  0  0  0  0  0  0
   -4.0041    0.8504    0.9693 C   0  0  0  0  0  0  0  0  0  0  0  0
   -3.9934    2.0760    1.6260 C   0  0  0  0  0  0  0  0  0  0  0  0
   -4.9276    3.0283    1.2686 C   0  0  0  0  0  0  0  0  0  0  0  0
   -5.8790    2.8400    0.2938 C   0  0  0  0  0  0  0  0  0  0  0  0
   -5.8772    1.6090   -0.3540 C   0  0  0  0  0  0  0  0  0  0  0  0
   -4.9609    0.6385   -0.0229 C   0  0  0  0  0  0  0  0  0  0  0  0
   -0.8344    0.4173   -2.0791 C   0  0  0  0  0  0  0  0  0  0  0  0
   -0.1660    1.0262   -3.2844 C   0  0  0  0  0  0  0  0  0  0  0  0
    1.0406    1.6786   -2.6394 C   0  0  0  0  0  0  0  0  0  0  0  0
    2.9090    0.5183    0.4280 C   0  0  0  0  0  0  0  0  0  0  0  0
    5.8751    0.2166    3.8683 H   0  0  0  0  0  0  0  0  0  0  0  0
    6.2843    0.4840    0.5037 H   0  0  0  0  0  0  0  0  0  0  0  0
    3.6593    0.7507   -2.7934 H   0  0  0  0  0  0  0  0  0  0  0  0
    2.0867   -2.0080   -0.6495 H   0  0  0  0  0  0  0  0  0  0  0  0
   -0.0183   -3.8224    2.4916 H   0  0  0  0  0  0  0  0  0  0  0  0
   -1.8458   -2.1495    2.2214 H   0  0  0  0  0  0  0  0  0  0  0  0
   -2.7722   -0.2303    2.3472 H   0  0  0  0  0  0  0  0  0  0  0  0
   -3.5422   -1.2003    1.0182 H   0  0  0  0  0  0  0  0  0  0  0  0
   -3.2781    2.2799    2.3914 H   0  0  0  0  0  0  0  0  0  0  0  0
   -4.9563    4.0129    1.7634 H   0  0  0  0  0  0  0  0  0  0  0  0
   -6.6032    3.5990    0.0281 H   0  0  0  0  0  0  0  0  0  0  0  0
   -6.6254    1.4296   -1.1392 H   0  0  0  0  0  0  0  0  0  0  0  0
   -4.9708   -0.3261   -0.5431 H   0  0  0  0  0  0  0  0  0  0  0  0
   -1.4659    1.2102   -1.5961 H   0  0  0  0  0  0  0  0  0  0  0  0
   -1.4547   -0.4233   -2.4449 H   0  0  0  0  0  0  0  0  0  0  0  0
   -0.7978    1.7652   -3.8166 H   0  0  0  0  0  0  0  0  0  0  0  0
    0.1489    0.1874   -3.9378 H   0  0  0  0  0  0  0  0  0  0  0  0
    0.8631    2.6855   -2.2738 H   0  0  0  0  0  0  0  0  0  0  0  0
    1.8867    1.5782   -3.3503 H   0  0  0  0  0  0  0  0  0  0  0  0
    2.0708    0.4769    1.1000 H   0  0  0  0  0  0  0  0  0  0  0  0
  1  2  2  0
  2  3  1  0
  2  4  1  0
  4  5  2  0
  5  6  1  0
  6  7  2  0
  7  8  1  0
  8  9  1  0
  9 10  2  0
 10 11  1  0
 11 12  2  0
 12 13  1  0
 13 14  1  0
 14 15  1  0
 14 16  1  0
 14 17  1  0
 13 18  2  0
 18 19  1  0
 19 20  2  0
 20 21  1  0
 21 22  1  0
 22 23  1  0
 23 24  2  0
 24 25  1  0
 25 26  2  0
 26 27  1  0
 27 28  2  0
 10 29  1  0
 29 30  1  0
 30 31  1  0
  8 32  2  0
 32  4  1  0
 31  9  1  0
 20 11  1  0
 28 23  1  0
  3 33  1  0
  5 34  1  0
  7 35  1  0
 12 36  1  0
 18 37  1  0
 19 38  1  0
 22 39  1  0
 22 40  1  0
 24 41  1  0
 25 42  1  0
 26 43  1  0
 27 44  1  0
 28 45  1  0
 29 46  1  0
 29 47  1  0
 30 48  1  0
 30 49  1  0
 31 50  1  0
 31 51  1  0
 32 52  1  0
M  END
$$$$
