@<TRIPOS>MOLECULE
*****
 52 55 0 0 0
SMALL
GASTEIGER

@<TRIPOS>ATOM
      1 O           3.4222    0.3089    3.1574 O.2     1  UNL1       -0.2451
      2 C           4.3919    0.3574    2.3770 C.2     1  UNL1        0.3383
      3 O           5.6754    0.3065    2.8736 O.3     1  UNL1       -0.4771
      4 C           4.1847    0.4670    0.9470 C.ar    1  UNL1        0.0774
      5 C           5.2747    0.5218    0.0787 C.ar    1  UNL1        0.0416
      6 N           5.0550    0.6228   -1.2427 N.ar    1  UNL1       -0.2619
      7 C           3.8040    0.6714   -1.7272 C.ar    1  UNL1        0.0350
      8 C           2.6917    0.6217   -0.9240 C.ar    1  UNL1       -0.0027
      9 C           1.3444    0.6987   -1.5289 C.2     1  UNL1       -0.0349
     10 C           0.2876   -0.0165   -1.2252 C.2     1  UNL1       -0.0329
     11 C           0.2122   -1.0852   -0.1886 C.ar    1  UNL1        0.0207
     12 C           1.2089   -2.0179   -0.0221 C.ar    1  UNL1       -0.0392
     13 C           1.1590   -3.0128    0.9293 C.ar    1  UNL1        0.0556
     14 C           2.2721   -4.0105    1.0764 C.3     1  UNL1        0.4174
     15 F           1.8671   -5.2787    0.7504 F       1  UNL1       -0.1659
     16 F           2.7994   -4.0102    2.3304 F       1  UNL1       -0.1659
     17 F           3.2731   -3.6597    0.1921 F       1  UNL1       -0.1659
     18 C           0.0434   -3.0515    1.7401 C.ar    1  UNL1       -0.0466
     19 C          -0.9731   -2.1171    1.5853 C.ar    1  UNL1       -0.0188
     20 C          -0.9050   -1.1261    0.6254 C.ar    1  UNL1        0.1284
     21 O          -1.8909   -0.1683    0.4303 O.3     1  UNL1       -0.4868
     22 C          -3.0491   -0.2205    1.2726 C.3     1  UNL1        0.1147
     23 C          -4.0041    0.8504    0.9693 C.ar    1  UNL1       -0.0104
     24 C          -3.9934    2.0760    1.6260 C.ar    1  UNL1       -0.0554
     25 C          -4.9276    3.0283    1.2686 C.ar    1  UNL1       -0.0614
     26 C          -5.8790    2.8400    0.2938 C.ar    1  UNL1       -0.0617
     27 C          -5.8772    1.6090   -0.3540 C.ar    1  UNL1       -0.0614
     28 C          -4.9609    0.6385   -0.0229 C.ar    1  UNL1       -0.0554
     29 C          -0.8344    0.4173   -2.0791 C.3     1  UNL1       -0.0264
     30 C          -0.1660    1.0262   -3.2844 C.3     1  UNL1       -0.0450
     31 C           1.0406    1.6786   -2.6394 C.3     1  UNL1       -0.0265
     32 C           2.9090    0.5183    0.4280 C.ar    1  UNL1       -0.0374
     33 H           5.8751    0.2166    3.8683 H       1  UNL1        0.2954
     34 H           6.2843    0.4840    0.5037 H       1  UNL1        0.0838
     35 H           3.6593    0.7507   -2.7934 H       1  UNL1        0.0835
     36 H           2.0867   -2.0080   -0.6495 H       1  UNL1        0.0630
     37 H          -0.0183   -3.8224    2.4916 H       1  UNL1        0.0624
     38 H          -1.8458   -2.1495    2.2214 H       1  UNL1        0.0654
     39 H          -2.7722   -0.2303    2.3472 H       1  UNL1        0.0748
     40 H          -3.5422   -1.2003    1.0182 H       1  UNL1        0.0748
     41 H          -3.2781    2.2799    2.3914 H       1  UNL1        0.0621
     42 H          -4.9563    4.0129    1.7634 H       1  UNL1        0.0618
     43 H          -6.6032    3.5990    0.0281 H       1  UNL1        0.0618
     44 H          -6.6254    1.4296   -1.1392 H       1  UNL1        0.0618
     45 H          -4.9708   -0.3261   -0.5431 H       1  UNL1        0.0621
     46 H          -1.4659    1.2102   -1.5961 H       1  UNL1        0.0314
     47 H          -1.4547   -0.4233   -2.4449 H       1  UNL1        0.0314
     48 H          -0.7978    1.7652   -3.8166 H       1  UNL1        0.0272
     49 H           0.1489    0.1874   -3.9378 H       1  UNL1        0.0272
     50 H           0.8631    2.6855   -2.2738 H       1  UNL1        0.0314
     51 H           1.8867    1.5782   -3.3503 H       1  UNL1        0.0314
     52 H           2.0708    0.4769    1.1000 H       1  UNL1        0.0633
@<TRIPOS>BOND
     1     1     2    2
     2     2     3    1
     3     2     4    1
     4     4     5   ar
     5     5     6   ar
     6     6     7   ar
     7     7     8   ar
     8     8     9    1
     9     9    10    2
    10    10    11    1
    11    11    12   ar
    12    12    13   ar
    13    13    14    1
    14    14    15    1
    15    14    16    1
    16    14    17    1
    17    13    18   ar
    18    18    19   ar
    19    19    20   ar
    20    20    21    1
    21    21    22    1
    22    22    23    1
    23    23    24   ar
    24    24    25   ar
    25    25    26   ar
    26    26    27   ar
    27    27    28   ar
    28    10    29    1
    29    29    30    1
    30    30    31    1
    31     8    32   ar
    32    32     4   ar
    33    31     9    1
    34    20    11   ar
    35    28    23   ar
    36     3    33    1
    37     5    34    1
    38     7    35    1
    39    12    36    1
    40    18    37    1
    41    19    38    1
    42    22    39    1
    43    22    40    1
    44    24    41    1
    45    25    42    1
    46    26    43    1
    47    27    44    1
    48    28    45    1
    49    29    46    1
    50    29    47    1
    51    30    48    1
    52    30    49    1
    53    31    50    1
    54    31    51    1
    55    32    52    1
