@<TRIPOS>MOLECULE
*****
 60 64 0 0 0
SMALL
GASTEIGER

@<TRIPOS>ATOM
      1 O           2.5515   -3.7191   -0.9750 O.2     1  UNL1       -0.2817
      2 C           2.9085   -2.5193   -1.0275 C.2     1  UNL1        0.2496
      3 C           4.2018   -2.0389   -1.5363 C.2     1  UNL1        0.2916
      4 O           5.1577   -2.7217   -1.9980 O.2     1  UNL1       -0.2661
      5 N           4.1317   -0.6259   -1.3900 N.am    1  UNL1       -0.2582
      6 C           5.2224    0.2696   -1.7791 C.3     1  UNL1        0.0656
      7 C           6.1332    0.4625   -0.6262 C.ar    1  UNL1        0.1004
      8 C           7.2169   -0.3400   -0.3784 C.ar    1  UNL1        0.0503
      9 N           7.7758    0.1558    0.7398 N.ar    1  UNL1       -0.2489
     10 C           8.9653   -0.4072    1.3578 C.3     1  UNL1        0.0714
     11 C          10.2142    0.2386    0.8002 C.3     1  UNL1        0.1096
     12 F          10.3288    0.0561   -0.5596 F       1  UNL1       -0.2472
     13 N           7.0777    1.1902    1.1436 N.ar    1  UNL1       -0.0653
     14 N           6.0677    1.4013    0.3280 N.ar    1  UNL1       -0.1329
     15 C           2.8714   -0.2680   -0.8260 C.ar    1  UNL1        0.0482
     16 C           2.3259    0.9554   -0.4938 C.ar    1  UNL1       -0.0377
     17 C           1.0611    1.0579    0.0510 C.ar    1  UNL1       -0.0335
     18 C           0.2755   -0.0504    0.2925 C.ar    1  UNL1        0.1063
     19 S          -1.3316    0.0779    0.9800 S.O2    1  UNL1        0.0612
     20 O          -1.6336   -1.0750    1.8896 O.2     1  UNL1       -0.1528
     21 O          -1.4197    1.3251    1.8362 O.2     1  UNL1       -0.1528
     22 N          -2.5463    0.1818   -0.2150 N.3     1  UNL1       -0.1703
     23 C          -2.3312    1.3702   -1.0053 C.3     1  UNL1        0.0210
     24 C          -3.3297    2.4142   -0.4814 C.3     1  UNL1       -0.0370
     25 C          -4.5216    1.4605   -0.2270 C.3     1  UNL1       -0.0313
     26 C          -3.8347    0.3546    0.4720 C.3     1  UNL1        0.0659
     27 C          -4.4939   -0.9711    0.5562 C.3     1  UNL1        0.1068
     28 O          -5.6692   -1.1218    1.1584 O.3     1  UNL1       -0.4875
     29 C          -6.9620   -0.7920    1.0949 C.ar    1  UNL1        0.1558
     30 C          -7.5809   -0.0320    0.1240 C.ar    1  UNL1       -0.0144
     31 C          -8.9334    0.2631    0.1299 C.ar    1  UNL1       -0.0228
     32 C          -9.7513   -0.1971    1.1260 C.ar    1  UNL1        0.1264
     33 F         -11.0850    0.0785    1.1556 F       1  UNL1       -0.2054
     34 C          -9.1712   -0.9616    2.1149 C.ar    1  UNL1        0.0124
     35 C          -7.8422   -1.2546    2.1149 C.ar    1  UNL1        0.1675
     36 F          -7.2882   -2.0041    3.0897 F       1  UNL1       -0.2016
     37 C           0.8285   -1.2754   -0.0429 C.ar    1  UNL1       -0.0226
     38 C           2.0988   -1.3866   -0.5906 C.ar    1  UNL1        0.0502
     39 H           5.7106   -0.1512   -2.6590 H       1  UNL1        0.0534
     40 H           4.7690    1.2470   -2.0626 H       1  UNL1        0.0534
     41 H           7.5315   -1.1871   -0.9748 H       1  UNL1        0.0846
     42 H           8.9589   -1.4969    1.1656 H       1  UNL1        0.0535
     43 H           8.9356   -0.2150    2.4403 H       1  UNL1        0.0535
     44 H          10.2398    1.3079    1.0552 H       1  UNL1        0.0633
     45 H          11.0868   -0.2941    1.2648 H       1  UNL1        0.0633
     46 H           2.9481    1.8280   -0.6856 H       1  UNL1        0.0637
     47 H           0.6662    2.0358    0.3017 H       1  UNL1        0.0638
     48 H          -2.7091    1.1290   -2.0420 H       1  UNL1        0.0444
     49 H          -1.3018    1.7367   -1.0138 H       1  UNL1        0.0444
     50 H          -3.0152    2.8177    0.4967 H       1  UNL1        0.0279
     51 H          -3.5719    3.1686   -1.2308 H       1  UNL1        0.0279
     52 H          -5.2821    1.9992    0.3509 H       1  UNL1        0.0282
     53 H          -4.8485    1.1942   -1.2694 H       1  UNL1        0.0282
     54 H          -3.6487    0.6882    1.5345 H       1  UNL1        0.0513
     55 H          -4.5039   -1.4402   -0.5033 H       1  UNL1        0.0713
     56 H          -3.7320   -1.6491    1.0716 H       1  UNL1        0.0713
     57 H          -6.9619    0.3347   -0.7097 H       1  UNL1        0.0656
     58 H          -9.3567    0.8649   -0.6599 H       1  UNL1        0.0647
     59 H          -9.8364   -1.3202    2.9002 H       1  UNL1        0.0676
     60 H           0.2330   -2.1497    0.1375 H       1  UNL1        0.0645
@<TRIPOS>BOND
     1     1     2    2
     2     2     3    1
     3     3     4    2
     4     3     5   am
     5     5     6    1
     6     6     7    1
     7     7     8   ar
     8     8     9   ar
     9     9    10    1
    10    10    11    1
    11    11    12    1
    12     9    13   ar
    13    13    14   ar
    14     5    15    1
    15    15    16   ar
    16    16    17   ar
    17    17    18   ar
    18    18    19    1
    19    19    20    2
    20    19    21    2
    21    19    22    1
    22    22    23    1
    23    23    24    1
    24    24    25    1
    25    25    26    1
    26    26    27    1
    27    27    28    1
    28    28    29    1
    29    29    30   ar
    30    30    31   ar
    31    31    32   ar
    32    32    33    1
    33    32    34   ar
    34    34    35   ar
    35    35    36    1
    36    18    37   ar
    37    37    38   ar
    38    38     2    1
    39    14     7   ar
    40    38    15   ar
    41    26    22    1
    42    35    29   ar
    43     6    39    1
    44     6    40    1
    45     8    41    1
    46    10    42    1
    47    10    43    1
    48    11    44    1
    49    11    45    1
    50    16    46    1
    51    17    47    1
    52    23    48    1
    53    23    49    1
    54    24    50    1
    55    24    51    1
    56    25    52    1
    57    25    53    1
    58    26    54    1
    59    27    55    1
    60    27    56    1
    61    30    57    1
    62    31    58    1
    63    34    59    1
    64    37    60    1
