
     RDKit          3D

 60 64  0  0  0  0  0  0  0  0999 V2000
    2.5515   -3.7191   -0.9750 O   0  0  0  0  0  0  0  0  0  0  0  0
    2.9085   -2.5193   -1.0275 C   0  0  0  0  0  0  0  0  0  0  0  0
    4.2018   -2.0389   -1.5363 C   0  0  0  0  0  0  0  0  0  0  0  0
    5.1577   -2.7217   -1.9980 O   0  0  0  0  0  0  0  0  0  0  0  0
    4.1317   -0.6259   -1.3900 N   0  0  0  0  0  0  0  0  0  0  0  0
    5.2224    0.2696   -1.7791 C   0  0  0  0  0  0  0  0  0  0  0  0
    6.1332    0.4625   -0.6262 C   0  0  0  0  0  0  0  0  0  0  0  0
    7.2169   -0.3400   -0.3784 C   0  0  0  0  0  0  0  0  0  0  0  0
    7.7758    0.1558    0.7398 N   0  0  0  0  0  0  0  0  0  0  0  0
    8.9653   -0.4072    1.3578 C   0  0  0  0  0  0  0  0  0  0  0  0
   10.2142    0.2386    0.8002 C   0  0  0  0  0  0  0  0  0  0  0  0
   10.3288    0.0561   -0.5596 F   0  0  0  0  0  0  0  0  0  0  0  0
    7.0777    1.1902    1.1436 N   0  0  0  0  0  0  0  0  0  0  0  0
    6.0677    1.4013    0.3280 N   0  0  0  0  0  0  0  0  0  0  0  0
    2.8714   -0.2680   -0.8260 C   0  0  0  0  0  0  0  0  0  0  0  0
    2.3259    0.9554   -0.4938 C   0  0  0  0  0  0  0  0  0  0  0  0
    1.0611    1.0579    0.0510 C   0  0  0  0  0  0  0  0  0  0  0  0
    0.2755   -0.0504    0.2925 C   0  0  0  0  0  0  0  0  0  0  0  0
   -1.3316    0.0779    0.9800 S   0  0  0  0  0  6  0  0  0  0  0  0
   -1.6336   -1.0750    1.8896 O   0  0  0  0  0  0  0  0  0  0  0  0
   -1.4197    1.3251    1.8362 O   0  0  0  0  0  0  0  0  0  0  0  0
   -2.5463    0.1818   -0.2150 N   0  0  0  0  0  0  0  0  0  0  0  0
   -2.3312    1.3702   -1.0053 C   0  0  0  0  0  0  0  0  0  0  0  0
   -3.3297    2.4142   -0.4814 C   0  0  0  0  0  0  0  0  0  0  0  0
   -4.5216    1.4605   -0.2270 C   0  0  0  0  0  0  0  0  0  0  0  0
   -3.8347    0.3546    0.4720 C   0  0  1  0  0  0  0  0  0  0  0  0
   -4.4939   -0.9711    0.5562 C   0  0  0  0  0  0  0  0  0  0  0  0
   -5.6692   -1.1218    1.1584 O   0  0  0  0  0  0  0  0  0  0  0  0
   -6.9620   -0.7920    1.0949 C   0  0  0  0  0  0  0  0  0  0  0  0
   -7.5809   -0.0320    0.1240 C   0  0  0  0  0  0  0  0  0  0  0  0
   -8.9334    0.2631    0.1299 C   0  0  0  0  0  0  0  0  0  0  0  0
   -9.7513   -0.1971    1.1260 C   0  0  0  0  0  0  0  0  0  0  0  0
  -11.0850    0.0785    1.1556 F   0  0  0  0  0  0  0  0  0  0  0  0
   -9.1712   -0.9616    2.1149 C   0  0  0  0  0  0  0  0  0  0  0  0
   -7.8422   -1.2546    2.1149 C   0  0  0  0  0  0  0  0  0  0  0  0
   -7.2882   -2.0041    3.0897 F   0  0  0  0  0  0  0  0  0  0  0  0
    0.8285   -1.2754   -0.0429 C   0  0  0  0  0  0  0  0  0  0  0  0
    2.0988   -1.3866   -0.5906 C   0  0  0  0  0  0  0  0  0  0  0  0
    5.7106   -0.1512   -2.6590 H   0  0  0  0  0  0  0  0  0  0  0  0
    4.7690    1.2470   -2.0626 H   0  0  0  0  0  0  0  0  0  0  0  0
    7.5315   -1.1871   -0.9748 H   0  0  0  0  0  0  0  0  0  0  0  0
    8.9589   -1.4969    1.1656 H   0  0  0  0  0  0  0  0  0  0  0  0
    8.9356   -0.2150    2.4403 H   0  0  0  0  0  0  0  0  0  0  0  0
   10.2398    1.3079    1.0552 H   0  0  0  0  0  0  0  0  0  0  0  0
   11.0868   -0.2941    1.2648 H   0  0  0  0  0  0  0  0  0  0  0  0
    2.9481    1.8280   -0.6856 H   0  0  0  0  0  0  0  0  0  0  0  0
    0.6662    2.0358    0.3017 H   0  0  0  0  0  0  0  0  0  0  0  0
   -2.7091    1.1290   -2.0420 H   0  0  0  0  0  0  0  0  0  0  0  0
   -1.3018    1.7367   -1.0138 H   0  0  0  0  0  0  0  0  0  0  0  0
   -3.0152    2.8177    0.4967 H   0  0  0  0  0  0  0  0  0  0  0  0
   -3.5719    3.1686   -1.2308 H   0  0  0  0  0  0  0  0  0  0  0  0
   -5.2821    1.9992    0.3509 H   0  0  0  0  0  0  0  0  0  0  0  0
   -4.8485    1.1942   -1.2694 H   0  0  0  0  0  0  0  0  0  0  0  0
   -3.6487    0.6882    1.5345 H   0  0  0  0  0  0  0  0  0  0  0  0
   -4.5039   -1.4402   -0.5033 H   0  0  0  0  0  0  0  0  0  0  0  0
   -3.7320   -1.6491    1.0716 H   0  0  0  0  0  0  0  0  0  0  0  0
   -6.9619    0.3347   -0.7097 H   0  0  0  0  0  0  0  0  0  0  0  0
   -9.3567    0.8649   -0.6599 H   0  0  0  0  0  0  0  0  0  0  0  0
   -9.8364   -1.3202    2.9002 H   0  0  0  0  0  0  0  0  0  0  0  0
    0.2330   -2.1497    0.1375 H   0  0  0  0  0  0  0  0  0  0  0  0
  1  2  2  0
  2  3  1  0
  3  4  2  0
  3  5  1  0
  5  6  1  0
  6  7  1  0
  7  8  2  0
  8  9  1  0
  9 10  1  0
 10 11  1  0
 11 12  1  0
  9 13  1  0
 13 14  2  0
  5 15  1  0
 15 16  2  0
 16 17  1  0
 17 18  2  0
 18 19  1  0
 19 20  2  0
 19 21  2  0
 19 22  1  0
 22 23  1  0
 23 24  1  0
 24 25  1  0
 25 26  1  0
 26 27  1  0
 27 28  1  0
 28 29  1  0
 29 30  2  0
 30 31  1  0
 31 32  2  0
 32 33  1  0
 32 34  1  0
 34 35  2  0
 35 36  1  0
 18 37  1  0
 37 38  2  0
 38  2  1  0
 14  7  1  0
 38 15  1  0
 26 22  1  0
 35 29  1  0
  6 39  1  0
  6 40  1  0
  8 41  1  0
 10 42  1  0
 10 43  1  0
 11 44  1  0
 11 45  1  0
 16 46  1  0
 17 47  1  0
 23 48  1  0
 23 49  1  0
 24 50  1  0
 24 51  1  0
 25 52  1  0
 25 53  1  0
 26 54  1  1
 27 55  1  0
 27 56  1  0
 30 57  1  0
 31 58  1  0
 34 59  1  0
 37 60  1  0
M  END
$$$$
