
     RDKit          3D

 72 76  0  0  0  0  0  0  0  0999 V2000
    7.4525    2.1311    0.9749 C   0  0  0  0  0  0  0  0  0  0  0  0
    6.4030    1.1687    1.0519 N   0  0  0  0  0  0  0  0  0  0  0  0
    5.1826    1.5990    1.6227 C   0  0  0  0  0  0  0  0  0  0  0  0
    3.9371    1.3508    0.8477 C   0  0  0  0  0  0  0  0  0  0  0  0
    4.0056    0.3448   -0.1538 N   0  0  0  0  0  0  0  0  0  0  0  0
    3.5677   -0.9585    0.2127 C   0  0  0  0  0  0  0  0  0  0  0  0
    2.0827   -1.0733    0.4583 C   0  0  0  0  0  0  0  0  0  0  0  0
    1.2818   -0.7082   -0.7700 C   0  0  0  0  0  0  0  0  0  0  0  0
   -0.1505   -0.8724   -0.3878 N   0  0  0  0  0  0  0  0  0  0  0  0
   -0.6802   -2.1527   -0.6172 C   0  0  0  0  0  0  0  0  0  0  0  0
    0.1244   -3.0266   -1.1307 O   0  0  0  0  0  0  0  0  0  0  0  0
   -1.9729   -2.6186   -0.3642 N   0  0  0  0  0  0  0  0  0  0  0  0
   -2.5158   -3.9061   -0.5913 C   0  0  0  0  0  0  0  0  0  0  0  0
   -1.8419   -4.9858   -1.0857 C   0  0  0  0  0  0  0  0  0  0  0  0
   -2.4263   -6.2389   -1.3012 C   0  0  0  0  0  0  0  0  0  0  0  0
   -3.7554   -6.4055   -1.0015 C   0  0  0  0  0  0  0  0  0  0  0  0
   -4.3082   -7.6352   -1.2185 F   0  0  0  0  0  0  0  0  0  0  0  0
   -4.4827   -5.3535   -0.5008 C   0  0  0  0  0  0  0  0  0  0  0  0
   -5.9167   -5.5841   -0.1939 C   0  0  0  0  0  0  0  0  0  0  0  0
   -6.6151   -5.9674   -1.3272 F   0  0  0  0  0  0  0  0  0  0  0  0
   -6.0856   -6.5884    0.7454 F   0  0  0  0  0  0  0  0  0  0  0  0
   -6.5218   -4.4471    0.3044 F   0  0  0  0  0  0  0  0  0  0  0  0
   -3.8749   -4.1422   -0.3040 C   0  0  0  0  0  0  0  0  0  0  0  0
   -0.7926    0.2423    0.1450 C   0  0  2  0  0  0  0  0  0  0  0  0
   -1.2302    0.1946    1.5966 C   0  0  0  0  0  0  0  0  0  0  0  0
   -1.6896    1.6666    1.7332 C   0  0  0  0  0  0  0  0  0  0  0  0
   -2.4452    1.8522    0.4280 C   0  0  2  0  0  0  0  0  0  0  0  0
   -2.7120    3.2565    0.0407 C   0  0  0  0  0  0  0  0  0  0  0  0
   -1.8426    3.9755   -0.7685 C   0  0  0  0  0  0  0  0  0  0  0  0
   -2.1208    5.2818   -1.1062 C   0  0  0  0  0  0  0  0  0  0  0  0
   -3.2630    5.9415   -0.6661 C   0  0  0  0  0  0  0  0  0  0  0  0
   -3.5280    7.2908   -1.0293 C   0  0  0  0  0  0  0  0  0  0  0  0
   -3.7460    8.4266   -1.3148 N   0  0  0  0  0  0  0  0  0  0  0  0
   -4.1223    5.2198    0.1380 C   0  0  0  0  0  0  0  0  0  0  0  0
   -3.8431    3.9126    0.4755 C   0  0  0  0  0  0  0  0  0  0  0  0
   -3.3346    0.7849   -0.0535 C   0  0  0  0  0  0  0  0  0  0  0  0
   -1.9457    0.8601   -0.5708 C   0  0  2  0  0  0  0  0  0  0  0  0
    5.2070    0.3758   -0.9277 C   0  0  0  0  0  0  0  0  0  0  0  0
    6.3548    0.1990    0.0203 C   0  0  0  0  0  0  0  0  0  0  0  0
    8.2792    1.7667    0.3556 H   0  0  0  0  0  0  0  0  0  0  0  0
    7.8529    2.2639    2.0201 H   0  0  0  0  0  0  0  0  0  0  0  0
    7.1321    3.1148    0.5998 H   0  0  0  0  0  0  0  0  0  0  0  0
    5.0946    1.2388    2.6923 H   0  0  0  0  0  0  0  0  0  0  0  0
    5.2654    2.7205    1.7574 H   0  0  0  0  0  0  0  0  0  0  0  0
    3.1455    1.0532    1.5886 H   0  0  0  0  0  0  0  0  0  0  0  0
    3.5198    2.3026    0.4030 H   0  0  0  0  0  0  0  0  0  0  0  0
    4.1273   -1.2609    1.1331 H   0  0  0  0  0  0  0  0  0  0  0  0
    3.8993   -1.6887   -0.5674 H   0  0  0  0  0  0  0  0  0  0  0  0
    1.8579   -2.1591    0.6750 H   0  0  0  0  0  0  0  0  0  0  0  0
    1.8155   -0.4485    1.3184 H   0  0  0  0  0  0  0  0  0  0  0  0
    1.5034   -1.3757   -1.6048 H   0  0  0  0  0  0  0  0  0  0  0  0
    1.4236    0.3333   -1.0643 H   0  0  0  0  0  0  0  0  0  0  0  0
   -2.6439   -1.9218    0.0586 H   0  0  0  0  0  0  0  0  0  0  0  0
   -0.7874   -4.9159   -1.3389 H   0  0  0  0  0  0  0  0  0  0  0  0
   -1.8198   -7.0589   -1.7021 H   0  0  0  0  0  0  0  0  0  0  0  0
   -4.4840   -3.3318    0.0933 H   0  0  0  0  0  0  0  0  0  0  0  0
   -0.0119    1.1222    0.1789 H   0  0  0  0  0  0  0  0  0  0  0  0
   -2.0539   -0.4744    1.8044 H   0  0  0  0  0  0  0  0  0  0  0  0
   -0.3490    0.0486    2.2517 H   0  0  0  0  0  0  0  0  0  0  0  0
   -2.3072    1.8144    2.6225 H   0  0  0  0  0  0  0  0  0  0  0  0
   -0.7738    2.2860    1.6866 H   0  0  0  0  0  0  0  0  0  0  0  0
   -0.9582    3.4926   -1.1204 H   0  0  0  0  0  0  0  0  0  0  0  0
   -1.4494    5.8689   -1.7448 H   0  0  0  0  0  0  0  0  0  0  0  0
   -5.0229    5.7160    0.4950 H   0  0  0  0  0  0  0  0  0  0  0  0
   -4.5332    3.3452    1.1169 H   0  0  0  0  0  0  0  0  0  0  0  0
   -3.6718    0.0643    0.7057 H   0  0  0  0  0  0  0  0  0  0  0  0
   -4.1307    1.1331   -0.7754 H   0  0  0  0  0  0  0  0  0  0  0  0
   -1.7732    1.2112   -1.6206 H   0  0  0  0  0  0  0  0  0  0  0  0
    5.1909   -0.4437   -1.6617 H   0  0  0  0  0  0  0  0  0  0  0  0
    5.2595    1.3603   -1.4375 H   0  0  0  0  0  0  0  0  0  0  0  0
    6.2430   -0.8125    0.4929 H   0  0  0  0  0  0  0  0  0  0  0  0
    7.3249    0.2252   -0.5299 H   0  0  0  0  0  0  0  0  0  0  0  0
  1  2  1  0
  2  3  1  0
  3  4  1  0
  4  5  1  0
  5  6  1  0
  6  7  1  0
  7  8  1  0
  8  9  1  0
  9 10  1  0
 10 11  2  0
 10 12  1  0
 12 13  1  0
 13 14  2  0
 14 15  1  0
 15 16  2  0
 16 17  1  0
 16 18  1  0
 18 19  1  0
 19 20  1  0
 19 21  1  0
 19 22  1  0
 18 23  2  0
  9 24  1  0
 24 25  1  0
 25 26  1  0
 26 27  1  0
 27 28  1  6
 28 29  2  0
 29 30  1  0
 30 31  2  0
 31 32  1  0
 32 33  3  0
 31 34  1  0
 34 35  2  0
 27 36  1  0
 36 37  1  0
  5 38  1  0
 38 39  1  0
 39  2  1  0
 23 13  1  0
 37 24  1  0
 37 27  1  0
 35 28  1  0
  1 40  1  0
  1 41  1  0
  1 42  1  0
  3 43  1  0
  3 44  1  0
  4 45  1  0
  4 46  1  0
  6 47  1  0
  6 48  1  0
  7 49  1  0
  7 50  1  0
  8 51  1  0
  8 52  1  0
 12 53  1  0
 14 54  1  0
 15 55  1  0
 23 56  1  0
 24 57  1  1
 25 58  1  0
 25 59  1  0
 26 60  1  0
 26 61  1  0
 29 62  1  0
 30 63  1  0
 34 64  1  0
 35 65  1  0
 36 66  1  0
 36 67  1  0
 37 68  1  6
 38 69  1  0
 38 70  1  0
 39 71  1  0
 39 72  1  0
M  END
$$$$
