@<TRIPOS>MOLECULE
*****
 72 76 0 0 0
SMALL
GASTEIGER

@<TRIPOS>ATOM
      1 C           7.4525    2.1311    0.9749 C.3     1  UNL1       -0.0127
      2 N           6.4030    1.1687    1.0519 N.3     1  UNL1       -0.3029
      3 C           5.1826    1.5990    1.6227 C.3     1  UNL1        0.0114
      4 C           3.9371    1.3508    0.8477 C.3     1  UNL1        0.0117
      5 N           4.0056    0.3448   -0.1538 N.3     1  UNL1       -0.2999
      6 C           3.5677   -0.9585    0.2127 C.3     1  UNL1        0.0004
      7 C           2.0827   -1.0733    0.4583 C.3     1  UNL1       -0.0243
      8 C           1.2818   -0.7082   -0.7700 C.3     1  UNL1        0.0176
      9 N          -0.1505   -0.8724   -0.3878 N.am    1  UNL1       -0.2820
     10 C          -0.6802   -2.1527   -0.6172 C.2     1  UNL1        0.3067
     11 O           0.1244   -3.0266   -1.1307 O.2     1  UNL1       -0.2523
     12 N          -1.9729   -2.6186   -0.3642 N.am    1  UNL1       -0.2693
     13 C          -2.5158   -3.9061   -0.5913 C.ar    1  UNL1        0.0355
     14 C          -1.8419   -4.9858   -1.0857 C.ar    1  UNL1       -0.0377
     15 C          -2.4263   -6.2389   -1.3012 C.ar    1  UNL1       -0.0241
     16 C          -3.7554   -6.4055   -1.0015 C.ar    1  UNL1        0.1351
     17 F          -4.3082   -7.6352   -1.2185 F       1  UNL1       -0.2049
     18 C          -4.4827   -5.3535   -0.5008 C.ar    1  UNL1        0.0916
     19 C          -5.9167   -5.5841   -0.1939 C.3     1  UNL1        0.4201
     20 F          -6.6151   -5.9674   -1.3272 F       1  UNL1       -0.1658
     21 F          -6.0856   -6.5884    0.7454 F       1  UNL1       -0.1658
     22 F          -6.5218   -4.4471    0.3044 F       1  UNL1       -0.1658
     23 C          -3.8749   -4.1422   -0.3040 C.ar    1  UNL1       -0.0260
     24 C          -0.7926    0.2423    0.1450 C.3     1  UNL1        0.0311
     25 C          -1.2302    0.1946    1.5966 C.3     1  UNL1       -0.0331
     26 C          -1.6896    1.6666    1.7332 C.3     1  UNL1       -0.0413
     27 C          -2.4452    1.8522    0.4280 C.3     1  UNL1        0.0007
     28 C          -2.7120    3.2565    0.0407 C.ar    1  UNL1       -0.0408
     29 C          -1.8426    3.9755   -0.7685 C.ar    1  UNL1       -0.0568
     30 C          -2.1208    5.2818   -1.1062 C.ar    1  UNL1       -0.0441
     31 C          -3.2630    5.9415   -0.6661 C.ar    1  UNL1        0.0518
     32 C          -3.5280    7.2908   -1.0293 C.1     1  UNL1        0.0992
     33 N          -3.7460    8.4266   -1.3148 N.1     1  UNL1       -0.1909
     34 C          -4.1223    5.2198    0.1380 C.ar    1  UNL1       -0.0441
     35 C          -3.8431    3.9126    0.4755 C.ar    1  UNL1       -0.0568
     36 C          -3.3346    0.7849   -0.0535 C.3     1  UNL1       -0.0377
     37 C          -1.9457    0.8601   -0.5708 C.3     1  UNL1       -0.0119
     38 C           5.2070    0.3758   -0.9277 C.3     1  UNL1        0.0117
     39 C           6.3548    0.1990    0.0203 C.3     1  UNL1        0.0114
     40 H           8.2792    1.7667    0.3556 H       1  UNL1        0.0391
     41 H           7.8529    2.2639    2.0201 H       1  UNL1        0.0391
     42 H           7.1321    3.1148    0.5998 H       1  UNL1        0.0391
     43 H           5.0946    1.2388    2.6923 H       1  UNL1        0.0439
     44 H           5.2654    2.7205    1.7574 H       1  UNL1        0.0439
     45 H           3.1455    1.0532    1.5886 H       1  UNL1        0.0439
     46 H           3.5198    2.3026    0.4030 H       1  UNL1        0.0439
     47 H           4.1273   -1.2609    1.1331 H       1  UNL1        0.0427
     48 H           3.8993   -1.6887   -0.5674 H       1  UNL1        0.0427
     49 H           1.8579   -2.1591    0.6750 H       1  UNL1        0.0293
     50 H           1.8155   -0.4485    1.3184 H       1  UNL1        0.0293
     51 H           1.5034   -1.3757   -1.6048 H       1  UNL1        0.0465
     52 H           1.4236    0.3333   -1.0643 H       1  UNL1        0.0465
     53 H          -2.6439   -1.9218    0.0586 H       1  UNL1        0.1564
     54 H          -0.7874   -4.9159   -1.3389 H       1  UNL1        0.0637
     55 H          -1.8198   -7.0589   -1.7021 H       1  UNL1        0.0647
     56 H          -4.4840   -3.3318    0.0933 H       1  UNL1        0.0642
     57 H          -0.0119    1.1222    0.1789 H       1  UNL1        0.0504
     58 H          -2.0539   -0.4744    1.8044 H       1  UNL1        0.0283
     59 H          -0.3490    0.0486    2.2517 H       1  UNL1        0.0283
     60 H          -2.3072    1.8144    2.6225 H       1  UNL1        0.0274
     61 H          -0.7738    2.2860    1.6866 H       1  UNL1        0.0274
     62 H          -0.9582    3.4926   -1.1204 H       1  UNL1        0.0621
     63 H          -1.4494    5.8689   -1.7448 H       1  UNL1        0.0630
     64 H          -5.0229    5.7160    0.4950 H       1  UNL1        0.0630
     65 H          -4.5332    3.3452    1.1169 H       1  UNL1        0.0621
     66 H          -3.6718    0.0643    0.7057 H       1  UNL1        0.0277
     67 H          -4.1307    1.1331   -0.7754 H       1  UNL1        0.0277
     68 H          -1.7732    1.2112   -1.6206 H       1  UNL1        0.0327
     69 H           5.1909   -0.4437   -1.6617 H       1  UNL1        0.0439
     70 H           5.2595    1.3603   -1.4375 H       1  UNL1        0.0439
     71 H           6.2430   -0.8125    0.4929 H       1  UNL1        0.0439
     72 H           7.3249    0.2252   -0.5299 H       1  UNL1        0.0439
@<TRIPOS>BOND
     1     1     2    1
     2     2     3    1
     3     3     4    1
     4     4     5    1
     5     5     6    1
     6     6     7    1
     7     7     8    1
     8     8     9    1
     9     9    10   am
    10    10    11    2
    11    10    12   am
    12    12    13    1
    13    13    14   ar
    14    14    15   ar
    15    15    16   ar
    16    16    17    1
    17    16    18   ar
    18    18    19    1
    19    19    20    1
    20    19    21    1
    21    19    22    1
    22    18    23   ar
    23     9    24    1
    24    24    25    1
    25    25    26    1
    26    26    27    1
    27    27    28    1
    28    28    29   ar
    29    29    30   ar
    30    30    31   ar
    31    31    32    1
    32    32    33    3
    33    31    34   ar
    34    34    35   ar
    35    27    36    1
    36    36    37    1
    37     5    38    1
    38    38    39    1
    39    39     2    1
    40    23    13   ar
    41    37    24    1
    42    37    27    1
    43    35    28   ar
    44     1    40    1
    45     1    41    1
    46     1    42    1
    47     3    43    1
    48     3    44    1
    49     4    45    1
    50     4    46    1
    51     6    47    1
    52     6    48    1
    53     7    49    1
    54     7    50    1
    55     8    51    1
    56     8    52    1
    57    12    53    1
    58    14    54    1
    59    15    55    1
    60    23    56    1
    61    24    57    1
    62    25    58    1
    63    25    59    1
    64    26    60    1
    65    26    61    1
    66    29    62    1
    67    30    63    1
    68    34    64    1
    69    35    65    1
    70    36    66    1
    71    36    67    1
    72    37    68    1
    73    38    69    1
    74    38    70    1
    75    39    71    1
    76    39    72    1
