@<TRIPOS>MOLECULE
*****
 26 27 0 0 0
SMALL
GASTEIGER

@<TRIPOS>ATOM
      1 C          -1.3678   -0.6156    1.3622 C.3     1  UNL1       -0.0122
      2 N          -1.1381   -0.9401   -0.0080 N.3     1  UNL1       -0.2984
      3 C          -2.3878   -0.6563   -0.7308 C.3     1  UNL1       -0.0008
      4 C          -2.3742    0.8725   -0.8715 C.3     1  UNL1       -0.0385
      5 C          -0.9271    1.2599   -0.6462 C.3     1  UNL1       -0.0320
      6 C          -0.2495   -0.1034   -0.7240 C.3     1  UNL1        0.0368
      7 C           1.1278   -0.0069   -0.2341 C.ar    1  UNL1       -0.0122
      8 C           1.8630    1.1764   -0.0927 C.ar    1  UNL1        0.0322
      9 N           3.1112    1.2430    0.3534 N.ar    1  UNL1       -0.2629
     10 C           3.7212    0.0879    0.6975 C.ar    1  UNL1        0.0276
     11 C           3.0927   -1.1562    0.6013 C.ar    1  UNL1       -0.0433
     12 C           1.8062   -1.1568    0.1342 C.ar    1  UNL1       -0.0542
     13 H          -1.7758   -1.5545    1.8409 H       1  UNL1        0.0391
     14 H          -2.1758    0.1443    1.5050 H       1  UNL1        0.0391
     15 H          -0.4706   -0.3792    1.9603 H       1  UNL1        0.0391
     16 H          -3.2749   -0.9089   -0.1500 H       1  UNL1        0.0427
     17 H          -2.3638   -1.0759   -1.7452 H       1  UNL1        0.0427
     18 H          -3.0085    1.3530   -0.1013 H       1  UNL1        0.0278
     19 H          -2.6387    1.1933   -1.9000 H       1  UNL1        0.0278
     20 H          -0.7346    1.6872    0.3574 H       1  UNL1        0.0284
     21 H          -0.5510    1.9201   -1.4471 H       1  UNL1        0.0284
     22 H          -0.2561   -0.4005   -1.7782 H       1  UNL1        0.0512
     23 H           1.3336    2.0964   -0.3826 H       1  UNL1        0.0833
     24 H           4.7373    0.0727    1.0680 H       1  UNL1        0.0829
     25 H           3.6199   -2.0551    0.8881 H       1  UNL1        0.0633
     26 H           1.2812   -2.0972    0.0434 H       1  UNL1        0.0622
@<TRIPOS>BOND
     1     1     2    1
     2     2     3    1
     3     3     4    1
     4     4     5    1
     5     5     6    1
     6     6     7    1
     7     7     8   ar
     8     8     9   ar
     9     9    10   ar
    10    10    11   ar
    11    11    12   ar
    12     6     2    1
    13    12     7   ar
    14     1    13    1
    15     1    14    1
    16     1    15    1
    17     3    16    1
    18     3    17    1
    19     4    18    1
    20     4    19    1
    21     5    20    1
    22     5    21    1
    23     6    22    1
    24     8    23    1
    25    10    24    1
    26    11    25    1
    27    12    26    1
