
     RDKit          3D

 40 43  0  0  0  0  0  0  0  0999 V2000
    4.2259    2.0332    1.0130 O   0  0  0  0  0  0  0  0  0  0  0  0
    4.2396    0.8180    0.3044 C   0  0  0  0  0  0  0  0  0  0  0  0
    5.4710    0.9272    0.6039 O   0  0  0  0  0  0  0  0  0  0  0  0
    4.0531   -0.4379   -0.4662 C   0  0  0  0  0  0  0  0  0  0  0  0
    2.5790   -0.6163   -0.8509 C   0  0  0  0  0  0  0  0  0  0  0  0
    1.7366   -0.6789    0.3748 C   0  0  0  0  0  0  0  0  0  0  0  0
    0.3427   -0.8441    0.2034 N   0  0  0  0  0  0  0  0  0  0  0  0
   -0.5857    0.1041    0.0200 C   0  0  0  0  0  0  0  0  0  0  0  0
   -1.9353   -0.1532   -0.0997 C   0  0  0  0  0  0  0  0  0  0  0  0
   -2.6670    1.0906   -0.2963 C   0  0  0  0  0  0  0  0  0  0  0  0
   -3.9175    1.2554   -0.4443 O   0  0  0  0  0  0  0  0  0  0  0  0
   -1.6773    2.1345   -0.2918 C   0  0  0  0  0  0  0  0  0  0  0  0
   -1.8286    3.4863   -0.4446 C   0  0  0  0  0  0  0  0  0  0  0  0
   -0.7381    4.3288   -0.4185 C   0  0  0  0  0  0  0  0  0  0  0  0
    0.5096    3.7291   -0.2300 C   0  0  0  0  0  0  0  0  0  0  0  0
    0.6354    2.3653   -0.0784 C   0  0  0  0  0  0  0  0  0  0  0  0
   -0.4534    1.5379   -0.1049 C   0  0  0  0  0  0  0  0  0  0  0  0
   -2.4092   -1.4414   -0.0351 C   0  0  0  0  0  0  0  0  0  0  0  0
   -3.7371   -1.7531   -0.1477 C   0  0  0  0  0  0  0  0  0  0  0  0
   -4.1795   -3.0636   -0.0782 C   0  0  0  0  0  0  0  0  0  0  0  0
   -3.2497   -4.0634    0.1086 C   0  0  0  0  0  0  0  0  0  0  0  0
   -1.9219   -3.7445    0.2205 C   0  0  0  0  0  0  0  0  0  0  0  0
   -1.4828   -2.4476    0.1519 C   0  0  0  0  0  0  0  0  0  0  0  0
   -0.1738   -2.1002    0.2597 C   0  0  0  0  0  0  0  0  0  0  0  0
    0.6196   -3.0664    0.4290 O   0  0  0  0  0  0  0  0  0  0  0  0
    3.8682    2.8854    0.5549 H   0  0  0  0  0  0  0  0  0  0  0  0
    4.6407   -0.3455   -1.3789 H   0  0  0  0  0  0  0  0  0  0  0  0
    4.3713   -1.2678    0.2150 H   0  0  0  0  0  0  0  0  0  0  0  0
    2.3325    0.3179   -1.4035 H   0  0  0  0  0  0  0  0  0  0  0  0
    2.4366   -1.4298   -1.5538 H   0  0  0  0  0  0  0  0  0  0  0  0
    1.9430    0.1328    1.0888 H   0  0  0  0  0  0  0  0  0  0  0  0
    2.1419   -1.5955    0.9453 H   0  0  0  0  0  0  0  0  0  0  0  0
   -2.8092    3.9230   -0.5894 H   0  0  0  0  0  0  0  0  0  0  0  0
   -0.8760    5.3815   -0.5394 H   0  0  0  0  0  0  0  0  0  0  0  0
    1.3204    4.4697   -0.2226 H   0  0  0  0  0  0  0  0  0  0  0  0
    1.6562    2.1106    0.0414 H   0  0  0  0  0  0  0  0  0  0  0  0
   -4.4752   -1.0054   -0.2919 H   0  0  0  0  0  0  0  0  0  0  0  0
   -5.2284   -3.3657   -0.1621 H   0  0  0  0  0  0  0  0  0  0  0  0
   -3.5659   -5.0804    0.1654 H   0  0  0  0  0  0  0  0  0  0  0  0
   -1.2118   -4.5304    0.3652 H   0  0  0  0  0  0  0  0  0  0  0  0
  1  2  1  0
  2  3  2  0
  2  4  1  0
  4  5  1  0
  5  6  1  0
  6  7  1  0
  7  8  1  0
  8  9  2  0
  9 10  1  0
 10 11  2  0
 10 12  1  0
 12 13  2  0
 13 14  1  0
 14 15  2  0
 15 16  1  0
 16 17  2  0
  9 18  1  0
 18 19  2  0
 19 20  1  0
 20 21  2  0
 21 22  1  0
 22 23  2  0
 23 24  1  0
 24 25  2  0
 24  7  1  0
 17  8  1  0
 23 18  1  0
 17 12  1  0
  1 26  1  0
  4 27  1  0
  4 28  1  0
  5 29  1  0
  5 30  1  0
  6 31  1  0
  6 32  1  0
 13 33  1  0
 14 34  1  0
 15 35  1  0
 16 36  1  0
 19 37  1  0
 20 38  1  0
 21 39  1  0
 22 40  1  0
M  END
$$$$
