@<TRIPOS>MOLECULE
*****
 91 94 0 0 0
SMALL
GASTEIGER

@<TRIPOS>ATOM
      1 C           6.4510    4.3180   -1.3839 C.3     1  UNL1        0.0366
      2 O           6.3571    3.0296   -0.8887 O.3     1  UNL1       -0.3796
      3 C           6.0769    2.1001   -1.8240 C.3     1  UNL1        0.0814
      4 C           5.9482    0.6705   -1.4263 C.3     1  UNL1        0.1129
      5 O           5.0207    0.2938   -0.5322 O.3     1  UNL1       -0.4878
      6 C           4.8205    0.5037    0.7759 C.ar    1  UNL1        0.1415
      7 C           5.6824    1.2313    1.6047 C.ar    1  UNL1       -0.0181
      8 C           5.4178    1.4014    2.9360 C.ar    1  UNL1       -0.0582
      9 C           4.2924    0.8498    3.4652 C.ar    1  UNL1       -0.0598
     10 C           3.4328    0.1294    2.6653 C.ar    1  UNL1       -0.0371
     11 C           3.6458   -0.0735    1.3244 C.ar    1  UNL1        0.0720
     12 N           2.7718   -0.7829    0.4855 N.pl3   1  UNL1       -0.3241
     13 C           1.7139   -1.6127    1.0671 C.3     1  UNL1        0.0281
     14 C           0.4179   -0.9369    0.6271 C.3     1  UNL1        0.0306
     15 N           0.3545   -1.0641   -0.8122 N.am    1  UNL1       -0.2952
     16 C          -0.8458   -0.9175   -1.5573 C.2     1  UNL1        0.2614
     17 O          -0.7104   -0.9614   -2.8322 O.2     1  UNL1       -0.2711
     18 C          -2.1916   -0.7187   -1.0518 C.3     1  UNL1        0.2039
     19 O          -2.4014   -1.6873   -0.0066 O.3     1  UNL1       -0.4746
     20 C          -2.4385   -3.0470   -0.1940 C.ar    1  UNL1        0.1221
     21 C          -1.3531   -3.8498   -0.1187 C.ar    1  UNL1       -0.0194
     22 C          -1.4390   -5.2443   -0.3197 C.ar    1  UNL1       -0.0467
     23 C          -2.6344   -5.8367   -0.6000 C.ar    1  UNL1        0.0550
     24 C          -2.7417   -7.3089   -0.8163 C.3     1  UNL1        0.4174
     25 F          -3.4271   -7.5572   -1.9871 F       1  UNL1       -0.1659
     26 F          -3.4455   -7.8719    0.2213 F       1  UNL1       -0.1659
     27 F          -1.4746   -7.8516   -0.8555 F       1  UNL1       -0.1659
     28 C          -3.7574   -5.0510   -0.6833 C.ar    1  UNL1       -0.0467
     29 C          -3.6473   -3.7064   -0.4848 C.ar    1  UNL1       -0.0194
     30 C          -3.2139   -0.9701   -2.1031 C.3     1  UNL1       -0.0009
     31 C          -4.5975   -0.5458   -1.7663 C.3     1  UNL1       -0.0330
     32 C          -4.8413   -0.1497   -0.3446 C.3     1  UNL1        0.0156
     33 N          -3.7279    0.5480    0.2608 N.am    1  UNL1       -0.2900
     34 C          -3.9038    1.0795    1.5679 C.2     1  UNL1        0.2490
     35 O          -5.0183    0.8604    2.1641 O.2     1  UNL1       -0.2699
     36 C          -2.9022    1.8557    2.2808 C.ar    1  UNL1        0.0666
     37 C          -1.7936    1.2942    2.8446 C.ar    1  UNL1        0.0402
     38 N          -0.8280    1.9996    3.4417 N.ar    1  UNL1       -0.2625
     39 C          -0.9222    3.3384    3.5079 C.ar    1  UNL1        0.0281
     40 C          -2.0095    3.9439    2.9613 C.ar    1  UNL1       -0.0312
     41 C          -3.0402    3.2334    2.3300 C.ar    1  UNL1        0.0698
     42 C          -4.2003    3.9837    1.8481 C.3     1  UNL1        0.4182
     43 F          -3.9777    5.3567    2.0424 F       1  UNL1       -0.1659
     44 F          -4.5468    3.8360    0.5461 F       1  UNL1       -0.1659
     45 F          -5.3208    3.7542    2.6892 F       1  UNL1       -0.1659
     46 C          -2.4435    0.6325   -0.4121 C.3     1  UNL1        0.0767
     47 C          -2.3995    1.8200   -1.2336 C.3     1  UNL1       -0.0068
     48 C          -1.1557    2.1828   -1.9857 C.3     1  UNL1        0.0460
     49 O          -0.0398    2.3655   -1.1683 O.3     1  UNL1       -0.3949
     50 C           1.5734   -1.3765   -1.5205 C.3     1  UNL1        0.0306
     51 C           2.8183   -0.7332   -0.9657 C.3     1  UNL1        0.0281
     52 CL          0.6894    0.0000    0.0000 Cl      2  UNL2       -0.1454
     53 H           5.4946    4.6510   -1.8680 H       1  UNL1        0.0524
     54 H           7.2508    4.3344   -2.1778 H       1  UNL1        0.0524
     55 H           6.7956    5.0379   -0.6123 H       1  UNL1        0.0524
     56 H           6.8506    2.2174   -2.6501 H       1  UNL1        0.0593
     57 H           5.1295    2.4336   -2.3463 H       1  UNL1        0.0593
     58 H           5.8445    0.0897   -2.4105 H       1  UNL1        0.0720
     59 H           7.0147    0.3474   -1.1306 H       1  UNL1        0.0720
     60 H           6.5947    1.6503    1.2147 H       1  UNL1        0.0655
     61 H           6.1334    1.9843    3.5316 H       1  UNL1        0.0619
     62 H           4.0628    0.9685    4.5013 H       1  UNL1        0.0618
     63 H           2.5253   -0.3024    3.1099 H       1  UNL1        0.0637
     64 H           1.7981   -1.8091    2.1182 H       1  UNL1        0.0479
     65 H           1.7806   -2.5717    0.4641 H       1  UNL1        0.0479
     66 H           0.5611    0.1538    0.8426 H       1  UNL1        0.0480
     67 H          -0.4104   -1.3765    1.1721 H       1  UNL1        0.0480
     68 H          -0.3739   -3.5157    0.0981 H       1  UNL1        0.0654
     69 H          -0.5576   -5.8610   -0.2565 H       1  UNL1        0.0624
     70 H          -4.7213   -5.5109   -0.9089 H       1  UNL1        0.0624
     71 H          -4.5384   -3.1278   -0.5512 H       1  UNL1        0.0654
     72 H          -2.8728   -0.5747   -3.0914 H       1  UNL1        0.0310
     73 H          -3.2438   -2.0880   -2.2755 H       1  UNL1        0.0310
     74 H          -5.3599   -1.3284   -2.0191 H       1  UNL1        0.0282
     75 H          -4.9046    0.3192   -2.4260 H       1  UNL1        0.0282
     76 H          -5.1867   -0.9998    0.2935 H       1  UNL1        0.0465
     77 H          -5.7619    0.5144   -0.3643 H       1  UNL1        0.0465
     78 H          -1.7200    0.2041    2.7893 H       1  UNL1        0.0837
     79 H          -0.1512    3.9451    3.9889 H       1  UNL1        0.0829
     80 H          -2.0697    5.0348    3.0232 H       1  UNL1        0.0638
     81 H          -1.6934    0.6849    0.4374 H       1  UNL1        0.0546
     82 H          -3.2540    1.9273   -1.9119 H       1  UNL1        0.0307
     83 H          -2.5214    2.7037   -0.5131 H       1  UNL1        0.0307
     84 H          -1.3692    3.2575   -2.3306 H       1  UNL1        0.0558
     85 H          -0.9776    1.6720   -2.9218 H       1  UNL1        0.0558
     86 H           0.6727    2.7200   -1.7694 H       1  UNL1        0.2094
     87 H           1.7427   -2.4825   -1.5651 H       1  UNL1        0.0480
     88 H           1.4973   -1.0495   -2.5920 H       1  UNL1        0.0480
     89 H           3.6642   -1.3317   -1.3667 H       1  UNL1        0.0479
     90 H           2.8700    0.3212   -1.3085 H       1  UNL1        0.0479
     91 H          -0.6894    0.0000    0.0000 H       1  UNL1        0.1454
@<TRIPOS>BOND
     1     1     2    1
     2     2     3    1
     3     3     4    1
     4     4     5    1
     5     5     6    1
     6     6     7   ar
     7     7     8   ar
     8     8     9   ar
     9     9    10   ar
    10    10    11   ar
    11    11    12    1
    12    12    13    1
    13    13    14    1
    14    14    15    1
    15    15    16   am
    16    16    17    2
    17    16    18    1
    18    18    19    1
    19    19    20    1
    20    20    21   ar
    21    21    22   ar
    22    22    23   ar
    23    23    24    1
    24    24    25    1
    25    24    26    1
    26    24    27    1
    27    23    28   ar
    28    28    29   ar
    29    18    30    1
    30    30    31    1
    31    31    32    1
    32    32    33    1
    33    33    34   am
    34    34    35    2
    35    34    36    1
    36    36    37   ar
    37    37    38   ar
    38    38    39   ar
    39    39    40   ar
    40    40    41   ar
    41    41    42    1
    42    42    43    1
    43    42    44    1
    44    42    45    1
    45    33    46    1
    46    46    47    1
    47    47    48    1
    48    48    49    1
    49    15    50    1
    50    50    51    1
    51    11     6   ar
    52    51    12    1
    53    46    18    1
    54    29    20   ar
    55    41    36   ar
    56     1    53    1
    57     1    54    1
    58     1    55    1
    59     3    56    1
    60     3    57    1
    61     4    58    1
    62     4    59    1
    63     7    60    1
    64     8    61    1
    65     9    62    1
    66    10    63    1
    67    13    64    1
    68    13    65    1
    69    14    66    1
    70    14    67    1
    71    21    68    1
    72    22    69    1
    73    28    70    1
    74    29    71    1
    75    30    72    1
    76    30    73    1
    77    31    74    1
    78    31    75    1
    79    32    76    1
    80    32    77    1
    81    37    78    1
    82    39    79    1
    83    40    80    1
    84    46    81    1
    85    47    82    1
    86    47    83    1
    87    48    84    1
    88    48    85    1
    89    49    86    1
    90    50    87    1
    91    50    88    1
    92    51    89    1
    93    51    90    1
    94    52    91    1
