@<TRIPOS>MOLECULE
*****
 49 53 0 0 0
SMALL
GASTEIGER

@<TRIPOS>ATOM
      1 C          -0.8050    0.1304   -1.3708 C.3     1  UNL1        0.0150
      2 N          -0.7381   -0.4612   -0.0407 N.ar    1  UNL1       -0.3132
      3 C           0.3153   -0.6437    0.7351 C.ar    1  UNL1        0.1654
      4 C           1.7432   -0.3399    0.5548 C.ar    1  UNL1        0.0376
      5 C           2.6491   -1.3429    0.9233 C.ar    1  UNL1       -0.0490
      6 C           3.9839   -1.1054    0.8327 C.ar    1  UNL1       -0.0518
      7 C           4.5027    0.0877    0.3910 C.ar    1  UNL1        0.0032
      8 C           5.9444    0.3646    0.2858 C.ar    1  UNL1        0.0890
      9 C           6.8886   -0.5595    0.6268 C.ar    1  UNL1        0.0535
     10 N           8.2255   -0.2858    0.5241 N.ar    1  UNL1       -0.2596
     11 C           8.6151    0.9247    0.0756 C.ar    1  UNL1        0.0457
     12 C           7.6653    1.8738   -0.2746 C.ar    1  UNL1        0.0464
     13 N           6.3660    1.5684   -0.1602 N.ar    1  UNL1       -0.2520
     14 C           3.5946    1.0546    0.0377 C.ar    1  UNL1       -0.0335
     15 C           2.2257    0.8417    0.1209 C.ar    1  UNL1        0.0523
     16 CL          1.1406    2.1763   -0.2482 Cl      1  UNL1       -0.0828
     17 N          -0.0962   -1.3132    1.8636 N.ar    1  UNL1       -0.1291
     18 N          -1.3707   -1.5077    1.7349 N.ar    1  UNL1       -0.1331
     19 C          -1.8259   -1.0081    0.5885 C.ar    1  UNL1        0.1442
     20 C          -3.2019   -1.0360    0.1030 C.3     1  UNL1        0.0606
     21 C          -3.8533    0.2922   -0.0408 C.ar    1  UNL1       -0.0336
     22 C          -4.1246    0.8916   -1.2462 C.ar    1  UNL1       -0.0562
     23 C          -4.7273    2.1206   -1.3297 C.ar    1  UNL1       -0.0431
     24 C          -5.0678    2.7674   -0.1636 C.ar    1  UNL1        0.0410
     25 CL         -5.8389    4.3391   -0.2299 Cl      1  UNL1       -0.0835
     26 C          -4.8049    2.1850    1.0561 C.ar    1  UNL1       -0.0431
     27 C          -4.1995    0.9508    1.1240 C.ar    1  UNL1       -0.0562
     28 C          -4.0967   -1.8888    1.0138 C.3     1  UNL1       -0.0050
     29 C          -4.8112   -2.3435   -0.2408 C.3     1  UNL1        0.1034
     30 F          -5.1347   -3.6832   -0.2606 F       1  UNL1       -0.2454
     31 C          -3.5158   -2.0250   -0.9972 C.3     1  UNL1       -0.0050
     32 H          -1.5458   -0.5445   -1.9482 H       1  UNL1        0.0457
     33 H          -1.2462    1.1335   -1.3957 H       1  UNL1        0.0457
     34 H           0.1387    0.0926   -1.8990 H       1  UNL1        0.0457
     35 H           2.2696   -2.2737    1.2678 H       1  UNL1        0.0625
     36 H           4.7145   -1.8768    1.1164 H       1  UNL1        0.0624
     37 H           6.6456   -1.5428    0.9912 H       1  UNL1        0.0851
     38 H           9.6816    1.1164    0.0038 H       1  UNL1        0.0845
     39 H           8.0246    2.8233   -0.6266 H       1  UNL1        0.0845
     40 H           3.9465    2.0190   -0.3193 H       1  UNL1        0.0639
     41 H          -3.8571    0.3844   -2.1596 H       1  UNL1        0.0621
     42 H          -4.9389    2.5893   -2.3018 H       1  UNL1        0.0632
     43 H          -5.0843    2.7176    1.9738 H       1  UNL1        0.0632
     44 H          -4.0230    0.5547    2.1129 H       1  UNL1        0.0621
     45 H          -3.4917   -2.7106    1.4865 H       1  UNL1        0.0306
     46 H          -4.7185   -1.3169    1.7157 H       1  UNL1        0.0306
     47 H          -5.6406   -1.6464   -0.4725 H       1  UNL1        0.0652
     48 H          -2.8510   -2.9127   -0.9234 H       1  UNL1        0.0306
     49 H          -3.6715   -1.6317   -2.0000 H       1  UNL1        0.0306
@<TRIPOS>BOND
     1     1     2    1
     2     2     3   ar
     3     3     4    1
     4     4     5   ar
     5     5     6   ar
     6     6     7   ar
     7     7     8    1
     8     8     9   ar
     9     9    10   ar
    10    10    11   ar
    11    11    12   ar
    12    12    13   ar
    13     7    14   ar
    14    14    15   ar
    15    15    16    1
    16     3    17   ar
    17    17    18   ar
    18    18    19   ar
    19    19    20    1
    20    20    21    1
    21    21    22   ar
    22    22    23   ar
    23    23    24   ar
    24    24    25    1
    25    24    26   ar
    26    26    27   ar
    27    20    28    1
    28    28    29    1
    29    29    30    1
    30    29    31    1
    31    19     2   ar
    32    31    20    1
    33    15     4   ar
    34    27    21   ar
    35    13     8   ar
    36     1    32    1
    37     1    33    1
    38     1    34    1
    39     5    35    1
    40     6    36    1
    41     9    37    1
    42    11    38    1
    43    12    39    1
    44    14    40    1
    45    22    41    1
    46    23    42    1
    47    26    43    1
    48    27    44    1
    49    28    45    1
    50    28    46    1
    51    29    47    1
    52    31    48    1
    53    31    49    1
