
     RDKit          3D

 49 53  0  0  0  0  0  0  0  0999 V2000
   -0.8050    0.1304   -1.3708 C   0  0  0  0  0  0  0  0  0  0  0  0
   -0.7381   -0.4612   -0.0407 N   0  0  0  0  0  0  0  0  0  0  0  0
    0.3153   -0.6437    0.7351 C   0  0  0  0  0  0  0  0  0  0  0  0
    1.7432   -0.3399    0.5548 C   0  0  0  0  0  0  0  0  0  0  0  0
    2.6491   -1.3429    0.9233 C   0  0  0  0  0  0  0  0  0  0  0  0
    3.9839   -1.1054    0.8327 C   0  0  0  0  0  0  0  0  0  0  0  0
    4.5027    0.0877    0.3910 C   0  0  0  0  0  0  0  0  0  0  0  0
    5.9444    0.3646    0.2858 C   0  0  0  0  0  0  0  0  0  0  0  0
    6.8886   -0.5595    0.6268 C   0  0  0  0  0  0  0  0  0  0  0  0
    8.2255   -0.2858    0.5241 N   0  0  0  0  0  0  0  0  0  0  0  0
    8.6151    0.9247    0.0756 C   0  0  0  0  0  0  0  0  0  0  0  0
    7.6653    1.8738   -0.2746 C   0  0  0  0  0  0  0  0  0  0  0  0
    6.3660    1.5684   -0.1602 N   0  0  0  0  0  0  0  0  0  0  0  0
    3.5946    1.0546    0.0377 C   0  0  0  0  0  0  0  0  0  0  0  0
    2.2257    0.8417    0.1209 C   0  0  0  0  0  0  0  0  0  0  0  0
    1.1406    2.1763   -0.2482 Cl  0  0  0  0  0  0  0  0  0  0  0  0
   -0.0962   -1.3132    1.8636 N   0  0  0  0  0  0  0  0  0  0  0  0
   -1.3707   -1.5077    1.7349 N   0  0  0  0  0  0  0  0  0  0  0  0
   -1.8259   -1.0081    0.5885 C   0  0  0  0  0  0  0  0  0  0  0  0
   -3.2019   -1.0360    0.1030 C   0  0  0  0  0  0  0  0  0  0  0  0
   -3.8533    0.2922   -0.0408 C   0  0  0  0  0  0  0  0  0  0  0  0
   -4.1246    0.8916   -1.2462 C   0  0  0  0  0  0  0  0  0  0  0  0
   -4.7273    2.1206   -1.3297 C   0  0  0  0  0  0  0  0  0  0  0  0
   -5.0678    2.7674   -0.1636 C   0  0  0  0  0  0  0  0  0  0  0  0
   -5.8389    4.3391   -0.2299 Cl  0  0  0  0  0  0  0  0  0  0  0  0
   -4.8049    2.1850    1.0561 C   0  0  0  0  0  0  0  0  0  0  0  0
   -4.1995    0.9508    1.1240 C   0  0  0  0  0  0  0  0  0  0  0  0
   -4.0967   -1.8888    1.0138 C   0  0  0  0  0  0  0  0  0  0  0  0
   -4.8112   -2.3435   -0.2408 C   0  0  0  0  0  0  0  0  0  0  0  0
   -5.1347   -3.6832   -0.2606 F   0  0  0  0  0  0  0  0  0  0  0  0
   -3.5158   -2.0250   -0.9972 C   0  0  0  0  0  0  0  0  0  0  0  0
   -1.5458   -0.5445   -1.9482 H   0  0  0  0  0  0  0  0  0  0  0  0
   -1.2462    1.1335   -1.3957 H   0  0  0  0  0  0  0  0  0  0  0  0
    0.1387    0.0926   -1.8990 H   0  0  0  0  0  0  0  0  0  0  0  0
    2.2696   -2.2737    1.2678 H   0  0  0  0  0  0  0  0  0  0  0  0
    4.7145   -1.8768    1.1164 H   0  0  0  0  0  0  0  0  0  0  0  0
    6.6456   -1.5428    0.9912 H   0  0  0  0  0  0  0  0  0  0  0  0
    9.6816    1.1164    0.0038 H   0  0  0  0  0  0  0  0  0  0  0  0
    8.0246    2.8233   -0.6266 H   0  0  0  0  0  0  0  0  0  0  0  0
    3.9465    2.0190   -0.3193 H   0  0  0  0  0  0  0  0  0  0  0  0
   -3.8571    0.3844   -2.1596 H   0  0  0  0  0  0  0  0  0  0  0  0
   -4.9389    2.5893   -2.3018 H   0  0  0  0  0  0  0  0  0  0  0  0
   -5.0843    2.7176    1.9738 H   0  0  0  0  0  0  0  0  0  0  0  0
   -4.0230    0.5547    2.1129 H   0  0  0  0  0  0  0  0  0  0  0  0
   -3.4917   -2.7106    1.4865 H   0  0  0  0  0  0  0  0  0  0  0  0
   -4.7185   -1.3169    1.7157 H   0  0  0  0  0  0  0  0  0  0  0  0
   -5.6406   -1.6464   -0.4725 H   0  0  0  0  0  0  0  0  0  0  0  0
   -2.8510   -2.9127   -0.9234 H   0  0  0  0  0  0  0  0  0  0  0  0
   -3.6715   -1.6317   -2.0000 H   0  0  0  0  0  0  0  0  0  0  0  0
  1  2  1  0
  2  3  1  0
  3  4  1  0
  4  5  2  0
  5  6  1  0
  6  7  2  0
  7  8  1  0
  8  9  2  0
  9 10  1  0
 10 11  2  0
 11 12  1  0
 12 13  2  0
  7 14  1  0
 14 15  2  0
 15 16  1  0
  3 17  2  0
 17 18  1  0
 18 19  2  0
 19 20  1  0
 20 21  1  0
 21 22  2  0
 22 23  1  0
 23 24  2  0
 24 25  1  0
 24 26  1  0
 26 27  2  0
 20 28  1  0
 28 29  1  0
 29 30  1  0
 29 31  1  0
 19  2  1  0
 31 20  1  0
 15  4  1  0
 27 21  1  0
 13  8  1  0
  1 32  1  0
  1 33  1  0
  1 34  1  0
  5 35  1  0
  6 36  1  0
  9 37  1  0
 11 38  1  0
 12 39  1  0
 14 40  1  0
 22 41  1  0
 23 42  1  0
 26 43  1  0
 27 44  1  0
 28 45  1  0
 28 46  1  0
 29 47  1  0
 31 48  1  0
 31 49  1  0
M  END
$$$$
