@<TRIPOS>MOLECULE
*****
 39 41 0 0 0
SMALL
GASTEIGER

@<TRIPOS>ATOM
      1 C          -2.9671    3.3401   -0.4395 C.3     1  UNL1       -0.0307
      2 C          -1.6038    2.7024   -0.3361 C.3     1  UNL1        0.0868
      3 O          -1.7135    1.2941   -0.2888 O.3     1  UNL1       -0.4916
      4 C          -0.5825    0.5062   -0.1932 C.ar    1  UNL1        0.1300
      5 C           0.6508    1.1144   -0.1449 C.ar    1  UNL1        0.0024
      6 C           1.7851    0.3109   -0.0484 C.ar    1  UNL1        0.0426
      7 C           1.7115   -1.0513   -0.0008 C.ar    1  UNL1       -0.0247
      8 C           0.4493   -1.6215   -0.0522 C.ar    1  UNL1       -0.0455
      9 C          -0.7037   -0.8779   -0.1474 C.ar    1  UNL1        0.0256
     10 C          -2.0390   -1.4542   -0.2029 C.ar    1  UNL1        0.0037
     11 C          -2.3328   -2.4642    0.6830 C.ar    1  UNL1       -0.0510
     12 C          -3.5648   -3.0613    0.6985 C.ar    1  UNL1       -0.0430
     13 C          -4.5247   -2.6436   -0.1874 C.ar    1  UNL1        0.0276
     14 N          -4.2299   -1.6558   -1.0502 N.ar    1  UNL1       -0.2627
     15 C          -3.0218   -1.0552   -1.0806 C.ar    1  UNL1        0.0354
     16 C           2.8620   -1.9652    0.1008 C.3     1  UNL1       -0.0176
     17 C           4.1870   -1.3201   -0.0200 C.3     1  UNL1        0.0285
     18 C           4.1976    0.1364    0.0980 C.2     1  UNL1        0.2199
     19 O           5.3031    0.7129    0.3014 O.2     1  UNL1       -0.2753
     20 N           3.0488    0.9561    0.0002 N.am    1  UNL1       -0.2741
     21 C           3.1645    2.4016   -0.0483 C.3     1  UNL1        0.0083
     22 H          -3.6677    2.8272    0.2828 H       1  UNL1        0.0262
     23 H          -2.9508    4.4000   -0.1184 H       1  UNL1        0.0262
     24 H          -3.3620    3.2924   -1.4752 H       1  UNL1        0.0262
     25 H          -1.0328    2.9352   -1.2729 H       1  UNL1        0.0694
     26 H          -1.0747    3.1019    0.5622 H       1  UNL1        0.0694
     27 H           0.7178    2.2024   -0.1825 H       1  UNL1        0.0673
     28 H           0.3112   -2.7074   -0.0188 H       1  UNL1        0.0628
     29 H          -1.6025   -2.8331    1.4090 H       1  UNL1        0.0625
     30 H          -3.7811   -3.8446    1.3910 H       1  UNL1        0.0633
     31 H          -5.5124   -3.1171   -0.1803 H       1  UNL1        0.0829
     32 H          -2.8007   -0.2463   -1.7970 H       1  UNL1        0.0836
     33 H           2.7086   -2.7594   -0.6798 H       1  UNL1        0.0318
     34 H           2.7737   -2.4756    1.1023 H       1  UNL1        0.0318
     35 H           4.6694   -1.6747   -0.9771 H       1  UNL1        0.0362
     36 H           4.8739   -1.7200    0.7826 H       1  UNL1        0.0362
     37 H           2.4709    2.8993    0.6590 H       1  UNL1        0.0433
     38 H           4.2248    2.6770    0.1626 H       1  UNL1        0.0433
     39 H           2.9581    2.7380   -1.1022 H       1  UNL1        0.0433
@<TRIPOS>BOND
     1     1     2    1
     2     2     3    1
     3     3     4    1
     4     4     5   ar
     5     5     6   ar
     6     6     7   ar
     7     7     8   ar
     8     8     9   ar
     9     9    10    1
    10    10    11   ar
    11    11    12   ar
    12    12    13   ar
    13    13    14   ar
    14    14    15   ar
    15     7    16    1
    16    16    17    1
    17    17    18    1
    18    18    19    2
    19    18    20   am
    20    20    21    1
    21     9     4   ar
    22    15    10   ar
    23    20     6    1
    24     1    22    1
    25     1    23    1
    26     1    24    1
    27     2    25    1
    28     2    26    1
    29     5    27    1
    30     8    28    1
    31    11    29    1
    32    12    30    1
    33    13    31    1
    34    15    32    1
    35    16    33    1
    36    16    34    1
    37    17    35    1
    38    17    36    1
    39    21    37    1
    40    21    38    1
    41    21    39    1
