@<TRIPOS>MOLECULE
*****
 47 49 0 0 0
SMALL
GASTEIGER

@<TRIPOS>ATOM
      1 C          -7.6464    1.0339   -1.0925 C.3     1  UNL1        0.0788
      2 O          -6.4819    1.8289   -1.2077 O.3     1  UNL1       -0.4951
      3 C          -5.2550    1.3914   -0.7289 C.ar    1  UNL1        0.1202
      4 C          -4.1613    2.2313   -0.8810 C.ar    1  UNL1       -0.0182
      5 C          -2.9604    1.7560   -0.3902 C.ar    1  UNL1       -0.0370
      6 C          -2.8415    0.5306    0.2129 C.ar    1  UNL1        0.0350
      7 N          -1.5377    0.1343    0.6894 N.am    1  UNL1       -0.2693
      8 C          -0.6400   -0.5715   -0.1441 C.2     1  UNL1        0.3069
      9 O          -1.0501   -0.8336   -1.3331 O.2     1  UNL1       -0.2523
     10 N           0.6547   -0.9980    0.2419 N.am    1  UNL1       -0.2767
     11 C           1.2531   -0.8008    1.5363 C.3     1  UNL1        0.0291
     12 C           1.5081   -2.1362    2.1966 C.3     1  UNL1        0.0118
     13 N           2.0789   -3.0441    1.2211 N.3     1  UNL1       -0.3126
     14 C           2.6459   -2.2682    0.0947 C.3     1  UNL1        0.0178
     15 C           1.5127   -1.7204   -0.7236 C.3     1  UNL1        0.0739
     16 C           1.9554   -0.8182   -1.8238 C.3     1  UNL1        0.1094
     17 O           2.6815    0.2608   -1.5897 O.3     1  UNL1       -0.4886
     18 C           3.7917    0.8326   -1.1871 C.ar    1  UNL1        0.1386
     19 C           4.9560    0.2402   -0.7476 C.ar    1  UNL1       -0.0170
     20 C           6.0191    1.0110   -0.3622 C.ar    1  UNL1       -0.0401
     21 C           5.9888    2.3893   -0.3907 C.ar    1  UNL1        0.0278
     22 N           4.8627    2.9691   -0.8164 N.ar    1  UNL1       -0.2596
     23 C           3.8180    2.2475   -1.1953 C.ar    1  UNL1        0.0692
     24 C          -3.9045   -0.3022    0.3685 C.ar    1  UNL1       -0.0370
     25 C          -5.1319    0.1578   -0.1210 C.ar    1  UNL1       -0.0182
     26 H          -7.9698    0.9281   -0.0360 H       1  UNL1        0.0660
     27 H          -7.4157   -0.0037   -1.4620 H       1  UNL1        0.0660
     28 H          -8.4399    1.4451   -1.7443 H       1  UNL1        0.0660
     29 H          -4.2182    3.1970   -1.3481 H       1  UNL1        0.0655
     30 H          -2.0830    2.3737   -0.4859 H       1  UNL1        0.0637
     31 H          -1.2404    0.3659    1.6593 H       1  UNL1        0.1564
     32 H           2.1221   -0.1157    1.5478 H       1  UNL1        0.0478
     33 H           0.4908   -0.2891    2.1963 H       1  UNL1        0.0478
     34 H           2.1609   -1.9638    3.0612 H       1  UNL1        0.0439
     35 H           0.5330   -2.5167    2.5494 H       1  UNL1        0.0439
     36 H           1.2980   -3.6332    0.8444 H       1  UNL1        0.1221
     37 H           3.2921   -2.9790   -0.4536 H       1  UNL1        0.0443
     38 H           3.1992   -1.4494    0.5836 H       1  UNL1        0.0443
     39 H           0.9240   -2.5778   -1.1495 H       1  UNL1        0.0547
     40 H           2.3705   -1.4876   -2.6656 H       1  UNL1        0.0716
     41 H           0.9710   -0.4813   -2.3267 H       1  UNL1        0.0716
     42 H           5.0229   -0.8357   -0.7229 H       1  UNL1        0.0655
     43 H           6.9181    0.4867   -0.0216 H       1  UNL1        0.0634
     44 H           6.8493    2.9689   -0.0781 H       1  UNL1        0.0829
     45 H           2.9344    2.8095   -1.5307 H       1  UNL1        0.0867
     46 H          -3.8475   -1.2738    0.8385 H       1  UNL1        0.0637
     47 H          -5.9874   -0.4896   -0.0065 H       1  UNL1        0.0655
@<TRIPOS>BOND
     1     1     2    1
     2     2     3    1
     3     3     4   ar
     4     4     5   ar
     5     5     6   ar
     6     6     7    1
     7     7     8   am
     8     8     9    2
     9     8    10   am
    10    10    11    1
    11    11    12    1
    12    12    13    1
    13    13    14    1
    14    14    15    1
    15    15    16    1
    16    16    17    1
    17    17    18    1
    18    18    19   ar
    19    19    20   ar
    20    20    21   ar
    21    21    22   ar
    22    22    23   ar
    23     6    24   ar
    24    24    25   ar
    25    25     3   ar
    26    15    10    1
    27    23    18   ar
    28     1    26    1
    29     1    27    1
    30     1    28    1
    31     4    29    1
    32     5    30    1
    33     7    31    1
    34    11    32    1
    35    11    33    1
    36    12    34    1
    37    12    35    1
    38    13    36    1
    39    14    37    1
    40    14    38    1
    41    15    39    1
    42    16    40    1
    43    16    41    1
    44    19    42    1
    45    20    43    1
    46    21    44    1
    47    23    45    1
    48    24    46    1
    49    25    47    1
