
     RDKit          3D

 41 44  0  0  0  0  0  0  0  0999 V2000
   -1.1396    4.2197    0.2171 O   0  0  0  0  0  0  0  0  0  0  0  0
    0.0932    3.5763    0.1288 C   0  0  0  0  0  0  0  0  0  0  0  0
   -0.1947    2.1537   -0.3688 C   0  0  1  0  0  0  0  0  0  0  0  0
    1.0144    1.4411   -0.4823 O   0  0  0  0  0  0  0  0  0  0  0  0
    0.5549    0.1240   -0.4742 C   0  0  2  0  0  0  0  0  0  0  0  0
   -0.2441    0.0912    0.8090 C   0  0  2  0  0  0  0  0  0  0  0  0
   -1.3116   -0.8060    0.7630 O   0  0  0  0  0  0  0  0  0  0  0  0
   -2.3466   -0.0317    1.2304 C   0  0  2  0  0  0  0  0  0  0  0  0
   -3.6933   -0.6820    1.1150 C   0  0  0  0  0  0  0  0  0  0  0  0
   -4.1477   -1.0903   -0.5645 P   0  0  0  0  0  0  0  0  0  0  0  0
   -3.2627   -2.3889   -1.1733 O   0  0  0  0  0  0  0  0  0  0  0  0
   -4.0128    0.2518   -1.5526 O   0  0  0  0  0  0  0  0  0  0  0  0
   -5.6080   -1.5464   -0.5329 O   0  0  0  0  0  0  0  0  0  0  0  0
   -2.2321    1.1046    0.4279 O   0  0  0  0  0  0  0  0  0  0  0  0
   -0.9037    1.4669    0.7512 C   0  0  2  0  0  0  0  0  0  0  0  0
    1.6291   -0.8755   -0.5005 C   0  0  0  0  0  0  0  0  0  0  0  0
    1.3931   -2.1568   -1.0040 C   0  0  0  0  0  0  0  0  0  0  0  0
    2.5633   -2.8462   -0.8971 N   0  0  0  0  0  0  0  0  0  0  0  0
    3.5025   -2.0384   -0.3495 C   0  0  0  0  0  0  0  0  0  0  0  0
    2.9374   -0.8060   -0.0959 C   0  0  0  0  0  0  0  0  0  0  0  0
    3.5921    0.2354    0.4482 N   0  0  0  0  0  0  0  0  0  0  0  0
    4.8941    0.0115    0.7515 C   0  0  0  0  0  0  0  0  0  0  0  0
    5.4992   -1.1688    0.5272 N   0  0  0  0  0  0  0  0  0  0  0  0
    4.8242   -2.2183   -0.0255 C   0  0  0  0  0  0  0  0  0  0  0  0
    5.3932   -3.3252   -0.2354 O   0  0  0  0  0  0  0  0  0  0  0  0
   -1.7193    3.8841   -0.4960 H   0  0  0  0  0  0  0  0  0  0  0  0
    0.8080    4.0872   -0.5170 H   0  0  0  0  0  0  0  0  0  0  0  0
    0.4987    3.4140    1.1678 H   0  0  0  0  0  0  0  0  0  0  0  0
   -0.7521    2.1804   -1.3259 H   0  0  0  0  0  0  0  0  0  0  0  0
   -0.1187    0.0146   -1.3453 H   0  0  0  0  0  0  0  0  0  0  0  0
    0.3955   -0.0103    1.6865 H   0  0  0  0  0  0  0  0  0  0  0  0
   -2.1385    0.2541    2.2692 H   0  0  0  0  0  0  0  0  0  0  0  0
   -4.4609   -0.0016    1.5242 H   0  0  0  0  0  0  0  0  0  0  0  0
   -3.6842   -1.5744    1.7739 H   0  0  0  0  0  0  0  0  0  0  0  0
   -3.7380   -3.2588   -1.0021 H   0  0  0  0  0  0  0  0  0  0  0  0
   -4.8177    0.8216   -1.4253 H   0  0  0  0  0  0  0  0  0  0  0  0
   -0.8790    1.9909    1.7052 H   0  0  0  0  0  0  0  0  0  0  0  0
    0.4987   -2.6393   -1.4282 H   0  0  0  0  0  0  0  0  0  0  0  0
    2.7543   -3.8196   -1.1717 H   0  0  0  0  0  0  0  0  0  0  0  0
    3.1156    1.1285    0.6124 H   0  0  0  0  0  0  0  0  0  0  0  0
    5.4442    0.8329    1.1904 H   0  0  0  0  0  0  0  0  0  0  0  0
  1  2  1  0
  2  3  1  0
  3  4  1  0
  4  5  1  0
  5  6  1  0
  6  7  1  0
  7  8  1  0
  8  9  1  0
  9 10  1  0
 10 11  1  0
 10 12  1  0
 10 13  2  0
  8 14  1  0
 14 15  1  0
  5 16  1  0
 16 17  2  0
 17 18  1  0
 18 19  1  0
 19 20  2  0
 20 21  1  0
 21 22  1  0
 22 23  2  0
 23 24  1  0
 24 25  2  0
 15  3  1  0
 20 16  1  0
 15  6  1  0
 24 19  1  0
  1 26  1  0
  2 27  1  0
  2 28  1  0
  3 29  1  6
  5 30  1  6
  6 31  1  1
  8 32  1  1
  9 33  1  0
  9 34  1  0
 11 35  1  0
 12 36  1  0
 15 37  1  1
 17 38  1  0
 18 39  1  0
 21 40  1  0
 22 41  1  0
M  END
$$$$
