@<TRIPOS>MOLECULE
*****
 50 53 0 0 0
SMALL
GASTEIGER

@<TRIPOS>ATOM
      1 O           8.2376    0.2338   -0.3026 O.2     1  UNL1       -0.2687
      2 C           7.0653   -0.1717   -0.0038 C.2     1  UNL1        0.2593
      3 C           5.9442    0.3056   -0.7848 C.2     1  UNL1        0.0027
      4 C           4.7008   -0.0581   -0.5496 C.2     1  UNL1       -0.0496
      5 C           3.5378    0.3922   -1.3047 C.ar    1  UNL1       -0.0246
      6 C           3.6352    1.2517   -2.3479 C.ar    1  UNL1       -0.0546
      7 C           2.4697    1.6271   -3.0109 C.ar    1  UNL1       -0.0609
      8 C           1.2301    1.1527   -2.6386 C.ar    1  UNL1       -0.0573
      9 C           1.1419    0.2841   -1.5827 C.ar    1  UNL1       -0.0330
     10 C          -0.1644   -0.2455   -1.1537 C.3     1  UNL1        0.0218
     11 N          -0.7261    0.6132   -0.1821 N.3     1  UNL1       -0.3065
     12 C          -1.9870    0.2603    0.3462 C.3     1  UNL1        0.0202
     13 C          -2.0573   -1.0557    1.0408 C.3     1  UNL1       -0.0318
     14 C          -3.4724   -1.2941    1.5218 C.3     1  UNL1       -0.0389
     15 C          -4.4069   -1.3039    0.3446 C.3     1  UNL1       -0.0472
     16 C          -4.3883    0.0842   -0.2612 C.3     1  UNL1       -0.0389
     17 C          -4.7669    1.1247    0.7503 C.3     1  UNL1       -0.0472
     18 C          -3.7697    1.0889    1.9071 C.3     1  UNL1       -0.0389
     19 C          -3.8931   -0.2692    2.5507 C.3     1  UNL1       -0.0472
     20 C          -2.4064    1.3334    1.3376 C.3     1  UNL1       -0.0318
     21 C          -3.0096    0.3295   -0.7950 C.3     1  UNL1       -0.0318
     22 C           2.2938   -0.0816   -0.9338 C.ar    1  UNL1       -0.0502
     23 N           6.9609   -1.0635    1.0782 N.am    1  UNL1       -0.1940
     24 O           8.0798   -1.4634    1.7634 O.3     1  UNL1       -0.2949
     25 H           6.1013    1.0014   -1.6159 H       1  UNL1        0.0670
     26 H           4.5755   -0.7587    0.2928 H       1  UNL1        0.0625
     27 H           4.5868    1.6699   -2.7003 H       1  UNL1        0.0623
     28 H           2.5059    2.3063   -3.8424 H       1  UNL1        0.0618
     29 H           0.3416    1.4835   -3.1992 H       1  UNL1        0.0621
     30 H           0.0158   -1.2682   -0.7126 H       1  UNL1        0.0474
     31 H          -0.7765   -0.3921   -2.0631 H       1  UNL1        0.0474
     32 H          -0.5629    1.6174   -0.2888 H       1  UNL1        0.1228
     33 H          -1.3730   -1.0351    1.9030 H       1  UNL1        0.0286
     34 H          -1.8358   -1.9107    0.3493 H       1  UNL1        0.0286
     35 H          -3.4793   -2.2881    2.0194 H       1  UNL1        0.0302
     36 H          -3.9615   -1.9848   -0.4235 H       1  UNL1        0.0271
     37 H          -5.4118   -1.6584    0.5944 H       1  UNL1        0.0271
     38 H          -5.0978    0.1790   -1.1177 H       1  UNL1        0.0302
     39 H          -4.6710    2.1162    0.2882 H       1  UNL1        0.0271
     40 H          -5.7677    0.9228    1.1498 H       1  UNL1        0.0271
     41 H          -3.9885    1.8713    2.6331 H       1  UNL1        0.0302
     42 H          -4.9650   -0.4440    2.7572 H       1  UNL1        0.0271
     43 H          -3.2659   -0.3864    3.4452 H       1  UNL1        0.0271
     44 H          -2.4606    2.2854    0.7528 H       1  UNL1        0.0286
     45 H          -1.6359    1.5013    2.1187 H       1  UNL1        0.0286
     46 H          -2.7627   -0.3677   -1.5980 H       1  UNL1        0.0286
     47 H          -2.9736    1.4035   -1.1408 H       1  UNL1        0.0286
     48 H           2.2288   -0.7724   -0.0931 H       1  UNL1        0.0627
     49 H           6.0368   -1.4370    1.3802 H       1  UNL1        0.1825
     50 H           8.3478   -0.6991    2.3217 H       1  UNL1        0.2414
@<TRIPOS>BOND
     1     1     2    2
     2     2     3    1
     3     3     4    2
     4     4     5    1
     5     5     6   ar
     6     6     7   ar
     7     7     8   ar
     8     8     9   ar
     9     9    10    1
    10    10    11    1
    11    11    12    1
    12    12    13    1
    13    13    14    1
    14    14    15    1
    15    15    16    1
    16    16    17    1
    17    17    18    1
    18    18    19    1
    19    18    20    1
    20    16    21    1
    21     9    22   ar
    22     2    23   am
    23    23    24    1
    24    22     5   ar
    25    20    12    1
    26    21    12    1
    27    19    14    1
    28     3    25    1
    29     4    26    1
    30     6    27    1
    31     7    28    1
    32     8    29    1
    33    10    30    1
    34    10    31    1
    35    11    32    1
    36    13    33    1
    37    13    34    1
    38    14    35    1
    39    15    36    1
    40    15    37    1
    41    16    38    1
    42    17    39    1
    43    17    40    1
    44    18    41    1
    45    19    42    1
    46    19    43    1
    47    20    44    1
    48    20    45    1
    49    21    46    1
    50    21    47    1
    51    22    48    1
    52    23    49    1
    53    24    50    1
