
     RDKit          3D

 50 53  0  0  0  0  0  0  0  0999 V2000
    8.2376    0.2338   -0.3026 O   0  0  0  0  0  0  0  0  0  0  0  0
    7.0653   -0.1717   -0.0038 C   0  0  0  0  0  0  0  0  0  0  0  0
    5.9442    0.3056   -0.7848 C   0  0  0  0  0  0  0  0  0  0  0  0
    4.7008   -0.0581   -0.5496 C   0  0  0  0  0  0  0  0  0  0  0  0
    3.5378    0.3922   -1.3047 C   0  0  0  0  0  0  0  0  0  0  0  0
    3.6352    1.2517   -2.3479 C   0  0  0  0  0  0  0  0  0  0  0  0
    2.4697    1.6271   -3.0109 C   0  0  0  0  0  0  0  0  0  0  0  0
    1.2301    1.1527   -2.6386 C   0  0  0  0  0  0  0  0  0  0  0  0
    1.1419    0.2841   -1.5827 C   0  0  0  0  0  0  0  0  0  0  0  0
   -0.1644   -0.2455   -1.1537 C   0  0  0  0  0  0  0  0  0  0  0  0
   -0.7261    0.6132   -0.1821 N   0  0  0  0  0  0  0  0  0  0  0  0
   -1.9870    0.2603    0.3462 C   0  0  0  0  0  0  0  0  0  0  0  0
   -2.0573   -1.0557    1.0408 C   0  0  0  0  0  0  0  0  0  0  0  0
   -3.4724   -1.2941    1.5218 C   0  0  0  0  0  0  0  0  0  0  0  0
   -4.4069   -1.3039    0.3446 C   0  0  0  0  0  0  0  0  0  0  0  0
   -4.3883    0.0842   -0.2612 C   0  0  0  0  0  0  0  0  0  0  0  0
   -4.7669    1.1247    0.7503 C   0  0  0  0  0  0  0  0  0  0  0  0
   -3.7697    1.0889    1.9071 C   0  0  0  0  0  0  0  0  0  0  0  0
   -3.8931   -0.2692    2.5507 C   0  0  0  0  0  0  0  0  0  0  0  0
   -2.4064    1.3334    1.3376 C   0  0  0  0  0  0  0  0  0  0  0  0
   -3.0096    0.3295   -0.7950 C   0  0  0  0  0  0  0  0  0  0  0  0
    2.2938   -0.0816   -0.9338 C   0  0  0  0  0  0  0  0  0  0  0  0
    6.9609   -1.0635    1.0782 N   0  0  0  0  0  0  0  0  0  0  0  0
    8.0798   -1.4634    1.7634 O   0  0  0  0  0  0  0  0  0  0  0  0
    6.1013    1.0014   -1.6159 H   0  0  0  0  0  0  0  0  0  0  0  0
    4.5755   -0.7587    0.2928 H   0  0  0  0  0  0  0  0  0  0  0  0
    4.5868    1.6699   -2.7003 H   0  0  0  0  0  0  0  0  0  0  0  0
    2.5059    2.3063   -3.8424 H   0  0  0  0  0  0  0  0  0  0  0  0
    0.3416    1.4835   -3.1992 H   0  0  0  0  0  0  0  0  0  0  0  0
    0.0158   -1.2682   -0.7126 H   0  0  0  0  0  0  0  0  0  0  0  0
   -0.7765   -0.3921   -2.0631 H   0  0  0  0  0  0  0  0  0  0  0  0
   -0.5629    1.6174   -0.2888 H   0  0  0  0  0  0  0  0  0  0  0  0
   -1.3730   -1.0351    1.9030 H   0  0  0  0  0  0  0  0  0  0  0  0
   -1.8358   -1.9107    0.3493 H   0  0  0  0  0  0  0  0  0  0  0  0
   -3.4793   -2.2881    2.0194 H   0  0  0  0  0  0  0  0  0  0  0  0
   -3.9615   -1.9848   -0.4235 H   0  0  0  0  0  0  0  0  0  0  0  0
   -5.4118   -1.6584    0.5944 H   0  0  0  0  0  0  0  0  0  0  0  0
   -5.0978    0.1790   -1.1177 H   0  0  0  0  0  0  0  0  0  0  0  0
   -4.6710    2.1162    0.2882 H   0  0  0  0  0  0  0  0  0  0  0  0
   -5.7677    0.9228    1.1498 H   0  0  0  0  0  0  0  0  0  0  0  0
   -3.9885    1.8713    2.6331 H   0  0  0  0  0  0  0  0  0  0  0  0
   -4.9650   -0.4440    2.7572 H   0  0  0  0  0  0  0  0  0  0  0  0
   -3.2659   -0.3864    3.4452 H   0  0  0  0  0  0  0  0  0  0  0  0
   -2.4606    2.2854    0.7528 H   0  0  0  0  0  0  0  0  0  0  0  0
   -1.6359    1.5013    2.1187 H   0  0  0  0  0  0  0  0  0  0  0  0
   -2.7627   -0.3677   -1.5980 H   0  0  0  0  0  0  0  0  0  0  0  0
   -2.9736    1.4035   -1.1408 H   0  0  0  0  0  0  0  0  0  0  0  0
    2.2288   -0.7724   -0.0931 H   0  0  0  0  0  0  0  0  0  0  0  0
    6.0368   -1.4370    1.3802 H   0  0  0  0  0  0  0  0  0  0  0  0
    8.3478   -0.6991    2.3217 H   0  0  0  0  0  0  0  0  0  0  0  0
  1  2  2  0
  2  3  1  0
  3  4  2  0
  4  5  1  0
  5  6  2  0
  6  7  1  0
  7  8  2  0
  8  9  1  0
  9 10  1  0
 10 11  1  0
 11 12  1  0
 12 13  1  0
 13 14  1  0
 14 15  1  0
 15 16  1  0
 16 17  1  0
 17 18  1  0
 18 19  1  0
 18 20  1  0
 16 21  1  0
  9 22  2  0
  2 23  1  0
 23 24  1  0
 22  5  1  0
 20 12  1  0
 21 12  1  0
 19 14  1  0
  3 25  1  0
  4 26  1  0
  6 27  1  0
  7 28  1  0
  8 29  1  0
 10 30  1  0
 10 31  1  0
 11 32  1  0
 13 33  1  0
 13 34  1  0
 14 35  1  0
 15 36  1  0
 15 37  1  0
 16 38  1  0
 17 39  1  0
 17 40  1  0
 18 41  1  0
 19 42  1  0
 19 43  1  0
 20 44  1  0
 20 45  1  0
 21 46  1  0
 21 47  1  0
 22 48  1  0
 23 49  1  0
 24 50  1  0
M  END
$$$$
