@<TRIPOS>MOLECULE
*****
 49 51 0 0 0
SMALL
GASTEIGER

@<TRIPOS>ATOM
      1 C          -4.2988    0.3882   -0.4067 C.3     1  UNL1        0.0234
      2 N          -5.1097   -0.6767    0.1212 N.3     1  UNL1       -0.3257
      3 C          -4.5947    1.6725    0.3869 C.3     1  UNL1       -0.0360
      4 C          -3.8213    2.7360   -0.3600 C.3     1  UNL1       -0.0515
      5 C          -2.3895    2.5411   -0.0080 C.3     1  UNL1       -0.0513
      6 C          -1.9251    1.1250    0.0547 C.3     1  UNL1       -0.0331
      7 C          -2.8480    0.1085   -0.5185 C.3     1  UNL1        0.0384
      8 N          -2.5515   -1.1646    0.0943 N.pl3   1  UNL1       -0.3091
      9 C          -1.2693   -1.7738    0.2375 C.ar    1  UNL1        0.2171
     10 N          -0.1652   -1.1768   -0.2353 N.ar    1  UNL1       -0.1987
     11 C           1.0516   -1.7317   -0.1040 C.ar    1  UNL1        0.1402
     12 N           2.3105   -1.2761   -0.5276 N.pl3   1  UNL1       -0.2987
     13 C           3.1841   -0.1695   -0.4391 C.ar    1  UNL1        0.0326
     14 C           4.5381   -0.3566   -0.2928 C.ar    1  UNL1       -0.0405
     15 C           5.4503    0.6778   -0.2263 C.ar    1  UNL1       -0.0598
     16 C           4.8847    1.9566   -0.3171 C.ar    1  UNL1       -0.0587
     17 C           3.5149    2.1928   -0.4643 C.ar    1  UNL1       -0.0487
     18 C           3.1220    3.6089   -0.5485 C.3     1  UNL1       -0.0397
     19 C           2.6687    1.1024   -0.5246 C.ar    1  UNL1       -0.0376
     20 C           1.0491   -2.9250    0.5386 C.ar    1  UNL1        0.0946
     21 C          -0.0329   -3.5997    1.0496 C.ar    1  UNL1        0.0466
     22 N          -1.2112   -2.9619    0.8665 N.ar    1  UNL1       -0.2221
     23 C           2.2906   -3.6630    0.7636 C.2     1  UNL1        0.2463
     24 N           2.4409   -4.9275    1.3814 N.am    1  UNL1       -0.3252
     25 O           3.5478   -3.5624    0.5633 O.2     1  UNL1       -0.2702
     26 H          -4.7317    0.6243   -1.4258 H       1  UNL1        0.0476
     27 H          -5.1832   -1.4444   -0.5399 H       1  UNL1        0.1185
     28 H          -5.0446   -0.8592    1.1169 H       1  UNL1        0.1185
     29 H          -5.6870    1.8452    0.3474 H       1  UNL1        0.0281
     30 H          -4.1690    1.5195    1.3797 H       1  UNL1        0.0281
     31 H          -3.9309    2.5854   -1.4623 H       1  UNL1        0.0266
     32 H          -4.1153    3.7757   -0.0717 H       1  UNL1        0.0266
     33 H          -2.2262    3.0579    0.9647 H       1  UNL1        0.0266
     34 H          -1.8026    3.1310   -0.7498 H       1  UNL1        0.0266
     35 H          -0.9556    1.0542   -0.4785 H       1  UNL1        0.0284
     36 H          -1.7065    0.8847    1.1179 H       1  UNL1        0.0284
     37 H          -2.6060   -0.0367   -1.6108 H       1  UNL1        0.0513
     38 H          -3.3658   -1.7168    0.4713 H       1  UNL1        0.1492
     39 H           2.7695   -2.0179   -1.1547 H       1  UNL1        0.1536
     40 H           4.9869   -1.3215   -0.2247 H       1  UNL1        0.0636
     41 H           6.5134    0.5454   -0.1133 H       1  UNL1        0.0618
     42 H           5.6006    2.7958   -0.2657 H       1  UNL1        0.0620
     43 H           3.3369    4.1008    0.4104 H       1  UNL1        0.0278
     44 H           3.8170    4.0816   -1.3054 H       1  UNL1        0.0278
     45 H           2.0757    3.7178   -0.9058 H       1  UNL1        0.0278
     46 H           1.6208    1.3594   -0.6397 H       1  UNL1        0.0639
     47 H          -0.0726   -4.5394    1.5585 H       1  UNL1        0.0839
     48 H           2.2544   -5.9214    1.1644 H       1  UNL1        0.1453
     49 H           2.7857   -5.3657    2.2808 H       1  UNL1        0.1453
@<TRIPOS>BOND
     1     1     2    1
     2     1     3    1
     3     3     4    1
     4     4     5    1
     5     5     6    1
     6     6     7    1
     7     7     8    1
     8     8     9    1
     9     9    10   ar
    10    10    11   ar
    11    11    12    1
    12    12    13    1
    13    13    14   ar
    14    14    15   ar
    15    15    16   ar
    16    16    17   ar
    17    17    18    1
    18    17    19   ar
    19    11    20   ar
    20    20    21   ar
    21    21    22   ar
    22    20    23    1
    23    23    24   am
    24    23    25    2
    25     7     1    1
    26    22     9   ar
    27    19    13   ar
    28     1    26    1
    29     2    27    1
    30     2    28    1
    31     3    29    1
    32     3    30    1
    33     4    31    1
    34     4    32    1
    35     5    33    1
    36     5    34    1
    37     6    35    1
    38     6    36    1
    39     7    37    1
    40     8    38    1
    41    12    39    1
    42    14    40    1
    43    15    41    1
    44    16    42    1
    45    18    43    1
    46    18    44    1
    47    18    45    1
    48    19    46    1
    49    21    47    1
    50    24    48    1
    51    24    49    1
