@<TRIPOS>MOLECULE
*****
 51 54 0 0 0
SMALL
GASTEIGER

@<TRIPOS>ATOM
      1 O           5.0889   -1.0625   -1.6640 O.2     1  UNL1       -0.1498
      2 S           4.9526   -1.5561   -0.2201 S.O2    1  UNL1        0.0766
      3 O           5.4136   -3.0217   -0.3076 O.2     1  UNL1       -0.1498
      4 N           5.9928   -0.6921    0.7648 N.pl3   1  UNL1       -0.1936
      5 C           6.1479    0.6616    1.0587 C.ar    1  UNL1        0.1788
      6 N           6.8688    1.3490    1.7760 N.ar    1  UNL1       -0.2121
      7 C           6.9335    2.6159    1.9323 C.ar    1  UNL1        0.1385
      8 CL          8.0684    3.4848    3.0453 Cl      1  UNL1       -0.0614
      9 C           6.0741    3.3351    1.1943 C.ar    1  UNL1        0.0158
     10 S           5.1648    2.0348    0.2565 S.2     1  UNL1       -0.0579
     11 C           3.2532   -1.5041    0.1336 C.ar    1  UNL1        0.1450
     12 C           2.6955   -2.5896    0.8601 C.ar    1  UNL1       -0.0121
     13 C           1.3791   -2.5885    1.2324 C.ar    1  UNL1        0.0638
     14 CL          0.7341   -3.9663    2.1361 Cl      1  UNL1       -0.0816
     15 C           0.5182   -1.5536    0.9343 C.ar    1  UNL1        0.0486
     16 N          -0.8242   -1.6219    1.3861 N.pl3   1  UNL1       -0.3408
     17 C          -1.8239   -0.5590    1.0753 C.3     1  UNL1        0.0287
     18 C          -2.2215   -0.8054   -0.3141 C.3     1  UNL1        0.0487
     19 N          -2.8544   -2.1298   -0.4764 N.3     1  UNL1       -0.3078
     20 C          -2.6005   -2.5744   -1.8053 C.3     1  UNL1       -0.0001
     21 C          -2.1775   -1.4971   -2.7475 C.3     1  UNL1       -0.0215
     22 C          -2.9655   -0.2459   -2.4234 C.2     1  UNL1       -0.0775
     23 C          -2.9851    0.1213   -1.1140 C.2     1  UNL1       -0.0257
     24 C          -3.7360    1.3200   -0.7511 C.ar    1  UNL1       -0.0204
     25 C          -4.4301    2.0410   -1.7333 C.ar    1  UNL1       -0.0516
     26 C          -5.1535    3.1756   -1.4829 C.ar    1  UNL1       -0.0259
     27 C          -5.2247    3.6662   -0.1989 C.ar    1  UNL1        0.1234
     28 F          -5.9311    4.7860    0.0843 F       1  UNL1       -0.2055
     29 C          -4.5487    2.9690    0.7744 C.ar    1  UNL1       -0.0259
     30 C          -3.8150    1.8161    0.5131 C.ar    1  UNL1       -0.0516
     31 C           1.0313   -0.4956    0.2342 C.ar    1  UNL1       -0.0022
     32 C           2.3749   -0.5027   -0.1446 C.ar    1  UNL1        0.1517
     33 F           2.8178    0.5485   -0.9127 F       1  UNL1       -0.2034
     34 H           6.7304   -1.2958    1.3188 H       1  UNL1        0.1758
     35 H           5.8437    4.4238    1.0648 H       1  UNL1        0.0725
     36 H           3.3472   -3.4248    1.1130 H       1  UNL1        0.0653
     37 H          -1.1243   -2.4275    1.9451 H       1  UNL1        0.1462
     38 H          -2.6238   -0.6806    1.8434 H       1  UNL1        0.0480
     39 H          -1.2280    0.3617    1.1567 H       1  UNL1        0.0480
     40 H          -1.2110   -0.9693   -0.8656 H       1  UNL1        0.0526
     41 H          -3.8260   -2.1395   -0.1662 H       1  UNL1        0.1226
     42 H          -3.5713   -2.9962   -2.1989 H       1  UNL1        0.0427
     43 H          -1.9071   -3.4380   -1.7817 H       1  UNL1        0.0427
     44 H          -1.1049   -1.3147   -2.8311 H       1  UNL1        0.0320
     45 H          -2.5126   -1.7994   -3.7791 H       1  UNL1        0.0320
     46 H          -3.4625    0.2925   -3.1958 H       1  UNL1        0.0576
     47 H          -4.4249    1.7210   -2.7602 H       1  UNL1        0.0624
     48 H          -5.6748    3.6985   -2.2826 H       1  UNL1        0.0646
     49 H          -4.5790    3.3214    1.7988 H       1  UNL1        0.0646
     50 H          -3.3089    1.3275    1.3405 H       1  UNL1        0.0624
     51 H           0.4200    0.3806   -0.0293 H       1  UNL1        0.0666
@<TRIPOS>BOND
     1     1     2    2
     2     2     3    2
     3     2     4    1
     4     4     5    1
     5     5     6   ar
     6     6     7   ar
     7     7     8    1
     8     7     9   ar
     9     9    10   ar
    10     2    11    1
    11    11    12   ar
    12    12    13   ar
    13    13    14    1
    14    13    15   ar
    15    15    16    1
    16    16    17    1
    17    17    18    1
    18    18    19    1
    19    19    20    1
    20    20    21    1
    21    21    22    1
    22    22    23    2
    23    23    24    1
    24    24    25   ar
    25    25    26   ar
    26    26    27   ar
    27    27    28    1
    28    27    29   ar
    29    29    30   ar
    30    15    31   ar
    31    31    32   ar
    32    32    33    1
    33    10     5   ar
    34    32    11   ar
    35    23    18    1
    36    30    24   ar
    37     4    34    1
    38     9    35    1
    39    12    36    1
    40    16    37    1
    41    17    38    1
    42    17    39    1
    43    18    40    1
    44    19    41    1
    45    20    42    1
    46    20    43    1
    47    21    44    1
    48    21    45    1
    49    22    46    1
    50    25    47    1
    51    26    48    1
    52    29    49    1
    53    30    50    1
    54    31    51    1
