@<TRIPOS>MOLECULE
*****
 53 57 0 0 0
SMALL
GASTEIGER

@<TRIPOS>ATOM
      1 C           5.0758    4.0786    0.8868 C.3     1  UNL1        0.0004
      2 N           4.2543    3.1062    0.1975 N.am    1  UNL1       -0.3144
      3 C           4.4836    1.7357    0.4685 C.2     1  UNL1        0.2460
      4 O           5.3689    1.3811    1.2740 O.2     1  UNL1       -0.2701
      5 C           3.6782    0.7283   -0.1994 C.ar    1  UNL1        0.0666
      6 C           4.0955   -0.3272   -0.9667 C.ar    1  UNL1        0.0175
      7 N           3.0122   -1.0086   -1.3792 N.ar    1  UNL1       -0.3503
      8 C           3.0935   -2.1938   -2.2135 C.3     1  UNL1        0.0117
      9 C           1.9235   -0.4250   -0.9021 C.ar    1  UNL1        0.0569
     10 C           2.3023    0.6649   -0.1599 C.ar    1  UNL1        0.0722
     11 C           1.0719    1.3044    0.3607 C.2     1  UNL1        0.2542
     12 O           1.1590    2.3425    1.0845 O.2     1  UNL1       -0.2695
     13 N          -0.0401    0.5742   -0.0867 N.am    1  UNL1       -0.2530
     14 C          -1.4089    0.8866    0.2039 C.ar    1  UNL1        0.0545
     15 C          -1.7924    1.9596    0.9744 C.ar    1  UNL1       -0.0324
     16 C          -3.1203    2.2446    1.2507 C.ar    1  UNL1       -0.0041
     17 C          -3.4649    3.4155    2.0883 C.3     1  UNL1       -0.0361
     18 C          -4.0997    1.4344    0.7428 C.ar    1  UNL1        0.1641
     19 N          -5.4339    1.4360    0.8249 N.ar    1  UNL1       -0.1292
     20 N          -5.9006    0.4175    0.1437 N.ar    1  UNL1       -0.1340
     21 C          -4.8704   -0.2740   -0.4007 C.ar    1  UNL1        0.1347
     22 C          -5.0409   -1.4736   -1.2222 C.3     1  UNL1       -0.0041
     23 N          -3.7464    0.3625   -0.0257 N.ar    1  UNL1       -0.2846
     24 C          -2.4431    0.1000   -0.2850 C.ar    1  UNL1        0.0344
     25 C           0.4169   -0.5267   -0.8748 C.3     1  UNL1        0.0973
     26 C           0.0943   -1.8609   -0.3197 C.ar    1  UNL1       -0.0208
     27 C          -0.3235   -2.8608   -1.1702 C.ar    1  UNL1       -0.0550
     28 C          -0.6470   -4.1342   -0.6970 C.ar    1  UNL1       -0.0431
     29 C          -0.5400   -4.3732    0.6414 C.ar    1  UNL1        0.0410
     30 CL         -0.9433   -5.9780    1.2584 Cl      1  UNL1       -0.0835
     31 C          -0.1244   -3.3814    1.4944 C.ar    1  UNL1       -0.0431
     32 C           0.1923   -2.1257    1.0099 C.ar    1  UNL1       -0.0550
     33 H           4.6971    5.0988    0.6421 H       1  UNL1        0.0426
     34 H           5.0881    3.9158    1.9830 H       1  UNL1        0.0426
     35 H           6.1343    4.0612    0.5613 H       1  UNL1        0.0426
     36 H           3.5157    3.4051   -0.4789 H       1  UNL1        0.1487
     37 H           5.1473   -0.5564   -1.1923 H       1  UNL1        0.0817
     38 H           4.0632   -2.3150   -2.7005 H       1  UNL1        0.0456
     39 H           2.3439   -2.1015   -3.0253 H       1  UNL1        0.0456
     40 H           2.9300   -3.1137   -1.6030 H       1  UNL1        0.0456
     41 H          -1.0484    2.6253    1.3942 H       1  UNL1        0.0640
     42 H          -4.0267    4.1801    1.5353 H       1  UNL1        0.0279
     43 H          -4.0820    3.0263    2.9342 H       1  UNL1        0.0279
     44 H          -2.5309    3.8932    2.4553 H       1  UNL1        0.0279
     45 H          -4.2509   -1.6646   -1.9597 H       1  UNL1        0.0308
     46 H          -6.0288   -1.4803   -1.7663 H       1  UNL1        0.0308
     47 H          -5.1147   -2.3767   -0.5469 H       1  UNL1        0.0308
     48 H          -2.2464   -0.7668   -0.9067 H       1  UNL1        0.0833
     49 H           0.0677   -0.4526   -1.9242 H       1  UNL1        0.0619
     50 H          -0.4157   -2.6950   -2.2391 H       1  UNL1        0.0621
     51 H          -0.9767   -4.9225   -1.3743 H       1  UNL1        0.0632
     52 H          -0.0639   -3.6384    2.5424 H       1  UNL1        0.0632
     53 H           0.5155   -1.3519    1.6673 H       1  UNL1        0.0621
@<TRIPOS>BOND
     1     1     2    1
     2     2     3   am
     3     3     4    2
     4     3     5    1
     5     5     6   ar
     6     6     7   ar
     7     7     8    1
     8     7     9   ar
     9     9    10   ar
    10    10    11    1
    11    11    12    2
    12    11    13   am
    13    13    14    1
    14    14    15   ar
    15    15    16   ar
    16    16    17    1
    17    16    18   ar
    18    18    19   ar
    19    19    20   ar
    20    20    21   ar
    21    21    22    1
    22    21    23   ar
    23    23    24   ar
    24    13    25    1
    25    25    26    1
    26    26    27   ar
    27    27    28   ar
    28    28    29   ar
    29    29    30    1
    30    29    31   ar
    31    31    32   ar
    32    10     5   ar
    33    24    14   ar
    34    32    26   ar
    35    25     9    1
    36    23    18   ar
    37     1    33    1
    38     1    34    1
    39     1    35    1
    40     2    36    1
    41     6    37    1
    42     8    38    1
    43     8    39    1
    44     8    40    1
    45    15    41    1
    46    17    42    1
    47    17    43    1
    48    17    44    1
    49    22    45    1
    50    22    46    1
    51    22    47    1
    52    24    48    1
    53    25    49    1
    54    27    50    1
    55    28    51    1
    56    31    52    1
    57    32    53    1
