
     RDKit          3D

 53 57  0  0  0  0  0  0  0  0999 V2000
    5.0758    4.0786    0.8868 C   0  0  0  0  0  0  0  0  0  0  0  0
    4.2543    3.1062    0.1975 N   0  0  0  0  0  0  0  0  0  0  0  0
    4.4836    1.7357    0.4685 C   0  0  0  0  0  0  0  0  0  0  0  0
    5.3689    1.3811    1.2740 O   0  0  0  0  0  0  0  0  0  0  0  0
    3.6782    0.7283   -0.1994 C   0  0  0  0  0  0  0  0  0  0  0  0
    4.0955   -0.3272   -0.9667 C   0  0  0  0  0  0  0  0  0  0  0  0
    3.0122   -1.0086   -1.3792 N   0  0  0  0  0  0  0  0  0  0  0  0
    3.0935   -2.1938   -2.2135 C   0  0  0  0  0  0  0  0  0  0  0  0
    1.9235   -0.4250   -0.9021 C   0  0  0  0  0  0  0  0  0  0  0  0
    2.3023    0.6649   -0.1599 C   0  0  0  0  0  0  0  0  0  0  0  0
    1.0719    1.3044    0.3607 C   0  0  0  0  0  0  0  0  0  0  0  0
    1.1590    2.3425    1.0845 O   0  0  0  0  0  0  0  0  0  0  0  0
   -0.0401    0.5742   -0.0867 N   0  0  0  0  0  0  0  0  0  0  0  0
   -1.4089    0.8866    0.2039 C   0  0  0  0  0  0  0  0  0  0  0  0
   -1.7924    1.9596    0.9744 C   0  0  0  0  0  0  0  0  0  0  0  0
   -3.1203    2.2446    1.2507 C   0  0  0  0  0  0  0  0  0  0  0  0
   -3.4649    3.4155    2.0883 C   0  0  0  0  0  0  0  0  0  0  0  0
   -4.0997    1.4344    0.7428 C   0  0  0  0  0  0  0  0  0  0  0  0
   -5.4339    1.4360    0.8249 N   0  0  0  0  0  0  0  0  0  0  0  0
   -5.9006    0.4175    0.1437 N   0  0  0  0  0  0  0  0  0  0  0  0
   -4.8704   -0.2740   -0.4007 C   0  0  0  0  0  0  0  0  0  0  0  0
   -5.0409   -1.4736   -1.2222 C   0  0  0  0  0  0  0  0  0  0  0  0
   -3.7464    0.3625   -0.0257 N   0  0  0  0  0  0  0  0  0  0  0  0
   -2.4431    0.1000   -0.2850 C   0  0  0  0  0  0  0  0  0  0  0  0
    0.4169   -0.5267   -0.8748 C   0  0  0  0  0  0  0  0  0  0  0  0
    0.0943   -1.8609   -0.3197 C   0  0  0  0  0  0  0  0  0  0  0  0
   -0.3235   -2.8608   -1.1702 C   0  0  0  0  0  0  0  0  0  0  0  0
   -0.6470   -4.1342   -0.6970 C   0  0  0  0  0  0  0  0  0  0  0  0
   -0.5400   -4.3732    0.6414 C   0  0  0  0  0  0  0  0  0  0  0  0
   -0.9433   -5.9780    1.2584 Cl  0  0  0  0  0  0  0  0  0  0  0  0
   -0.1244   -3.3814    1.4944 C   0  0  0  0  0  0  0  0  0  0  0  0
    0.1923   -2.1257    1.0099 C   0  0  0  0  0  0  0  0  0  0  0  0
    4.6971    5.0988    0.6421 H   0  0  0  0  0  0  0  0  0  0  0  0
    5.0881    3.9158    1.9830 H   0  0  0  0  0  0  0  0  0  0  0  0
    6.1343    4.0612    0.5613 H   0  0  0  0  0  0  0  0  0  0  0  0
    3.5157    3.4051   -0.4789 H   0  0  0  0  0  0  0  0  0  0  0  0
    5.1473   -0.5564   -1.1923 H   0  0  0  0  0  0  0  0  0  0  0  0
    4.0632   -2.3150   -2.7005 H   0  0  0  0  0  0  0  0  0  0  0  0
    2.3439   -2.1015   -3.0253 H   0  0  0  0  0  0  0  0  0  0  0  0
    2.9300   -3.1137   -1.6030 H   0  0  0  0  0  0  0  0  0  0  0  0
   -1.0484    2.6253    1.3942 H   0  0  0  0  0  0  0  0  0  0  0  0
   -4.0267    4.1801    1.5353 H   0  0  0  0  0  0  0  0  0  0  0  0
   -4.0820    3.0263    2.9342 H   0  0  0  0  0  0  0  0  0  0  0  0
   -2.5309    3.8932    2.4553 H   0  0  0  0  0  0  0  0  0  0  0  0
   -4.2509   -1.6646   -1.9597 H   0  0  0  0  0  0  0  0  0  0  0  0
   -6.0288   -1.4803   -1.7663 H   0  0  0  0  0  0  0  0  0  0  0  0
   -5.1147   -2.3767   -0.5469 H   0  0  0  0  0  0  0  0  0  0  0  0
   -2.2464   -0.7668   -0.9067 H   0  0  0  0  0  0  0  0  0  0  0  0
    0.0677   -0.4526   -1.9242 H   0  0  0  0  0  0  0  0  0  0  0  0
   -0.4157   -2.6950   -2.2391 H   0  0  0  0  0  0  0  0  0  0  0  0
   -0.9767   -4.9225   -1.3743 H   0  0  0  0  0  0  0  0  0  0  0  0
   -0.0639   -3.6384    2.5424 H   0  0  0  0  0  0  0  0  0  0  0  0
    0.5155   -1.3519    1.6673 H   0  0  0  0  0  0  0  0  0  0  0  0
  1  2  1  0
  2  3  1  0
  3  4  2  0
  3  5  1  0
  5  6  2  0
  6  7  1  0
  7  8  1  0
  7  9  1  0
  9 10  2  0
 10 11  1  0
 11 12  2  0
 11 13  1  0
 13 14  1  0
 14 15  1  0
 15 16  2  0
 16 17  1  0
 16 18  1  0
 18 19  2  0
 19 20  1  0
 20 21  2  0
 21 22  1  0
 21 23  1  0
 23 24  1  0
 13 25  1  0
 25 26  1  0
 26 27  2  0
 27 28  1  0
 28 29  2  0
 29 30  1  0
 29 31  1  0
 31 32  2  0
 10  5  1  0
 24 14  2  0
 32 26  1  0
 25  9  1  0
 23 18  1  0
  1 33  1  0
  1 34  1  0
  1 35  1  0
  2 36  1  0
  6 37  1  0
  8 38  1  0
  8 39  1  0
  8 40  1  0
 15 41  1  0
 17 42  1  0
 17 43  1  0
 17 44  1  0
 22 45  1  0
 22 46  1  0
 22 47  1  0
 24 48  1  0
 25 49  1  0
 27 50  1  0
 28 51  1  0
 31 52  1  0
 32 53  1  0
M  END
$$$$
