@<TRIPOS>MOLECULE
*****
 43 46 0 0 0
SMALL
GASTEIGER

@<TRIPOS>ATOM
      1 C           5.1648    2.0847    0.1532 C.3     1  UNL1       -0.0385
      2 C           3.6913    2.0861   -0.2520 C.ar    1  UNL1       -0.0309
      3 C           3.2090    3.2767   -0.8108 C.ar    1  UNL1       -0.0189
      4 S           1.4857    2.9664   -1.1714 S.2     1  UNL1       -0.0809
      5 C           1.5219    1.2629   -0.5509 C.ar    1  UNL1        0.0827
      6 N           0.4126    0.4100   -0.5491 N.am    1  UNL1       -0.2781
      7 C           0.1625   -0.4258   -1.6684 C.2     1  UNL1        0.2354
      8 O           0.9811   -0.3629   -2.6404 O.2     1  UNL1       -0.2737
      9 C          -1.0167   -1.3613   -1.7373 C.3     1  UNL1        0.0964
     10 N          -1.8095   -1.2926   -0.5797 N.am    1  UNL1       -0.2623
     11 C          -1.5232   -2.1737    0.5121 C.2     1  UNL1        0.2205
     12 O          -0.4303   -2.7628    0.5985 O.2     1  UNL1       -0.2752
     13 C          -2.5574   -2.3865    1.5625 C.3     1  UNL1        0.0285
     14 C          -3.3530   -1.1585    1.8226 C.3     1  UNL1       -0.0177
     15 C          -3.6371   -0.3005    0.6673 C.ar    1  UNL1       -0.0255
     16 C          -4.7036    0.6242    0.7317 C.ar    1  UNL1       -0.0568
     17 C          -4.9780    1.4481   -0.3257 C.ar    1  UNL1       -0.0614
     18 C          -4.1904    1.3707   -1.4827 C.ar    1  UNL1       -0.0600
     19 C          -3.1511    0.4759   -1.5577 C.ar    1  UNL1       -0.0400
     20 C          -2.8879   -0.3477   -0.4838 C.ar    1  UNL1        0.0400
     21 C           2.8165    1.0876   -0.1337 C.ar    1  UNL1        0.0504
     22 C           3.1754   -0.2566    0.4440 C.ar    1  UNL1        0.1640
     23 N           2.3303   -1.2947    0.5831 N.ar    1  UNL1       -0.1295
     24 N           2.9227   -2.3392    1.1168 N.ar    1  UNL1       -0.1377
     25 C           4.1890   -1.9833    1.3356 C.ar    1  UNL1        0.1175
     26 N           4.3367   -0.6918    0.9159 N.ar    1  UNL1       -0.3276
     27 H           5.7588    1.4125   -0.4583 H       1  UNL1        0.0278
     28 H           5.2699    2.0094    1.2518 H       1  UNL1        0.0278
     29 H           5.5989    3.1072   -0.0668 H       1  UNL1        0.0278
     30 H           3.7088    4.2102   -1.0088 H       1  UNL1        0.0697
     31 H          -0.2191    0.3982    0.2764 H       1  UNL1        0.1554
     32 H          -0.5375   -2.3886   -1.7841 H       1  UNL1        0.0564
     33 H          -1.4560   -1.2230   -2.7195 H       1  UNL1        0.0564
     34 H          -2.0449   -2.7030    2.4817 H       1  UNL1        0.0362
     35 H          -3.2392   -3.1890    1.2089 H       1  UNL1        0.0362
     36 H          -2.7554   -0.5270    2.5363 H       1  UNL1        0.0318
     37 H          -4.3162   -1.4433    2.3019 H       1  UNL1        0.0318
     38 H          -5.2917    0.6475    1.6589 H       1  UNL1        0.0621
     39 H          -5.7974    2.1423   -0.2465 H       1  UNL1        0.0618
     40 H          -4.4641    2.0509   -2.2771 H       1  UNL1        0.0618
     41 H          -2.5531    0.4161   -2.4277 H       1  UNL1        0.0636
     42 H           4.9316   -2.6314    1.7691 H       1  UNL1        0.1046
     43 H           5.2453   -0.2444    1.0042 H       1  UNL1        0.1683
@<TRIPOS>BOND
     1     1     2    1
     2     2     3   ar
     3     3     4   ar
     4     4     5   ar
     5     5     6    1
     6     6     7   am
     7     7     8    2
     8     7     9    1
     9     9    10    1
    10    10    11   am
    11    11    12    2
    12    11    13    1
    13    13    14    1
    14    14    15    1
    15    15    16   ar
    16    16    17   ar
    17    17    18   ar
    18    18    19   ar
    19    19    20   ar
    20     5    21   ar
    21    21    22    1
    22    22    23   ar
    23    23    24   ar
    24    24    25   ar
    25    25    26   ar
    26    21     2   ar
    27    26    22   ar
    28    20    10    1
    29    20    15   ar
    30     1    27    1
    31     1    28    1
    32     1    29    1
    33     3    30    1
    34     6    31    1
    35     9    32    1
    36     9    33    1
    37    13    34    1
    38    13    35    1
    39    14    36    1
    40    14    37    1
    41    16    38    1
    42    17    39    1
    43    18    40    1
    44    19    41    1
    45    25    42    1
    46    26    43    1
