
     RDKit          3D

 43 46  0  0  0  0  0  0  0  0999 V2000
    5.1648    2.0847    0.1532 C   0  0  0  0  0  0  0  0  0  0  0  0
    3.6913    2.0861   -0.2520 C   0  0  0  0  0  0  0  0  0  0  0  0
    3.2090    3.2767   -0.8108 C   0  0  0  0  0  0  0  0  0  0  0  0
    1.4857    2.9664   -1.1714 S   0  0  0  0  0  0  0  0  0  0  0  0
    1.5219    1.2629   -0.5509 C   0  0  0  0  0  0  0  0  0  0  0  0
    0.4126    0.4100   -0.5491 N   0  0  0  0  0  0  0  0  0  0  0  0
    0.1625   -0.4258   -1.6684 C   0  0  0  0  0  0  0  0  0  0  0  0
    0.9811   -0.3629   -2.6404 O   0  0  0  0  0  0  0  0  0  0  0  0
   -1.0167   -1.3613   -1.7373 C   0  0  0  0  0  0  0  0  0  0  0  0
   -1.8095   -1.2926   -0.5797 N   0  0  0  0  0  0  0  0  0  0  0  0
   -1.5232   -2.1737    0.5121 C   0  0  0  0  0  0  0  0  0  0  0  0
   -0.4303   -2.7628    0.5985 O   0  0  0  0  0  0  0  0  0  0  0  0
   -2.5574   -2.3865    1.5625 C   0  0  0  0  0  0  0  0  0  0  0  0
   -3.3530   -1.1585    1.8226 C   0  0  0  0  0  0  0  0  0  0  0  0
   -3.6371   -0.3005    0.6673 C   0  0  0  0  0  0  0  0  0  0  0  0
   -4.7036    0.6242    0.7317 C   0  0  0  0  0  0  0  0  0  0  0  0
   -4.9780    1.4481   -0.3257 C   0  0  0  0  0  0  0  0  0  0  0  0
   -4.1904    1.3707   -1.4827 C   0  0  0  0  0  0  0  0  0  0  0  0
   -3.1511    0.4759   -1.5577 C   0  0  0  0  0  0  0  0  0  0  0  0
   -2.8879   -0.3477   -0.4838 C   0  0  0  0  0  0  0  0  0  0  0  0
    2.8165    1.0876   -0.1337 C   0  0  0  0  0  0  0  0  0  0  0  0
    3.1754   -0.2566    0.4440 C   0  0  0  0  0  0  0  0  0  0  0  0
    2.3303   -1.2947    0.5831 N   0  0  0  0  0  0  0  0  0  0  0  0
    2.9227   -2.3392    1.1168 N   0  0  0  0  0  0  0  0  0  0  0  0
    4.1890   -1.9833    1.3356 C   0  0  0  0  0  0  0  0  0  0  0  0
    4.3367   -0.6918    0.9159 N   0  0  0  0  0  0  0  0  0  0  0  0
    5.7588    1.4125   -0.4583 H   0  0  0  0  0  0  0  0  0  0  0  0
    5.2699    2.0094    1.2518 H   0  0  0  0  0  0  0  0  0  0  0  0
    5.5989    3.1072   -0.0668 H   0  0  0  0  0  0  0  0  0  0  0  0
    3.7088    4.2102   -1.0088 H   0  0  0  0  0  0  0  0  0  0  0  0
   -0.2191    0.3982    0.2764 H   0  0  0  0  0  0  0  0  0  0  0  0
   -0.5375   -2.3886   -1.7841 H   0  0  0  0  0  0  0  0  0  0  0  0
   -1.4560   -1.2230   -2.7195 H   0  0  0  0  0  0  0  0  0  0  0  0
   -2.0449   -2.7030    2.4817 H   0  0  0  0  0  0  0  0  0  0  0  0
   -3.2392   -3.1890    1.2089 H   0  0  0  0  0  0  0  0  0  0  0  0
   -2.7554   -0.5270    2.5363 H   0  0  0  0  0  0  0  0  0  0  0  0
   -4.3162   -1.4433    2.3019 H   0  0  0  0  0  0  0  0  0  0  0  0
   -5.2917    0.6475    1.6589 H   0  0  0  0  0  0  0  0  0  0  0  0
   -5.7974    2.1423   -0.2465 H   0  0  0  0  0  0  0  0  0  0  0  0
   -4.4641    2.0509   -2.2771 H   0  0  0  0  0  0  0  0  0  0  0  0
   -2.5531    0.4161   -2.4277 H   0  0  0  0  0  0  0  0  0  0  0  0
    4.9316   -2.6314    1.7691 H   0  0  0  0  0  0  0  0  0  0  0  0
    5.2453   -0.2444    1.0042 H   0  0  0  0  0  0  0  0  0  0  0  0
  1  2  1  0
  2  3  2  0
  3  4  1  0
  4  5  1  0
  5  6  1  0
  6  7  1  0
  7  8  2  0
  7  9  1  0
  9 10  1  0
 10 11  1  0
 11 12  2  0
 11 13  1  0
 13 14  1  0
 14 15  1  0
 15 16  2  0
 16 17  1  0
 17 18  2  0
 18 19  1  0
 19 20  2  0
  5 21  2  0
 21 22  1  0
 22 23  2  0
 23 24  1  0
 24 25  2  0
 25 26  1  0
 21  2  1  0
 26 22  1  0
 20 10  1  0
 20 15  1  0
  1 27  1  0
  1 28  1  0
  1 29  1  0
  3 30  1  0
  6 31  1  0
  9 32  1  0
  9 33  1  0
 13 34  1  0
 13 35  1  0
 14 36  1  0
 14 37  1  0
 16 38  1  0
 17 39  1  0
 18 40  1  0
 19 41  1  0
 25 42  1  0
 26 43  1  0
M  END
$$$$
