@<TRIPOS>MOLECULE
*****
 49 52 0 0 0
SMALL
GASTEIGER

@<TRIPOS>ATOM
      1 C          -1.7496   -4.7419    1.1747 C.3     1  UNL1        0.0119
      2 N          -1.7403   -3.3323    0.8219 N.ar    1  UNL1       -0.3490
      3 C          -2.7992   -2.5406    0.5919 C.ar    1  UNL1        0.0145
      4 C          -2.3994   -1.2589    0.2829 C.ar    1  UNL1        0.0236
      5 C          -3.2942   -0.1673   -0.0173 C.ar    1  UNL1        0.0506
      6 C          -3.1764    1.1542   -0.3448 C.ar    1  UNL1       -0.0270
      7 C          -4.3904    1.7780   -0.5374 C.ar    1  UNL1        0.0193
      8 C          -4.7298    3.0716   -0.8716 C.ar    1  UNL1       -0.0496
      9 C          -6.0573    3.4319   -1.0016 C.ar    1  UNL1       -0.0429
     10 C          -6.9372    2.3849   -0.7658 C.ar    1  UNL1        0.0299
     11 N          -6.6079    1.1223   -0.4397 N.ar    1  UNL1       -0.2375
     12 C          -5.3128    0.7774   -0.3145 C.ar    1  UNL1        0.1385
     13 N          -4.6271   -0.3369   -0.0148 N.ar    1  UNL1       -0.3390
     14 C          -1.0351   -1.3587    0.3488 C.ar    1  UNL1        0.0097
     15 C          -0.0321   -0.4377    0.1483 C.ar    1  UNL1       -0.0398
     16 C           1.2905   -0.7322    0.2618 C.ar    1  UNL1        0.0374
     17 C           1.6833   -2.0083    0.5931 C.ar    1  UNL1       -0.0477
     18 C           0.7135   -2.9619    0.8028 C.ar    1  UNL1       -0.0369
     19 C          -0.6059   -2.6246    0.6787 C.ar    1  UNL1        0.0495
     20 C           2.2860    0.2957    0.0342 C.2     1  UNL1        0.2446
     21 O           1.8977    1.4732   -0.2724 O.2     1  UNL1       -0.2702
     22 N           3.6755    0.1566    0.1108 N.am    1  UNL1       -0.3041
     23 C           4.5719    1.2688   -0.1413 C.3     1  UNL1        0.0522
     24 C           4.3674    1.7698   -1.5290 C.3     1  UNL1       -0.0418
     25 C           4.3635    2.3910    0.8499 C.3     1  UNL1       -0.0418
     26 C           5.9951    0.7321   -0.0266 C.3     1  UNL1        0.0649
     27 O           6.2297   -0.2767   -0.9473 O.3     1  UNL1       -0.3929
     28 H          -1.0205   -5.3407    0.5742 H       1  UNL1        0.0456
     29 H          -2.7564   -5.1347    0.9738 H       1  UNL1        0.0456
     30 H          -1.4603   -4.9048    2.2485 H       1  UNL1        0.0456
     31 H          -3.8091   -2.9570    0.6659 H       1  UNL1        0.0816
     32 H          -2.2449    1.6763   -0.4476 H       1  UNL1        0.0645
     33 H          -3.9567    3.8050   -1.0321 H       1  UNL1        0.0625
     34 H          -6.3890    4.4120   -1.2571 H       1  UNL1        0.0633
     35 H          -8.0047    2.5571   -0.8409 H       1  UNL1        0.0830
     36 H          -5.2087   -1.1983    0.1835 H       1  UNL1        0.1673
     37 H          -0.3007    0.5684   -0.1117 H       1  UNL1        0.0632
     38 H           2.7064   -2.3195    0.7018 H       1  UNL1        0.0626
     39 H           1.0031   -3.9830    1.0672 H       1  UNL1        0.0638
     40 H           4.0333   -0.8125    0.3646 H       1  UNL1        0.1496
     41 H           4.2443    2.8853   -1.5146 H       1  UNL1        0.0251
     42 H           3.4817    1.2803   -1.9745 H       1  UNL1        0.0251
     43 H           5.2318    1.5146   -2.1593 H       1  UNL1        0.0251
     44 H           3.9348    2.0079    1.7860 H       1  UNL1        0.0251
     45 H           5.3696    2.8181    1.0497 H       1  UNL1        0.0251
     46 H           3.7761    3.2093    0.3866 H       1  UNL1        0.0251
     47 H           6.1619    0.2710    0.9868 H       1  UNL1        0.0578
     48 H           6.7360    1.5532   -0.0787 H       1  UNL1        0.0578
     49 H           6.8927   -0.9376   -0.5681 H       1  UNL1        0.2095
@<TRIPOS>BOND
     1     1     2    1
     2     2     3   ar
     3     3     4   ar
     4     4     5    1
     5     5     6   ar
     6     6     7   ar
     7     7     8   ar
     8     8     9   ar
     9     9    10   ar
    10    10    11   ar
    11    11    12   ar
    12    12    13   ar
    13     4    14   ar
    14    14    15   ar
    15    15    16   ar
    16    16    17   ar
    17    17    18   ar
    18    18    19   ar
    19    16    20    1
    20    20    21    2
    21    20    22   am
    22    22    23    1
    23    23    24    1
    24    23    25    1
    25    23    26    1
    26    26    27    1
    27    19     2   ar
    28    13     5   ar
    29    19    14   ar
    30    12     7   ar
    31     1    28    1
    32     1    29    1
    33     1    30    1
    34     3    31    1
    35     6    32    1
    36     8    33    1
    37     9    34    1
    38    10    35    1
    39    13    36    1
    40    15    37    1
    41    17    38    1
    42    18    39    1
    43    22    40    1
    44    24    41    1
    45    24    42    1
    46    24    43    1
    47    25    44    1
    48    25    45    1
    49    25    46    1
    50    26    47    1
    51    26    48    1
    52    27    49    1
