@<TRIPOS>MOLECULE
*****
 178 179 0 0 0
SMALL
GASTEIGER

@<TRIPOS>ATOM
      1 C         -15.7885   -4.4632   -0.9194 C.3     1  UNL1        0.0817
      2 O         -15.2576   -3.9533    0.2872 O.3     1  UNL1       -0.4666
      3 C         -14.7228   -2.6972    0.2852 C.2     1  UNL1        0.3276
      4 O         -14.7194   -2.0393   -0.7946 O.2     1  UNL1       -0.2487
      5 C         -14.1551   -2.0896    1.4858 C.3     1  UNL1        0.1230
      6 C         -15.1493   -1.8246    2.5650 C.3     1  UNL1       -0.0225
      7 C         -14.5708   -0.5613    3.2323 C.3     1  UNL1       -0.0349
      8 C         -14.2156    0.1955    1.9239 C.3     1  UNL1        0.0157
      9 N         -13.5276   -0.7796    1.1395 N.am    1  UNL1       -0.2865
     10 C         -12.4965   -0.6716    0.2067 C.2     1  UNL1        0.2371
     11 O         -12.1659   -1.8435   -0.3196 O.2     1  UNL1       -0.2735
     12 C         -11.7462    0.4712   -0.2757 C.3     1  UNL1        0.1061
     13 C         -12.4638    1.4461   -1.1524 C.3     1  UNL1       -0.0005
     14 C         -13.6416    2.1303   -0.7268 C.ar    1  UNL1       -0.0451
     15 C         -13.6367    3.3337   -0.0748 C.ar    1  UNL1       -0.0585
     16 C         -14.7823    3.9988    0.3004 C.ar    1  UNL1       -0.0615
     17 C         -16.0226    3.4671    0.0286 C.ar    1  UNL1       -0.0617
     18 C         -16.0631    2.2402   -0.6377 C.ar    1  UNL1       -0.0615
     19 C         -14.9057    1.5921   -1.0034 C.ar    1  UNL1       -0.0585
     20 N         -10.7673    1.0255    0.6286 N.am    1  UNL1       -0.2911
     21 C         -11.0639    1.6324    1.9110 C.3     1  UNL1        0.0040
     22 C          -9.3569    0.9712    0.3111 C.2     1  UNL1        0.2360
     23 O          -8.5354    1.4725    1.1081 O.2     1  UNL1       -0.2736
     24 C          -8.8196    0.3465   -0.9275 C.3     1  UNL1        0.0968
     25 C          -8.9696   -1.1319   -0.9842 C.3     1  UNL1       -0.0381
     26 N          -7.3919    0.6180   -1.1253 N.am    1  UNL1       -0.3027
     27 C          -6.9261    1.7774   -1.7686 C.2     1  UNL1        0.2365
     28 O          -7.8454    2.5957   -2.1274 O.2     1  UNL1       -0.2737
     29 C          -5.5282    2.1400   -2.0688 C.3     1  UNL1        0.1252
     30 N          -4.6008    1.0847   -1.9351 N.am    1  UNL1       -0.3018
     31 C          -3.3200    1.2520   -1.3600 C.2     1  UNL1        0.2162
     32 O          -2.9911    2.3876   -0.9365 O.2     1  UNL1       -0.2757
     33 C          -2.3684    0.0968   -1.2653 C.3     1  UNL1        0.0517
     34 C          -0.9516    0.6549   -1.0875 C.3     1  UNL1        0.0817
     35 O          -0.7754    1.4363   -2.2574 O.3     1  UNL1       -0.3895
     36 C          -0.0118   -0.4933   -1.2232 C.3     1  UNL1        0.0498
     37 C          -0.2240   -1.6316   -0.2934 C.3     1  UNL1       -0.0297
     38 C          -0.1579   -1.3849    1.1568 C.3     1  UNL1       -0.0450
     39 C          -0.4055   -2.7391    1.8557 C.3     1  UNL1       -0.0626
     40 C           1.1718   -0.9162    1.6757 C.3     1  UNL1       -0.0626
     41 N           1.3905   -0.1201   -1.4082 N.am    1  UNL1       -0.3084
     42 C           2.0539   -0.2465   -2.6254 C.2     1  UNL1        0.2341
     43 O           1.4092   -0.6971   -3.6114 O.2     1  UNL1       -0.2738
     44 C           3.4717    0.0990   -2.9004 C.3     1  UNL1        0.1076
     45 C           4.2129   -1.1028   -3.4437 C.3     1  UNL1        0.0506
     46 C           5.5727   -0.7130   -3.8740 C.2     1  UNL1        0.2127
     47 N           6.5553   -1.6667   -4.2799 N.am    1  UNL1       -0.3293
     48 O           5.8718    0.5274   -3.8813 O.2     1  UNL1       -0.2760
     49 N           4.0563    0.5302   -1.6438 N.am    1  UNL1       -0.3020
     50 C           5.1713    0.0353   -0.9785 C.2     1  UNL1        0.2340
     51 O           5.8802   -0.9137   -1.3412 O.2     1  UNL1       -0.2738
     52 C           5.6205    0.6764    0.3376 C.3     1  UNL1        0.0997
     53 C           5.8365    2.1156    0.0919 C.3     1  UNL1       -0.0236
     54 C           6.2679    2.9440    1.2445 C.3     1  UNL1       -0.0446
     55 C           7.5828    2.4850    1.8048 C.3     1  UNL1       -0.0626
     56 C           6.3357    4.4220    0.8941 C.3     1  UNL1       -0.0626
     57 N           6.7476   -0.0503    0.8658 N.am    1  UNL1       -0.3009
     58 C           6.5978   -1.0629    1.8618 C.2     1  UNL1        0.2547
     59 O           5.4067   -1.2996    2.2519 O.2     1  UNL1       -0.2717
     60 C           7.6790   -1.8317    2.4535 C.3     1  UNL1        0.1807
     61 O           8.9914   -1.3885    2.1192 O.3     1  UNL1       -0.4491
     62 C           9.9613   -1.2197    3.0690 C.2     1  UNL1        0.3494
     63 O           9.6263   -1.4857    4.2760 O.2     1  UNL1       -0.2466
     64 C          11.3522   -0.7722    2.8612 C.3     1  UNL1        0.2012
     65 O          11.5960   -0.3386    1.5560 O.3     1  UNL1       -0.4485
     66 C          12.4331   -0.9195    0.6449 C.2     1  UNL1        0.3255
     67 O          13.0306   -1.9753    1.0343 O.2     1  UNL1       -0.2490
     68 C          12.7156   -0.4646   -0.7220 C.3     1  UNL1        0.1102
     69 C          11.6198    0.2874   -1.3957 C.3     1  UNL1       -0.0207
     70 C          10.3281   -0.4742   -1.5283 C.3     1  UNL1       -0.0607
     71 C          11.4625    1.6325   -0.7152 C.3     1  UNL1       -0.0607
     72 N          13.2425   -1.4844   -1.5801 N.3     1  UNL1       -0.2959
     73 C          14.4554   -2.0726   -1.0373 C.3     1  UNL1       -0.0123
     74 C          13.6005   -0.8516   -2.8565 C.3     1  UNL1       -0.0123
     75 C          11.6932    0.3331    3.8259 C.3     1  UNL1        0.0011
     76 C          10.8186    1.5389    3.6811 C.3     1  UNL1       -0.0588
     77 C          11.6473   -0.1671    5.2764 C.3     1  UNL1       -0.0588
     78 C           7.6470   -3.2934    1.9157 C.3     1  UNL1       -0.0008
     79 C           8.8031   -4.0168    2.5777 C.3     1  UNL1       -0.0588
     80 C           7.8339   -3.3107    0.4332 C.3     1  UNL1       -0.0588
     81 C          -5.4464    2.8023   -3.4541 C.3     1  UNL1        0.0792
     82 C          -4.0641    3.3672   -3.6845 C.3     1  UNL1       -0.0367
     83 O          -5.7067    1.8797   -4.4670 O.3     1  UNL1       -0.3897
     84 H         -16.8836   -4.5434   -0.9050 H       1  UNL1        0.0661
     85 H         -15.3868   -5.4634   -1.1707 H       1  UNL1        0.0661
     86 H         -15.4642   -3.8066   -1.7719 H       1  UNL1        0.0661
     87 H         -13.3522   -2.7178    1.9217 H       1  UNL1        0.0616
     88 H         -15.1398   -2.5972    3.3572 H       1  UNL1        0.0289
     89 H         -16.1631   -1.5995    2.1673 H       1  UNL1        0.0289
     90 H         -15.3255    0.0245    3.7501 H       1  UNL1        0.0281
     91 H         -13.6769   -0.8497    3.7820 H       1  UNL1        0.0281
     92 H         -13.7725    1.1503    2.1001 H       1  UNL1        0.0465
     93 H         -15.2612    0.3056    1.4590 H       1  UNL1        0.0465
     94 H         -11.0269   -0.0085   -1.0920 H       1  UNL1        0.0600
     95 H         -11.6468    2.1859   -1.4808 H       1  UNL1        0.0336
     96 H         -12.6524    0.9242   -2.1631 H       1  UNL1        0.0336
     97 H         -12.6817    3.7775    0.1486 H       1  UNL1        0.0620
     98 H         -14.6903    4.9575    0.8201 H       1  UNL1        0.0618
     99 H         -16.9291    3.9867    0.3195 H       1  UNL1        0.0618
    100 H         -17.0560    1.8504   -0.8376 H       1  UNL1        0.0618
    101 H         -14.9561    0.6273   -1.5215 H       1  UNL1        0.0620
    102 H         -11.4451    0.8817    2.6436 H       1  UNL1        0.0429
    103 H         -10.1393    2.0373    2.4034 H       1  UNL1        0.0429
    104 H         -11.7659    2.4568    1.8637 H       1  UNL1        0.0429
    105 H          -9.3490    0.8559   -1.7547 H       1  UNL1        0.0592
    106 H          -9.4396   -1.4828   -1.9408 H       1  UNL1        0.0252
    107 H          -9.4611   -1.5691   -0.0775 H       1  UNL1        0.0252
    108 H          -7.9668   -1.6707   -0.9972 H       1  UNL1        0.0252
    109 H          -6.7158   -0.0645   -0.7721 H       1  UNL1        0.1495
    110 H          -5.2324    2.9755   -1.3690 H       1  UNL1        0.0621
    111 H          -4.8659    0.1064   -2.2847 H       1  UNL1        0.1495
    112 H          -2.4778   -0.4685   -2.2152 H       1  UNL1        0.0384
    113 H          -2.6993   -0.5252   -0.4441 H       1  UNL1        0.0384
    114 H          -0.8905    1.2861   -0.2353 H       1  UNL1        0.0616
    115 H          -0.7754    0.8357   -3.0306 H       1  UNL1        0.2099
    116 H          -0.3002   -0.9276   -2.2437 H       1  UNL1        0.0524
    117 H           0.5689   -2.3946   -0.5466 H       1  UNL1        0.0286
    118 H          -1.1832   -2.1708   -0.5681 H       1  UNL1        0.0286
    119 H          -0.9462   -0.7128    1.5543 H       1  UNL1        0.0296
    120 H          -0.2635   -2.5548    2.9420 H       1  UNL1        0.0232
    121 H          -1.4691   -2.9777    1.6977 H       1  UNL1        0.0232
    122 H           0.3050   -3.5091    1.5046 H       1  UNL1        0.0232
    123 H           1.9701   -1.3874    1.0879 H       1  UNL1        0.0232
    124 H           1.2746    0.1801    1.6684 H       1  UNL1        0.0232
    125 H           1.2269   -1.2699    2.7445 H       1  UNL1        0.0232
    126 H           1.9349    0.2643   -0.6022 H       1  UNL1        0.1491
    127 H           3.5547    0.9140   -3.6280 H       1  UNL1        0.0599
    128 H           3.6119   -1.4443   -4.3297 H       1  UNL1        0.0381
    129 H           4.2922   -1.8881   -2.6816 H       1  UNL1        0.0381
    130 H           6.2707   -2.5380   -4.7813 H       1  UNL1        0.1449
    131 H           7.5584   -1.5239   -4.0959 H       1  UNL1        0.1449
    132 H           3.5381    1.3613   -1.1485 H       1  UNL1        0.1495
    133 H           4.7572    0.4741    1.0250 H       1  UNL1        0.0594
    134 H           4.8939    2.5340   -0.3842 H       1  UNL1        0.0290
    135 H           6.6249    2.1901   -0.7327 H       1  UNL1        0.0290
    136 H           5.4824    2.8424    2.0467 H       1  UNL1        0.0296
    137 H           7.5049    1.5731    2.4104 H       1  UNL1        0.0232
    138 H           7.9971    3.3261    2.4511 H       1  UNL1        0.0232
    139 H           8.3441    2.3192    1.0090 H       1  UNL1        0.0232
    140 H           5.3267    4.8574    1.0492 H       1  UNL1        0.0232
    141 H           6.7330    4.6228   -0.1096 H       1  UNL1        0.0232
    142 H           6.9990    4.8926    1.6759 H       1  UNL1        0.0232
    143 H           7.7269    0.1161    0.5349 H       1  UNL1        0.1496
    144 H           7.5352   -1.9611    3.5385 H       1  UNL1        0.0835
    145 H          12.0206   -1.6556    3.1107 H       1  UNL1        0.0855
    146 H          13.5691    0.2993   -0.6098 H       1  UNL1        0.0581
    147 H          11.9879    0.5332   -2.4398 H       1  UNL1        0.0316
    148 H           9.5349    0.2065   -1.8855 H       1  UNL1        0.0233
    149 H          10.4938   -1.2739   -2.2600 H       1  UNL1        0.0233
    150 H           9.9852   -0.8212   -0.5286 H       1  UNL1        0.0233
    151 H          11.8331    1.5599    0.3075 H       1  UNL1        0.0233
    152 H          12.1636    2.3643   -1.2236 H       1  UNL1        0.0233
    153 H          10.4475    2.0473   -0.7982 H       1  UNL1        0.0233
    154 H          14.9420   -1.4243   -0.2831 H       1  UNL1        0.0391
    155 H          14.2131   -3.0803   -0.6286 H       1  UNL1        0.0391
    156 H          15.1668   -2.2046   -1.8917 H       1  UNL1        0.0391
    157 H          12.7677   -0.8926   -3.5862 H       1  UNL1        0.0391
    158 H          14.4465   -1.4402   -3.3217 H       1  UNL1        0.0391
    159 H          13.9848    0.1662   -2.6816 H       1  UNL1        0.0391
    160 H          12.7623    0.6660    3.6563 H       1  UNL1        0.0337
    161 H          10.5074    1.9524    4.6783 H       1  UNL1        0.0234
    162 H          11.3953    2.3640    3.2056 H       1  UNL1        0.0234
    163 H           9.9254    1.3373    3.0661 H       1  UNL1        0.0234
    164 H          11.7049   -1.2726    5.2998 H       1  UNL1        0.0234
    165 H          12.4466    0.3267    5.8766 H       1  UNL1        0.0234
    166 H          10.6586    0.1708    5.6876 H       1  UNL1        0.0234
    167 H           6.6803   -3.6925    2.2116 H       1  UNL1        0.0336
    168 H           8.8469   -5.0494    2.1698 H       1  UNL1        0.0234
    169 H           8.6843   -4.0581    3.6852 H       1  UNL1        0.0234
    170 H           9.7637   -3.5477    2.3550 H       1  UNL1        0.0234
    171 H           6.9023   -3.5452   -0.1242 H       1  UNL1        0.0234
    172 H           8.6129   -4.0783    0.1634 H       1  UNL1        0.0234
    173 H           8.2371   -2.3346    0.0488 H       1  UNL1        0.0234
    174 H          -6.1575    3.6273   -3.5279 H       1  UNL1        0.0614
    175 H          -3.7899    4.0935   -2.8795 H       1  UNL1        0.0255
    176 H          -3.9657    3.8105   -4.6981 H       1  UNL1        0.0255
    177 H          -3.3124    2.5542   -3.6463 H       1  UNL1        0.0255
    178 H          -5.5305    2.3425   -5.3300 H       1  UNL1        0.2099
@<TRIPOS>BOND
     1     1     2    1
     2     2     3    1
     3     3     4    2
     4     3     5    1
     5     5     6    1
     6     6     7    1
     7     7     8    1
     8     8     9    1
     9     9    10   am
    10    10    11    2
    11    10    12    1
    12    12    13    1
    13    13    14    1
    14    14    15   ar
    15    15    16   ar
    16    16    17   ar
    17    17    18   ar
    18    18    19   ar
    19    12    20    1
    20    20    21    1
    21    20    22   am
    22    22    23    2
    23    22    24    1
    24    24    25    1
    25    24    26    1
    26    26    27   am
    27    27    28    2
    28    27    29    1
    29    29    30    1
    30    30    31   am
    31    31    32    2
    32    31    33    1
    33    33    34    1
    34    34    35    1
    35    34    36    1
    36    36    37    1
    37    37    38    1
    38    38    39    1
    39    38    40    1
    40    36    41    1
    41    41    42   am
    42    42    43    2
    43    42    44    1
    44    44    45    1
    45    45    46    1
    46    46    47   am
    47    46    48    2
    48    44    49    1
    49    49    50   am
    50    50    51    2
    51    50    52    1
    52    52    53    1
    53    53    54    1
    54    54    55    1
    55    54    56    1
    56    52    57    1
    57    57    58   am
    58    58    59    2
    59    58    60    1
    60    60    61    1
    61    61    62    1
    62    62    63    2
    63    62    64    1
    64    64    65    1
    65    65    66    1
    66    66    67    2
    67    66    68    1
    68    68    69    1
    69    69    70    1
    70    69    71    1
    71    68    72    1
    72    72    73    1
    73    72    74    1
    74    64    75    1
    75    75    76    1
    76    75    77    1
    77    60    78    1
    78    78    79    1
    79    78    80    1
    80    29    81    1
    81    81    82    1
    82    81    83    1
    83     9     5    1
    84    19    14   ar
    85     1    84    1
    86     1    85    1
    87     1    86    1
    88     5    87    1
    89     6    88    1
    90     6    89    1
    91     7    90    1
    92     7    91    1
    93     8    92    1
    94     8    93    1
    95    12    94    1
    96    13    95    1
    97    13    96    1
    98    15    97    1
    99    16    98    1
   100    17    99    1
   101    18   100    1
   102    19   101    1
   103    21   102    1
   104    21   103    1
   105    21   104    1
   106    24   105    1
   107    25   106    1
   108    25   107    1
   109    25   108    1
   110    26   109    1
   111    29   110    1
   112    30   111    1
   113    33   112    1
   114    33   113    1
   115    34   114    1
   116    35   115    1
   117    36   116    1
   118    37   117    1
   119    37   118    1
   120    38   119    1
   121    39   120    1
   122    39   121    1
   123    39   122    1
   124    40   123    1
   125    40   124    1
   126    40   125    1
   127    41   126    1
   128    44   127    1
   129    45   128    1
   130    45   129    1
   131    47   130    1
   132    47   131    1
   133    49   132    1
   134    52   133    1
   135    53   134    1
   136    53   135    1
   137    54   136    1
   138    55   137    1
   139    55   138    1
   140    55   139    1
   141    56   140    1
   142    56   141    1
   143    56   142    1
   144    57   143    1
   145    60   144    1
   146    64   145    1
   147    68   146    1
   148    69   147    1
   149    70   148    1
   150    70   149    1
   151    70   150    1
   152    71   151    1
   153    71   152    1
   154    71   153    1
   155    73   154    1
   156    73   155    1
   157    73   156    1
   158    74   157    1
   159    74   158    1
   160    74   159    1
   161    75   160    1
   162    76   161    1
   163    76   162    1
   164    76   163    1
   165    77   164    1
   166    77   165    1
   167    77   166    1
   168    78   167    1
   169    79   168    1
   170    79   169    1
   171    79   170    1
   172    80   171    1
   173    80   172    1
   174    80   173    1
   175    81   174    1
   176    82   175    1
   177    82   176    1
   178    82   177    1
   179    83   178    1
