@<TRIPOS>MOLECULE
*****
 80 81 0 0 0
SMALL
GASTEIGER

@<TRIPOS>ATOM
      1 C           3.7215    2.0911    0.4130 C.3     1  UNL1       -0.0392
      2 C           3.7631    0.5580    0.4282 C.3     1  UNL1        0.0880
      3 N           2.4080    0.1097    0.3828 N.am    1  UNL1       -0.3039
      4 C           1.8530   -0.7457    1.3716 C.2     1  UNL1        0.2344
      5 O           2.6758   -1.0672    2.2856 O.2     1  UNL1       -0.2737
      6 C           0.4598   -1.2306    1.3634 C.3     1  UNL1        0.1076
      7 C           0.3304   -2.7318    1.2554 C.3     1  UNL1        0.0510
      8 C           0.9153   -3.5104    2.3341 C.2     1  UNL1        0.2173
      9 O           1.4348   -2.9960    3.3543 O.2     1  UNL1       -0.2755
     10 N           0.9072   -4.9246    2.2468 N.am    1  UNL1       -0.3075
     11 C           1.4807   -5.7186    3.3119 C.3     1  UNL1        0.0028
     12 C           0.3266   -5.5588    1.0918 C.3     1  UNL1        0.0028
     13 N          -0.3465   -0.6905    0.2716 N.am    1  UNL1       -0.3020
     14 C          -1.4985    0.0787    0.4960 C.2     1  UNL1        0.2345
     15 O          -1.7701    0.2740    1.7467 O.2     1  UNL1       -0.2737
     16 C          -2.3872    0.6504   -0.5167 C.3     1  UNL1        0.1042
     17 N          -3.5424    1.2998    0.1453 N.am    1  UNL1       -0.3035
     18 C          -4.8647    0.8389   -0.0669 C.2     1  UNL1        0.2141
     19 O          -5.0300   -0.1437   -0.8410 O.2     1  UNL1       -0.2758
     20 C          -6.0399    1.4776    0.5915 C.3     1  UNL1        0.0289
     21 C          -7.3307    0.8348    0.1780 C.3     1  UNL1       -0.0295
     22 C          -8.4819    1.5348    0.8887 C.3     1  UNL1       -0.0596
     23 C          -7.3734   -0.6436    0.4080 C.3     1  UNL1       -0.0596
     24 C          -7.5257    1.1107   -1.3200 C.3     1  UNL1       -0.0596
     25 C          -1.7788    1.5571   -1.5061 C.3     1  UNL1       -0.0108
     26 C          -0.7455    0.9002   -2.3562 C.3     1  UNL1       -0.0579
     27 C          -2.8394    2.1104   -2.4533 C.3     1  UNL1       -0.0579
     28 C          -1.1544    2.7703   -0.8080 C.3     1  UNL1       -0.0579
     29 C           4.5712    0.1488   -0.7170 C.2     1  UNL1        0.2371
     30 O           4.0771   -0.5508   -1.6233 O.2     1  UNL1       -0.2850
     31 C           5.9581    0.5527   -0.8115 C.ar    1  UNL1        0.2666
     32 N           6.6381    1.3060    0.0739 N.ar    1  UNL1       -0.2064
     33 C           7.8987    1.4843   -0.3284 C.ar    1  UNL1        0.1100
     34 C           9.0183    2.1352    0.1400 C.ar    1  UNL1       -0.0326
     35 C          10.1976    2.1017   -0.5726 C.ar    1  UNL1       -0.0595
     36 C          10.3123    1.4238   -1.7733 C.ar    1  UNL1       -0.0582
     37 C           9.1839    0.7770   -2.2304 C.ar    1  UNL1       -0.0171
     38 C           7.9900    0.8001   -1.5270 C.ar    1  UNL1        0.1558
     39 O           6.8150    0.2599   -1.7794 O.2     1  UNL1       -0.4330
     40 H           2.7185    2.4639    0.1102 H       1  UNL1        0.0252
     41 H           3.9716    2.4492    1.4233 H       1  UNL1        0.0252
     42 H           4.4389    2.5192   -0.3023 H       1  UNL1        0.0252
     43 H           4.2263    0.1769    1.3770 H       1  UNL1        0.0580
     44 H           1.8244    0.4287   -0.4053 H       1  UNL1        0.1494
     45 H          -0.0066   -0.8554    2.3067 H       1  UNL1        0.0599
     46 H          -0.7333   -3.0239    1.0304 H       1  UNL1        0.0381
     47 H           0.8664   -3.0165    0.2979 H       1  UNL1        0.0381
     48 H           1.1714   -5.3701    4.3230 H       1  UNL1        0.0428
     49 H           2.5885   -5.7716    3.2204 H       1  UNL1        0.0428
     50 H           1.1193   -6.7837    3.2520 H       1  UNL1        0.0428
     51 H           0.5785   -5.0284    0.1600 H       1  UNL1        0.0428
     52 H           0.7678   -6.5898    0.9635 H       1  UNL1        0.0428
     53 H          -0.7808   -5.6321    1.1650 H       1  UNL1        0.0428
     54 H          -0.0382   -0.9044   -0.6861 H       1  UNL1        0.1495
     55 H          -2.8431   -0.2102   -1.0948 H       1  UNL1        0.0600
     56 H          -3.3938    2.1224    0.7900 H       1  UNL1        0.1495
     57 H          -5.8943    1.3152    1.6910 H       1  UNL1        0.0363
     58 H          -6.1121    2.5623    0.4111 H       1  UNL1        0.0363
     59 H          -9.3377    1.6654    0.1817 H       1  UNL1        0.0235
     60 H          -8.7731    0.9001    1.7382 H       1  UNL1        0.0235
     61 H          -8.1586    2.5489    1.1803 H       1  UNL1        0.0235
     62 H          -8.3059   -0.8776    0.9748 H       1  UNL1        0.0235
     63 H          -7.4332   -1.2174   -0.5596 H       1  UNL1        0.0235
     64 H          -6.5208   -1.0434    0.9885 H       1  UNL1        0.0235
     65 H          -7.1094    0.2291   -1.8463 H       1  UNL1        0.0235
     66 H          -8.6277    1.1469   -1.5400 H       1  UNL1        0.0235
     67 H          -7.0092    2.0476   -1.5697 H       1  UNL1        0.0235
     68 H          -1.0480   -0.1473   -2.6216 H       1  UNL1        0.0236
     69 H          -0.7365    1.4053   -3.3940 H       1  UNL1        0.0236
     70 H           0.2866    1.0051   -2.0154 H       1  UNL1        0.0236
     71 H          -2.4162    2.8399   -3.1515 H       1  UNL1        0.0236
     72 H          -3.2481    1.2644   -3.0430 H       1  UNL1        0.0236
     73 H          -3.6705    2.6012   -1.8928 H       1  UNL1        0.0236
     74 H          -0.2078    2.4650   -0.3058 H       1  UNL1        0.0236
     75 H          -1.9026    3.1754   -0.1164 H       1  UNL1        0.0236
     76 H          -0.9886    3.5252   -1.5902 H       1  UNL1        0.0236
     77 H           8.9555    2.6840    1.0931 H       1  UNL1        0.0640
     78 H          11.0801    2.6266   -0.1831 H       1  UNL1        0.0618
     79 H          11.2578    1.4058   -2.3298 H       1  UNL1        0.0619
     80 H           9.2173    0.2244   -3.1757 H       1  UNL1        0.0655
@<TRIPOS>BOND
     1     1     2    1
     2     2     3    1
     3     3     4   am
     4     4     5    2
     5     4     6    1
     6     6     7    1
     7     7     8    1
     8     8     9    2
     9     8    10   am
    10    10    11    1
    11    10    12    1
    12     6    13    1
    13    13    14   am
    14    14    15    2
    15    14    16    1
    16    16    17    1
    17    17    18   am
    18    18    19    2
    19    18    20    1
    20    20    21    1
    21    21    22    1
    22    21    23    1
    23    21    24    1
    24    16    25    1
    25    25    26    1
    26    25    27    1
    27    25    28    1
    28     2    29    1
    29    29    30    2
    30    29    31    1
    31    31    32   ar
    32    32    33   ar
    33    33    34   ar
    34    34    35   ar
    35    35    36   ar
    36    36    37   ar
    37    37    38   ar
    38    38    39   ar
    39    39    31   ar
    40    38    33   ar
    41     1    40    1
    42     1    41    1
    43     1    42    1
    44     2    43    1
    45     3    44    1
    46     6    45    1
    47     7    46    1
    48     7    47    1
    49    11    48    1
    50    11    49    1
    51    11    50    1
    52    12    51    1
    53    12    52    1
    54    12    53    1
    55    13    54    1
    56    16    55    1
    57    17    56    1
    58    20    57    1
    59    20    58    1
    60    22    59    1
    61    22    60    1
    62    22    61    1
    63    23    62    1
    64    23    63    1
    65    23    64    1
    66    24    65    1
    67    24    66    1
    68    24    67    1
    69    26    68    1
    70    26    69    1
    71    26    70    1
    72    27    71    1
    73    27    72    1
    74    27    73    1
    75    28    74    1
    76    28    75    1
    77    28    76    1
    78    34    77    1
    79    35    78    1
    80    36    79    1
    81    37    80    1
