
     RDKit          3D

137141  0  0  0  0  0  0  0  0999 V2000
    0.5134   -4.8748    0.6434 C   0  0  2  0  0  0  0  0  0  0  0  0
   -0.6804   -4.1205    1.1032 N   0  0  0  0  0  0  0  0  0  0  0  0
   -1.5957   -3.2039    0.4971 C   0  0  0  0  0  0  0  0  0  0  0  0
   -0.8156   -2.4666   -0.1036 O   0  0  0  0  0  0  0  0  0  0  0  0
   -3.1250   -3.1241    0.6433 C   0  0  2  0  0  0  0  0  0  0  0  0
   -3.5628   -4.0805   -0.5203 C   0  0  0  0  0  0  0  0  0  0  0  0
   -3.1719   -3.7405   -1.8952 C   0  0  0  0  0  0  0  0  0  0  0  0
   -3.1415   -4.9902   -2.8086 C   0  0  0  0  0  0  0  0  0  0  0  0
   -4.4137   -5.6901   -3.1311 C   0  0  0  0  0  0  0  0  0  0  0  0
   -4.0246   -6.9203   -3.8479 N   0  0  0  0  0  0  0  0  0  0  0  0
   -3.5288   -1.8372    0.3966 N   0  0  0  0  0  0  0  0  0  0  0  0
   -4.4285   -1.2498   -0.3996 C   0  0  0  0  0  0  0  0  0  0  0  0
   -5.3223   -2.0114   -0.6731 O   0  0  0  0  0  0  0  0  0  0  0  0
   -4.5733    0.0588   -0.9500 C   0  0  1  0  0  0  0  0  0  0  0  0
   -5.7588    0.8470   -0.5594 C   0  0  0  0  0  0  0  0  0  0  0  0
   -6.0441    1.4719    0.6777 C   0  0  0  0  0  0  0  0  0  0  0  0
   -6.0375    2.8576    0.6941 C   0  0  0  0  0  0  0  0  0  0  0  0
   -6.4814    3.3205    1.8968 N   0  0  0  0  0  0  0  0  0  0  0  0
   -6.7323    2.2370    2.6111 C   0  0  0  0  0  0  0  0  0  0  0  0
   -6.4221    1.0672    1.8643 C   0  0  0  0  0  0  0  0  0  0  0  0
   -6.6542    0.0074    2.6187 C   0  0  0  0  0  0  0  0  0  0  0  0
   -7.0603   -0.3623    3.8422 C   0  0  0  0  0  0  0  0  0  0  0  0
   -7.4281    0.7491    4.6123 C   0  0  0  0  0  0  0  0  0  0  0  0
   -7.1847    1.7855    3.8178 C   0  0  0  0  0  0  0  0  0  0  0  0
   -3.5019    0.8786   -0.2566 N   0  0  0  0  0  0  0  0  0  0  0  0
   -3.0004    2.1148   -0.3470 C   0  0  0  0  0  0  0  0  0  0  0  0
   -3.3112    2.4604   -1.5355 O   0  0  0  0  0  0  0  0  0  0  0  0
   -2.3100    3.0588    0.4911 C   0  0  2  0  0  0  0  0  0  0  0  0
   -2.4821    4.5055    0.1580 C   0  0  0  0  0  0  0  0  0  0  0  0
   -2.5289    4.6799   -1.3165 C   0  0  0  0  0  0  0  0  0  0  0  0
   -3.8413    5.1715   -1.5095 C   0  0  0  0  0  0  0  0  0  0  0  0
   -4.1843    5.3293   -2.9205 C   0  0  0  0  0  0  0  0  0  0  0  0
   -3.2150    5.0577   -3.9394 C   0  0  0  0  0  0  0  0  0  0  0  0
   -1.8675    4.6637   -3.6779 C   0  0  0  0  0  0  0  0  0  0  0  0
   -2.0129    4.6034   -2.4169 C   0  0  0  0  0  0  0  0  0  0  0  0
   -1.0440    2.5243    0.7994 N   0  0  0  0  0  0  0  0  0  0  0  0
    0.0405    3.2423    1.1299 C   0  0  0  0  0  0  0  0  0  0  0  0
   -0.2458    4.1268    1.8773 O   0  0  0  0  0  0  0  0  0  0  0  0
    1.3493    2.8344    0.5830 C   0  0  2  0  0  0  0  0  0  0  0  0
    1.8832    1.7149    1.4568 C   0  0  0  0  0  0  0  0  0  0  0  0
    3.3604    1.0979    0.7036 S   0  0  0  0  0  0  0  0  0  0  0  0
    4.2035   -0.4640    1.9303 S   0  0  0  0  0  0  0  0  0  0  0  0
    3.3246   -1.9883    1.5683 C   0  0  0  0  0  0  0  0  0  0  0  0
    3.4816   -2.4262    0.0287 C   0  0  2  0  0  0  0  0  0  0  0  0
    2.4721   -3.4623   -0.1227 N   0  0  0  0  0  0  0  0  0  0  0  0
    1.7524   -4.2004    0.8048 C   0  0  0  0  0  0  0  0  0  0  0  0
    2.2778   -4.2658    1.8750 O   0  0  0  0  0  0  0  0  0  0  0  0
    4.8000   -2.9816    0.0779 C   0  0  0  0  0  0  0  0  0  0  0  0
    5.7364   -2.2413    0.1255 O   0  0  0  0  0  0  0  0  0  0  0  0
    4.8591   -4.3691    0.1109 N   0  0  0  0  0  0  0  0  0  0  0  0
    5.9960   -5.1431    0.4843 C   0  0  2  0  0  0  0  0  0  0  0  0
    6.0193   -5.0775    2.0730 C   0  0  0  0  0  0  0  0  0  0  0  0
    6.6182   -3.8910    2.4531 O   0  0  0  0  0  0  0  0  0  0  0  0
    7.3372   -4.5671    0.0499 C   0  0  1  0  0  0  0  0  0  0  0  0
    8.3549   -5.6909    0.3172 C   0  0  0  0  0  0  0  0  0  0  0  0
    7.3151   -4.4234   -1.3263 O   0  0  0  0  0  0  0  0  0  0  0  0
    2.1819    4.0200    0.6682 N   0  0  0  0  0  0  0  0  0  0  0  0
    3.0831    4.3936    1.6709 C   0  0  0  0  0  0  0  0  0  0  0  0
    3.3675    3.6745    2.6592 O   0  0  0  0  0  0  0  0  0  0  0  0
    3.7516    5.7086    1.5622 C   0  0  2  0  0  0  0  0  0  0  0  0
    2.8345    6.8128    1.4381 N   0  0  0  0  0  0  0  0  0  0  0  0
    4.6315    5.6398    0.3935 C   0  0  0  0  0  0  0  0  0  0  0  0
    5.3074    6.8275   -0.1211 C   0  0  0  0  0  0  0  0  0  0  0  0
    6.6683    7.1035    0.1257 C   0  0  0  0  0  0  0  0  0  0  0  0
    7.1640    7.9370   -0.8041 C   0  0  0  0  0  0  0  0  0  0  0  0
    6.4411    8.4479   -1.8165 C   0  0  0  0  0  0  0  0  0  0  0  0
    5.1614    8.2765   -2.1365 C   0  0  0  0  0  0  0  0  0  0  0  0
    4.5561    7.3896   -1.2232 C   0  0  0  0  0  0  0  0  0  0  0  0
    0.3189   -5.1774   -0.8695 C   0  0  1  0  0  0  0  0  0  0  0  0
   -0.7250   -6.2258   -0.9776 C   0  0  0  0  0  0  0  0  0  0  0  0
    0.2066   -4.0653   -1.6366 O   0  0  0  0  0  0  0  0  0  0  0  0
    0.3617   -5.8830    1.0881 H   0  0  0  0  0  0  0  0  0  0  0  0
   -0.8951   -4.1370    2.1259 H   0  0  0  0  0  0  0  0  0  0  0  0
   -3.4285   -3.6630    1.5128 H   0  0  0  0  0  0  0  0  0  0  0  0
   -4.7372   -4.1120   -0.4163 H   0  0  0  0  0  0  0  0  0  0  0  0
   -3.3268   -5.0800   -0.2437 H   0  0  0  0  0  0  0  0  0  0  0  0
   -2.2498   -3.2027   -1.9749 H   0  0  0  0  0  0  0  0  0  0  0  0
   -3.9584   -3.1230   -2.4698 H   0  0  0  0  0  0  0  0  0  0  0  0
   -2.7468   -5.7605   -2.0589 H   0  0  0  0  0  0  0  0  0  0  0  0
   -2.3695   -4.9562   -3.5785 H   0  0  0  0  0  0  0  0  0  0  0  0
   -4.9222   -6.0009   -2.2247 H   0  0  0  0  0  0  0  0  0  0  0  0
   -5.0231   -5.1146   -3.8572 H   0  0  0  0  0  0  0  0  0  0  0  0
   -3.4922   -6.7763   -4.6973 H   0  0  0  0  0  0  0  0  0  0  0  0
   -3.6200   -7.6556   -3.2072 H   0  0  0  0  0  0  0  0  0  0  0  0
   -3.1979   -1.1333    1.0618 H   0  0  0  0  0  0  0  0  0  0  0  0
   -4.3657    0.2136   -2.0193 H   0  0  0  0  0  0  0  0  0  0  0  0
   -6.5832   -0.1069   -0.4667 H   0  0  0  0  0  0  0  0  0  0  0  0
   -6.2975    1.2934   -1.4215 H   0  0  0  0  0  0  0  0  0  0  0  0
   -5.7626    3.5738   -0.0524 H   0  0  0  0  0  0  0  0  0  0  0  0
   -6.6317    4.2735    2.2849 H   0  0  0  0  0  0  0  0  0  0  0  0
   -6.5586   -0.8559    1.9740 H   0  0  0  0  0  0  0  0  0  0  0  0
   -7.0982   -1.3925    4.1624 H   0  0  0  0  0  0  0  0  0  0  0  0
   -7.8094    0.6549    5.6001 H   0  0  0  0  0  0  0  0  0  0  0  0
   -7.5920    2.7024    4.3604 H   0  0  0  0  0  0  0  0  0  0  0  0
   -2.8039    0.4725    0.3837 H   0  0  0  0  0  0  0  0  0  0  0  0
   -2.9551    3.0311    1.5167 H   0  0  0  0  0  0  0  0  0  0  0  0
   -1.4131    4.9282    0.3852 H   0  0  0  0  0  0  0  0  0  0  0  0
   -3.1231    5.0829    0.7815 H   0  0  0  0  0  0  0  0  0  0  0  0
   -4.7012    5.4351   -0.8468 H   0  0  0  0  0  0  0  0  0  0  0  0
   -5.1922    5.6301   -3.2231 H   0  0  0  0  0  0  0  0  0  0  0  0
   -3.6292    5.1583   -4.9807 H   0  0  0  0  0  0  0  0  0  0  0  0
   -1.2371    4.5160   -4.4660 H   0  0  0  0  0  0  0  0  0  0  0  0
   -0.9753    4.3078   -2.0507 H   0  0  0  0  0  0  0  0  0  0  0  0
   -1.0382    1.5169    0.9106 H   0  0  0  0  0  0  0  0  0  0  0  0
    1.3454    2.4863   -0.4226 H   0  0  0  0  0  0  0  0  0  0  0  0
    1.0704    0.9165    1.2600 H   0  0  0  0  0  0  0  0  0  0  0  0
    1.8007    1.9178    2.4997 H   0  0  0  0  0  0  0  0  0  0  0  0
    3.9257   -2.7828    2.0837 H   0  0  0  0  0  0  0  0  0  0  0  0
    2.3295   -2.0581    1.9019 H   0  0  0  0  0  0  0  0  0  0  0  0
    3.2602   -1.5232   -0.4523 H   0  0  0  0  0  0  0  0  0  0  0  0
    2.2506   -3.8360   -1.0077 H   0  0  0  0  0  0  0  0  0  0  0  0
    4.0545   -5.0082   -0.2941 H   0  0  0  0  0  0  0  0  0  0  0  0
    5.9441   -6.1798    0.2833 H   0  0  0  0  0  0  0  0  0  0  0  0
    6.2164   -5.9810    2.5509 H   0  0  0  0  0  0  0  0  0  0  0  0
    4.8698   -4.8903    2.2885 H   0  0  0  0  0  0  0  0  0  0  0  0
    7.4824   -4.2854    2.9103 H   0  0  0  0  0  0  0  0  0  0  0  0
    7.6024   -3.6849    0.6241 H   0  0  0  0  0  0  0  0  0  0  0  0
    8.8697   -5.9863   -0.6139 H   0  0  0  0  0  0  0  0  0  0  0  0
    9.0738   -5.4308    1.1071 H   0  0  0  0  0  0  0  0  0  0  0  0
    7.8476   -6.6203    0.6698 H   0  0  0  0  0  0  0  0  0  0  0  0
    6.4279   -4.6903   -1.6907 H   0  0  0  0  0  0  0  0  0  0  0  0
    2.0854    4.6619   -0.1591 H   0  0  0  0  0  0  0  0  0  0  0  0
    4.3340    5.8708    2.4978 H   0  0  0  0  0  0  0  0  0  0  0  0
    2.5077    7.0989    2.3461 H   0  0  0  0  0  0  0  0  0  0  0  0
    2.1106    6.7278    0.7459 H   0  0  0  0  0  0  0  0  0  0  0  0
    5.5255    4.9579    0.8345 H   0  0  0  0  0  0  0  0  0  0  0  0
    4.3007    4.9703   -0.3990 H   0  0  0  0  0  0  0  0  0  0  0  0
    7.0771    6.7081    1.0176 H   0  0  0  0  0  0  0  0  0  0  0  0
    8.1783    8.1928   -0.6704 H   0  0  0  0  0  0  0  0  0  0  0  0
    7.0136    8.9302   -2.5790 H   0  0  0  0  0  0  0  0  0  0  0  0
    4.5793    8.6739   -2.9359 H   0  0  0  0  0  0  0  0  0  0  0  0
    3.4571    7.1758   -1.2655 H   0  0  0  0  0  0  0  0  0  0  0  0
    1.2878   -5.6749   -1.1257 H   0  0  0  0  0  0  0  0  0  0  0  0
   -0.4416   -7.1666   -0.4868 H   0  0  0  0  0  0  0  0  0  0  0  0
   -1.6499   -5.9323   -0.4819 H   0  0  0  0  0  0  0  0  0  0  0  0
   -0.8449   -6.5070   -2.0688 H   0  0  0  0  0  0  0  0  0  0  0  0
    0.5706   -4.2525   -2.5527 H   0  0  0  0  0  0  0  0  0  0  0  0
  1  2  1  0
  2  3  1  0
  3  4  2  0
  3  5  1  0
  5  6  1  0
  6  7  1  0
  7  8  1  0
  8  9  1  0
  9 10  1  0
  5 11  1  0
 11 12  1  0
 12 13  2  0
 12 14  1  0
 14 15  1  0
 15 16  1  0
 16 17  2  0
 17 18  1  0
 18 19  1  0
 19 20  2  0
 20 21  1  0
 21 22  2  0
 22 23  1  0
 23 24  2  0
 14 25  1  0
 25 26  1  0
 26 27  2  0
 26 28  1  0
 28 29  1  0
 29 30  1  0
 30 31  2  0
 31 32  1  0
 32 33  2  0
 33 34  1  0
 34 35  2  0
 28 36  1  0
 36 37  1  0
 37 38  2  0
 37 39  1  0
 39 40  1  0
 40 41  1  0
 41 42  1  0
 42 43  1  0
 43 44  1  0
 44 45  1  0
 45 46  1  0
 46 47  2  0
 44 48  1  0
 48 49  2  0
 48 50  1  0
 50 51  1  0
 51 52  1  0
 52 53  1  0
 51 54  1  0
 54 55  1  0
 54 56  1  0
 39 57  1  0
 57 58  1  0
 58 59  2  0
 58 60  1  0
 60 61  1  0
 60 62  1  0
 62 63  1  0
 63 64  2  0
 64 65  1  0
 65 66  2  0
 66 67  1  0
 67 68  2  0
  1 69  1  0
 69 70  1  0
 69 71  1  0
 46  1  1  0
 68 63  1  0
 20 16  1  0
 35 30  1  0
 24 19  1  0
  1 72  1  1
  2 73  1  0
  5 74  1  1
  6 75  1  0
  6 76  1  0
  7 77  1  0
  7 78  1  0
  8 79  1  0
  8 80  1  0
  9 81  1  0
  9 82  1  0
 10 83  1  0
 10 84  1  0
 11 85  1  0
 14 86  1  6
 15 87  1  0
 15 88  1  0
 17 89  1  0
 18 90  1  0
 21 91  1  0
 22 92  1  0
 23 93  1  0
 24 94  1  0
 25 95  1  0
 28 96  1  1
 29 97  1  0
 29 98  1  0
 31 99  1  0
 32100  1  0
 33101  1  0
 34102  1  0
 35103  1  0
 36104  1  0
 39105  1  6
 40106  1  0
 40107  1  0
 43108  1  0
 43109  1  0
 44110  1  6
 45111  1  0
 50112  1  0
 51113  1  1
 52114  1  0
 52115  1  0
 53116  1  0
 54117  1  1
 55118  1  0
 55119  1  0
 55120  1  0
 56121  1  0
 57122  1  0
 60123  1  1
 61124  1  0
 61125  1  0
 62126  1  0
 62127  1  0
 64128  1  0
 65129  1  0
 66130  1  0
 67131  1  0
 68132  1  0
 69133  1  6
 70134  1  0
 70135  1  0
 70136  1  0
 71137  1  0
M  END
$$$$
