@<TRIPOS>MOLECULE
*****
 137 141 0 0 0
SMALL
GASTEIGER

@<TRIPOS>ATOM
      1 CA          0.5134   -4.8748    0.6434 C.3     6  THR6        0.1252
      2 N          -0.6804   -4.1205    1.1032 N.am    6  THR6       -0.3003
      3 C          -1.5957   -3.2039    0.4971 C.2     5  LYS5        0.2340
      4 O          -0.8156   -2.4666   -0.1036 O.2     5  LYS5       -0.2738
      5 CA         -3.1250   -3.1241    0.6433 C.3     5  LYS5        0.0994
      6 CB         -3.5628   -4.0805   -0.5203 C.3     5  LYS5       -0.0259
      7 CG         -3.1719   -3.7405   -1.8952 C.3     5  LYS5       -0.0498
      8 CD         -3.1415   -4.9902   -2.8086 C.3     5  LYS5       -0.0406
      9 CE         -4.4137   -5.6901   -3.1311 C.3     5  LYS5       -0.0069
     10 NZ         -4.0246   -6.9203   -3.8479 N.3     5  LYS5       -0.3300
     11 N          -3.5288   -1.8372    0.3966 N.am    5  LYS5       -0.3025
     12 C          -4.4285   -1.2498   -0.3996 C.2     4  TRP4        0.2343
     13 O          -5.3223   -2.0114   -0.6731 O.2     4  TRP4       -0.2738
     14 CA         -4.5733    0.0588   -0.9500 C.3     4  TRP4        0.1034
     15 CB         -5.7588    0.8470   -0.5594 C.3     4  TRP4        0.0013
     16 CG         -6.0441    1.4719    0.6777 C.ar    4  TRP4       -0.0201
     17 CD1        -6.0375    2.8576    0.6941 C.ar    4  TRP4        0.0060
     18 NE1        -6.4814    3.3205    1.8968 N.ar    4  TRP4       -0.3604
     19 CE2        -6.7323    2.2370    2.6111 C.ar    4  TRP4        0.0467
     20 CD2        -6.4221    1.0672    1.8643 C.ar    4  TRP4        0.0029
     21 CE3        -6.6542    0.0074    2.6187 C.ar    4  TRP4       -0.0523
     22 CZ3        -7.0603   -0.3623    3.8422 C.ar    4  TRP4       -0.0611
     23 CH2        -7.4281    0.7491    4.6123 C.ar    4  TRP4       -0.0598
     24 CZ2        -7.1847    1.7855    3.8178 C.ar    4  TRP4       -0.0378
     25 N          -3.5019    0.8786   -0.2566 N.am    4  TRP4       -0.3022
     26 C          -3.0004    2.1148   -0.3470 C.2     3  PHE3        0.2343
     27 O          -3.3112    2.4604   -1.5355 O.2     3  PHE3       -0.2738
     28 CA         -2.3100    3.0588    0.4911 C.3     3  PHE3        0.1034
     29 CB         -2.4821    4.5055    0.1580 C.3     3  PHE3       -0.0007
     30 CG         -2.5289    4.6799   -1.3165 C.ar    3  PHE3       -0.0451
     31 CD1        -3.8413    5.1715   -1.5095 C.ar    3  PHE3       -0.0585
     32 CE1        -4.1843    5.3293   -2.9205 C.ar    3  PHE3       -0.0615
     33 CZ         -3.2150    5.0577   -3.9394 C.ar    3  PHE3       -0.0617
     34 CE2        -1.8675    4.6637   -3.6779 C.ar    3  PHE3       -0.0615
     35 CD2        -2.0129    4.6034   -2.4169 C.ar    3  PHE3       -0.0585
     36 N          -1.0440    2.5243    0.7994 N.am    3  PHE3       -0.3021
     37 C           0.0405    3.2423    1.1299 C.2     2  CYS2        0.2348
     38 O          -0.2458    4.1268    1.8773 O.2     2  CYS2       -0.2737
     39 CA          1.3493    2.8344    0.5830 C.3     2  CYS2        0.1091
     40 CB          1.8832    1.7149    1.4568 C.3     2  CYS2        0.0309
     41 SG          3.3604    1.0979    0.7036 S.3     2  CYS2       -0.0907
     42 SG          4.2035   -0.4640    1.9303 S.3     7  CYS7       -0.0907
     43 CB          3.3246   -1.9883    1.5683 C.3     7  CYS7        0.0309
     44 CA          3.4816   -2.4262    0.0287 C.3     7  CYS7        0.1091
     45 N           2.4721   -3.4623   -0.1227 N.am    7  CYS7       -0.3016
     46 C           1.7524   -4.2004    0.8048 C.2     6  THR6        0.2365
     47 O           2.2778   -4.2658    1.8750 O.2     6  THR6       -0.2737
     48 C           4.8000   -2.9816    0.0779 C.2     7  CYS7        0.2345
     49 O           5.7364   -2.2413    0.1255 O.2     7  CYS7       -0.2737
     50 N           4.8591   -4.3691    0.1109 N.am    8  THR8       -0.3062
     51 CA          5.9960   -5.1431    0.4843 C.3     8  THR8        0.0718
     52 C           6.0193   -5.0775    2.0730 C.3     8  THR8        0.0649
     53 O           6.6182   -3.8910    2.4531 O.3     8  THR8       -0.3931
     54 CB          7.3372   -4.5671    0.0499 C.3     8  THR8        0.0728
     55 CG2         8.3549   -5.6909    0.3172 C.3     8  THR8       -0.0371
     56 OG1         7.3151   -4.4234   -1.3263 O.3     8  THR8       -0.3902
     57 N           2.1819    4.0200    0.6682 N.am    2  CYS2       -0.3019
     58 C           3.0831    4.3936    1.6709 C.2     1  PHE1        0.2308
     59 O           3.3675    3.6745    2.6592 O.2     1  PHE1       -0.2741
     60 CA          3.7516    5.7086    1.5622 C.3     1  PHE1        0.0863
     61 N           2.8345    6.8128    1.4381 N.3     1  PHE1       -0.3197
     62 CB          4.6315    5.6398    0.3935 C.3     1  PHE1       -0.0039
     63 CG          5.3074    6.8275   -0.1211 C.ar    1  PHE1       -0.0454
     64 CD1         6.6683    7.1035    0.1257 C.ar    1  PHE1       -0.0585
     65 CE1         7.1640    7.9370   -0.8041 C.ar    1  PHE1       -0.0615
     66 CZ          6.4411    8.4479   -1.8165 C.ar    1  PHE1       -0.0617
     67 CE2         5.1614    8.2765   -2.1365 C.ar    1  PHE1       -0.0615
     68 CD2         4.5561    7.3896   -1.2232 C.ar    1  PHE1       -0.0585
     69 CB          0.3189   -5.1774   -0.8695 C.3     6  THR6        0.0792
     70 CG2        -0.7250   -6.2258   -0.9776 C.3     6  THR6       -0.0367
     71 OG1         0.2066   -4.0653   -1.6366 O.3     6  THR6       -0.3897
     72 HA          0.3617   -5.8830    1.0881 H       6  THR6        0.0621
     73 H          -0.8951   -4.1370    2.1259 H       6  THR6        0.1496
     74 HA         -3.4285   -3.6630    1.5128 H       5  LYS5        0.0594
     75 HB1        -4.7372   -4.1120   -0.4163 H       5  LYS5        0.0288
     76 HB2        -3.3268   -5.0800   -0.2437 H       5  LYS5        0.0288
     77 HG1        -2.2498   -3.2027   -1.9749 H       5  LYS5        0.0266
     78 HG2        -3.9584   -3.1230   -2.4698 H       5  LYS5        0.0266
     79 HD1        -2.7468   -5.7605   -2.0589 H       5  LYS5        0.0277
     80 HD2        -2.3695   -4.9562   -3.5785 H       5  LYS5        0.0277
     81 HE1        -4.9222   -6.0009   -2.2247 H       5  LYS5        0.0422
     82 HE2        -5.0231   -5.1146   -3.8572 H       5  LYS5        0.0422
     83 HZ1        -3.4922   -6.7763   -4.6973 H       5  LYS5        0.1182
     84 HZ2        -3.6200   -7.6556   -3.2072 H       5  LYS5        0.1182
     85 H          -3.1979   -1.1333    1.0618 H       5  LYS5        0.1495
     86 HA         -4.3657    0.2136   -2.0193 H       4  TRP4        0.0598
     87 HB1        -6.5832   -0.1069   -0.4667 H       4  TRP4        0.0337
     88 HB2        -6.2975    1.2934   -1.4215 H       4  TRP4        0.0337
     89 HD1        -5.7626    3.5738   -0.0524 H       4  TRP4        0.0810
     90 HE1        -6.6317    4.2735    2.2849 H       4  TRP4        0.1653
     91 HE3        -6.5586   -0.8559    1.9740 H       4  TRP4        0.0624
     92 HZ3        -7.0982   -1.3925    4.1624 H       4  TRP4        0.0618
     93 HH2        -7.8094    0.6549    5.6001 H       4  TRP4        0.0618
     94 HZ2        -7.5920    2.7024    4.3604 H       4  TRP4        0.0638
     95 H          -2.8039    0.4725    0.3837 H       4  TRP4        0.1495
     96 HA         -2.9551    3.0311    1.5167 H       3  PHE3        0.0598
     97 HB1        -1.4131    4.9282    0.3852 H       3  PHE3        0.0336
     98 HB2        -3.1231    5.0829    0.7815 H       3  PHE3        0.0336
     99 HD1        -4.7012    5.4351   -0.8468 H       3  PHE3        0.0620
    100 HE1        -5.1922    5.6301   -3.2231 H       3  PHE3        0.0618
    101 HZ         -3.6292    5.1583   -4.9807 H       3  PHE3        0.0618
    102 HE2        -1.2371    4.5160   -4.4660 H       3  PHE3        0.0618
    103 HD2        -0.9753    4.3078   -2.0507 H       3  PHE3        0.0620
    104 H          -1.0382    1.5169    0.9106 H       3  PHE3        0.1495
    105 HA          1.3454    2.4863   -0.4226 H       2  CYS2        0.0603
    106 HB1         1.0704    0.9165    1.2600 H       2  CYS2        0.0407
    107 HB2         1.8007    1.9178    2.4997 H       2  CYS2        0.0407
    108 HB1         3.9257   -2.7828    2.0837 H       7  CYS7        0.0407
    109 HB2         2.3295   -2.0581    1.9019 H       7  CYS7        0.0407
    110 HA          3.2602   -1.5232   -0.4523 H       7  CYS7        0.0603
    111 H           2.2506   -3.8360   -1.0077 H       7  CYS7        0.1495
    112 H           4.0545   -5.0082   -0.2941 H       8  THR8        0.1492
    113 HA          5.9441   -6.1798    0.2833 H       8  THR8        0.0546
    114 H1          6.2164   -5.9810    2.5509 H       8  THR8        0.0576
    115 H2          4.8698   -4.8903    2.2885 H       8  THR8        0.0576
    116 H           7.4824   -4.2854    2.9103 H       8  THR8        0.2095
    117 HB          7.6024   -3.6849    0.6241 H       8  THR8        0.0610
    118 HG21        8.8697   -5.9863   -0.6139 H       8  THR8        0.0255
    119 HG22        9.0738   -5.4308    1.1071 H       8  THR8        0.0255
    120 HG23        7.8476   -6.6203    0.6698 H       8  THR8        0.0255
    121 HG1         6.4279   -4.6903   -1.6907 H       8  THR8        0.2098
    122 H           2.0854    4.6619   -0.1591 H       2  CYS2        0.1495
    123 HA          4.3340    5.8708    2.4978 H       1  PHE1        0.0557
    124 H1          2.5077    7.0989    2.3461 H       1  PHE1        0.1189
    125 H2          2.1106    6.7278    0.7459 H       1  PHE1        0.1189
    126 HB1         5.5255    4.9579    0.8345 H       1  PHE1        0.0333
    127 HB2         4.3007    4.9703   -0.3990 H       1  PHE1        0.0333
    128 HD1         7.0771    6.7081    1.0176 H       1  PHE1        0.0620
    129 HE1         8.1783    8.1928   -0.6704 H       1  PHE1        0.0618
    130 HZ          7.0136    8.9302   -2.5790 H       1  PHE1        0.0618
    131 HE2         4.5793    8.6739   -2.9359 H       1  PHE1        0.0618
    132 HD2         3.4571    7.1758   -1.2655 H       1  PHE1        0.0620
    133 HB          1.2878   -5.6749   -1.1257 H       6  THR6        0.0614
    134 HG21       -0.4416   -7.1666   -0.4868 H       6  THR6        0.0255
    135 HG22       -1.6499   -5.9323   -0.4819 H       6  THR6        0.0255
    136 HG23       -0.8449   -6.5070   -2.0688 H       6  THR6        0.0255
    137 HG1         0.5706   -4.2525   -2.5527 H       6  THR6        0.2099
@<TRIPOS>BOND
     1     1     2    1
     2     2     3   am
     3     3     4    2
     4     3     5    1
     5     5     6    1
     6     6     7    1
     7     7     8    1
     8     8     9    1
     9     9    10    1
    10     5    11    1
    11    11    12   am
    12    12    13    2
    13    12    14    1
    14    14    15    1
    15    15    16    1
    16    16    17   ar
    17    17    18   ar
    18    18    19   ar
    19    19    20   ar
    20    20    21   ar
    21    21    22   ar
    22    22    23   ar
    23    23    24   ar
    24    14    25    1
    25    25    26   am
    26    26    27    2
    27    26    28    1
    28    28    29    1
    29    29    30    1
    30    30    31   ar
    31    31    32   ar
    32    32    33   ar
    33    33    34   ar
    34    34    35   ar
    35    28    36    1
    36    36    37   am
    37    37    38    2
    38    37    39    1
    39    39    40    1
    40    40    41    1
    41    41    42    1
    42    42    43    1
    43    43    44    1
    44    44    45    1
    45    45    46   am
    46    46    47    2
    47    44    48    1
    48    48    49    2
    49    48    50   am
    50    50    51    1
    51    51    52    1
    52    52    53    1
    53    51    54    1
    54    54    55    1
    55    54    56    1
    56    39    57    1
    57    57    58   am
    58    58    59    2
    59    58    60    1
    60    60    61    1
    61    60    62    1
    62    62    63    1
    63    63    64   ar
    64    64    65   ar
    65    65    66   ar
    66    66    67   ar
    67    67    68   ar
    68     1    69    1
    69    69    70    1
    70    69    71    1
    71    46     1    1
    72    68    63   ar
    73    20    16   ar
    74    35    30   ar
    75    24    19   ar
    76     1    72    1
    77     2    73    1
    78     5    74    1
    79     6    75    1
    80     6    76    1
    81     7    77    1
    82     7    78    1
    83     8    79    1
    84     8    80    1
    85     9    81    1
    86     9    82    1
    87    10    83    1
    88    10    84    1
    89    11    85    1
    90    14    86    1
    91    15    87    1
    92    15    88    1
    93    17    89    1
    94    18    90    1
    95    21    91    1
    96    22    92    1
    97    23    93    1
    98    24    94    1
    99    25    95    1
   100    28    96    1
   101    29    97    1
   102    29    98    1
   103    31    99    1
   104    32   100    1
   105    33   101    1
   106    34   102    1
   107    35   103    1
   108    36   104    1
   109    39   105    1
   110    40   106    1
   111    40   107    1
   112    43   108    1
   113    43   109    1
   114    44   110    1
   115    45   111    1
   116    50   112    1
   117    51   113    1
   118    52   114    1
   119    52   115    1
   120    53   116    1
   121    54   117    1
   122    55   118    1
   123    55   119    1
   124    55   120    1
   125    56   121    1
   126    57   122    1
   127    60   123    1
   128    61   124    1
   129    61   125    1
   130    62   126    1
   131    62   127    1
   132    64   128    1
   133    65   129    1
   134    66   130    1
   135    67   131    1
   136    68   132    1
   137    69   133    1
   138    70   134    1
   139    70   135    1
   140    70   136    1
   141    71   137    1
