@<TRIPOS>MOLECULE
*****
 50 51 0 0 0
SMALL
GASTEIGER

@<TRIPOS>ATOM
      1 C          -1.2873   -2.3938    2.3634 C.3     1  UNL1       -0.0585
      2 C          -2.0562   -1.1173    2.2442 C.3     1  UNL1        0.0042
      3 C          -1.6353   -0.1675    1.2178 C.2     1  UNL1        0.1478
      4 O          -2.4059    0.8085    1.3346 O.2     1  UNL1       -0.2961
      5 C          -0.5807   -0.0500    0.1148 C.3     1  UNL1        0.0800
      6 C           0.7791   -0.1728    0.6626 C.3     1  UNL1       -0.0171
      7 C           1.9481   -0.0870   -0.2560 C.3     1  UNL1        0.0085
      8 C           2.1233    1.1927   -1.0308 C.3     1  UNL1       -0.0494
      9 N           3.1379   -0.1884    0.5758 N.3     1  UNL1       -0.3056
     10 C           3.2347   -1.3917    1.3174 C.3     1  UNL1       -0.0128
     11 C           3.5809    0.9908    1.1919 C.3     1  UNL1       -0.0128
     12 C          -0.7432    1.3425   -0.3807 C.ar    1  UNL1       -0.0297
     13 C          -0.7405    2.2776    0.6702 C.ar    1  UNL1       -0.0573
     14 C          -0.8989    3.6408    0.4314 C.ar    1  UNL1       -0.0615
     15 C          -1.0645    4.1307   -0.8457 C.ar    1  UNL1       -0.0617
     16 C          -1.0662    3.2167   -1.8723 C.ar    1  UNL1       -0.0615
     17 C          -0.9104    1.8714   -1.6412 C.ar    1  UNL1       -0.0573
     18 C          -1.0025   -1.0669   -0.8692 C.ar    1  UNL1       -0.0297
     19 C          -2.2090   -0.6637   -1.4490 C.ar    1  UNL1       -0.0573
     20 C          -2.8543   -1.4480   -2.4131 C.ar    1  UNL1       -0.0615
     21 C          -2.2937   -2.6453   -2.8040 C.ar    1  UNL1       -0.0617
     22 C          -1.1196   -3.0488   -2.2461 C.ar    1  UNL1       -0.0615
     23 C          -0.5023   -2.2646   -1.3012 C.ar    1  UNL1       -0.0573
     24 H          -0.3258   -2.3406    2.8701 H       1  UNL1        0.0234
     25 H          -1.3049   -2.9198    1.3908 H       1  UNL1        0.0234
     26 H          -1.9065   -3.0794    3.0210 H       1  UNL1        0.0234
     27 H          -1.9826   -0.6359    3.2551 H       1  UNL1        0.0339
     28 H          -3.1294   -1.3861    2.1152 H       1  UNL1        0.0339
     29 H           0.9069    0.7199    1.3650 H       1  UNL1        0.0296
     30 H           0.9381   -1.1075    1.2604 H       1  UNL1        0.0296
     31 H           1.9684   -0.9064   -1.0258 H       1  UNL1        0.0460
     32 H           1.7752    1.0865   -2.0896 H       1  UNL1        0.0245
     33 H           1.7640    2.0982   -0.5664 H       1  UNL1        0.0245
     34 H           3.2419    1.3895   -1.1958 H       1  UNL1        0.0245
     35 H           4.3089   -1.6266    1.4935 H       1  UNL1        0.0391
     36 H           2.6378   -2.2258    0.9384 H       1  UNL1        0.0391
     37 H           2.8148   -1.2043    2.3507 H       1  UNL1        0.0391
     38 H           4.0334    0.7115    2.1865 H       1  UNL1        0.0391
     39 H           4.3789    1.5441    0.6583 H       1  UNL1        0.0391
     40 H           2.7213    1.6450    1.4411 H       1  UNL1        0.0391
     41 H          -0.6088    2.0905    1.7346 H       1  UNL1        0.0621
     42 H          -0.9050    4.4004    1.2018 H       1  UNL1        0.0618
     43 H          -1.1917    5.1632   -1.1057 H       1  UNL1        0.0618
     44 H          -1.1864    3.4757   -2.9074 H       1  UNL1        0.0618
     45 H          -0.8946    1.1156   -2.4116 H       1  UNL1        0.0621
     46 H          -2.7886    0.2320   -1.2645 H       1  UNL1        0.0621
     47 H          -3.7780   -1.2048   -2.9001 H       1  UNL1        0.0618
     48 H          -2.7530   -3.2906   -3.5474 H       1  UNL1        0.0618
     49 H          -0.5778   -3.9710   -2.4704 H       1  UNL1        0.0618
     50 H           0.4095   -2.5394   -0.8128 H       1  UNL1        0.0621
@<TRIPOS>BOND
     1     1     2    1
     2     2     3    1
     3     3     4    2
     4     3     5    1
     5     5     6    1
     6     6     7    1
     7     7     8    1
     8     7     9    1
     9     9    10    1
    10     9    11    1
    11     5    12    1
    12    12    13   ar
    13    13    14   ar
    14    14    15   ar
    15    15    16   ar
    16    16    17   ar
    17     5    18    1
    18    18    19   ar
    19    19    20   ar
    20    20    21   ar
    21    21    22   ar
    22    22    23   ar
    23    17    12   ar
    24    23    18   ar
    25     1    24    1
    26     1    25    1
    27     1    26    1
    28     2    27    1
    29     2    28    1
    30     6    29    1
    31     6    30    1
    32     7    31    1
    33     8    32    1
    34     8    33    1
    35     8    34    1
    36    10    35    1
    37    10    36    1
    38    10    37    1
    39    11    38    1
    40    11    39    1
    41    11    40    1
    42    13    41    1
    43    14    42    1
    44    15    43    1
    45    16    44    1
    46    17    45    1
    47    19    46    1
    48    20    47    1
    49    21    48    1
    50    22    49    1
    51    23    50    1
