@<TRIPOS>MOLECULE
*****
 80 86 0 0 0
SMALL
GASTEIGER

@<TRIPOS>ATOM
      1 C          -8.4403   -4.6881   -1.9109 C.3     1  UNL1       -0.0397
      2 C          -7.8857   -3.4027   -1.4069 C.ar    1  UNL1       -0.0503
      3 C          -8.1058   -2.1893   -2.0219 C.ar    1  UNL1       -0.0568
      4 C          -7.5620   -1.0164   -1.5094 C.ar    1  UNL1       -0.0359
      5 C          -6.7869   -1.0040   -0.3787 C.ar    1  UNL1        0.0674
      6 N          -6.1940    0.1589    0.1960 N.ar    1  UNL1       -0.2181
      7 N          -6.7876    1.2138    0.7146 N.ar    1  UNL1       -0.1691
      8 C          -5.8972    2.0930    1.1696 C.ar    1  UNL1        0.0706
      9 C          -6.1238    3.4081    1.8423 C.3     1  UNL1        0.0063
     10 C          -4.7974    4.1070    2.0265 C.3     1  UNL1       -0.0546
     11 C          -7.0228    4.2663    0.9860 C.3     1  UNL1       -0.0546
     12 C          -6.8140    3.1955    3.1812 C.3     1  UNL1       -0.0546
     13 C          -4.6406    1.5288    0.9073 C.ar    1  UNL1        0.0021
     14 C          -4.8339    0.3178    0.2977 C.ar    1  UNL1        0.1299
     15 N          -3.8593   -0.6150   -0.1289 N.am    1  UNL1       -0.2538
     16 C          -2.4772   -0.4799    0.1469 C.2     1  UNL1        0.3092
     17 O          -2.0480    0.4931    0.8175 O.2     1  UNL1       -0.2521
     18 N          -1.5060   -1.4085   -0.3002 N.am    1  UNL1       -0.2686
     19 C          -0.1151   -1.2954   -0.0039 C.ar    1  UNL1        0.0427
     20 C           0.4111   -1.9361    1.1246 C.ar    1  UNL1       -0.0363
     21 C           1.7371   -1.8200    1.3987 C.ar    1  UNL1       -0.0169
     22 C           2.6096   -1.0810    0.5958 C.ar    1  UNL1        0.1381
     23 O           3.9351   -1.0164    0.9423 O.3     1  UNL1       -0.4373
     24 C           4.9024   -1.5567    0.1329 C.ar    1  UNL1        0.2252
     25 C           6.2174   -1.4534    0.5579 C.ar    1  UNL1        0.0405
     26 C           7.2753   -1.9708   -0.1870 C.ar    1  UNL1        0.1297
     27 N           8.5945   -1.8580    0.3153 N.pl3   1  UNL1       -0.2992
     28 C           9.3811   -0.6925    0.1909 C.ar    1  UNL1        0.0331
     29 C          10.6728   -0.6373    0.6475 C.ar    1  UNL1       -0.0385
     30 C          11.4565    0.4985    0.5468 C.ar    1  UNL1       -0.0345
     31 C          10.8981    1.6222   -0.0432 C.ar    1  UNL1        0.0658
     32 N          11.4060    2.8445   -0.2743 N.ar    1  UNL1       -0.2770
     33 N          10.4825    3.5725   -0.8638 N.ar    1  UNL1       -0.1812
     34 C           9.3446    2.8464   -1.0337 C.ar    1  UNL1        0.0569
     35 C           9.6054    1.6062   -0.5135 C.ar    1  UNL1        0.0212
     36 C           8.8631    0.4447   -0.3894 C.ar    1  UNL1       -0.0298
     37 N           6.9651   -2.5756   -1.3418 N.ar    1  UNL1       -0.2204
     38 C           5.6873   -2.6901   -1.7806 C.ar    1  UNL1        0.1219
     39 N           4.6744   -2.1739   -1.0274 N.ar    1  UNL1       -0.2010
     40 C           2.1229   -0.4389   -0.5181 C.ar    1  UNL1        0.0262
     41 C           2.9359    0.3199   -1.3396 C.ar    1  UNL1       -0.0505
     42 C           2.4079    0.9590   -2.4395 C.ar    1  UNL1       -0.0611
     43 C           1.0643    0.8413   -2.7205 C.ar    1  UNL1       -0.0611
     44 C           0.2488    0.0869   -1.9036 C.ar    1  UNL1       -0.0521
     45 C           0.7522   -0.5712   -0.7843 C.ar    1  UNL1        0.0069
     46 C          -6.5618   -2.2329    0.2481 C.ar    1  UNL1       -0.0359
     47 C          -7.1003   -3.3991   -0.2584 C.ar    1  UNL1       -0.0568
     48 H          -9.1006   -5.1416   -1.1142 H       1  UNL1        0.0278
     49 H          -7.6512   -5.3930   -2.2169 H       1  UNL1        0.0278
     50 H          -9.0994   -4.4252   -2.7582 H       1  UNL1        0.0278
     51 H          -8.7122   -2.1813   -2.9128 H       1  UNL1        0.0621
     52 H          -7.7322   -0.0443   -1.9934 H       1  UNL1        0.0639
     53 H          -4.0962    3.4509    2.5663 H       1  UNL1        0.0239
     54 H          -4.4065    4.3152    0.9955 H       1  UNL1        0.0239
     55 H          -4.9599    5.0475    2.5918 H       1  UNL1        0.0239
     56 H          -7.5672    5.0161    1.6135 H       1  UNL1        0.0239
     57 H          -7.8462    3.6378    0.5433 H       1  UNL1        0.0239
     58 H          -6.4781    4.7525    0.1789 H       1  UNL1        0.0239
     59 H          -6.0250    3.2240    3.9793 H       1  UNL1        0.0239
     60 H          -7.5142    4.0310    3.3698 H       1  UNL1        0.0239
     61 H          -7.2968    2.2212    3.2555 H       1  UNL1        0.0239
     62 H          -3.7171    2.0263    1.1694 H       1  UNL1        0.0671
     63 H          -4.1372   -1.4640   -0.6964 H       1  UNL1        0.1578
     64 H          -1.8184   -2.2136   -0.8726 H       1  UNL1        0.1564
     65 H          -0.2994   -2.4922    1.7080 H       1  UNL1        0.0637
     66 H           2.1256   -2.3227    2.2783 H       1  UNL1        0.0655
     67 H           6.3997   -0.9546    1.4950 H       1  UNL1        0.0706
     68 H           9.0410   -2.6857    0.8205 H       1  UNL1        0.1536
     69 H          11.1475   -1.4931    1.1148 H       1  UNL1        0.0637
     70 H          12.4746    0.5575    0.9007 H       1  UNL1        0.0639
     71 H          12.3893    3.1400   -0.0116 H       1  UNL1        0.1889
     72 H           8.4166    3.1849   -1.4887 H       1  UNL1        0.0854
     73 H           7.8528    0.4877   -0.7765 H       1  UNL1        0.0643
     74 H           5.5201   -3.1881   -2.7143 H       1  UNL1        0.1049
     75 H           3.9804    0.4142   -1.0888 H       1  UNL1        0.0625
     76 H           3.0593    1.5560   -3.0906 H       1  UNL1        0.0618
     77 H           0.6715    1.3487   -3.5854 H       1  UNL1        0.0618
     78 H          -0.8143   -0.0303   -2.0955 H       1  UNL1        0.0624
     79 H          -5.9608   -2.2361    1.1322 H       1  UNL1        0.0639
     80 H          -6.9374   -4.3664    0.2161 H       1  UNL1        0.0621
@<TRIPOS>BOND
     1     1     2    1
     2     2     3   ar
     3     3     4   ar
     4     4     5   ar
     5     5     6    1
     6     6     7   ar
     7     7     8   ar
     8     8     9    1
     9     9    10    1
    10     9    11    1
    11     9    12    1
    12     8    13   ar
    13    13    14   ar
    14    14    15    1
    15    15    16   am
    16    16    17    2
    17    16    18   am
    18    18    19    1
    19    19    20   ar
    20    20    21   ar
    21    21    22   ar
    22    22    23    1
    23    23    24    1
    24    24    25   ar
    25    25    26   ar
    26    26    27    1
    27    27    28    1
    28    28    29   ar
    29    29    30   ar
    30    30    31   ar
    31    31    32   ar
    32    32    33   ar
    33    33    34   ar
    34    34    35   ar
    35    35    36   ar
    36    26    37   ar
    37    37    38   ar
    38    38    39   ar
    39    22    40   ar
    40    40    41   ar
    41    41    42   ar
    42    42    43   ar
    43    43    44   ar
    44    44    45   ar
    45     5    46   ar
    46    46    47   ar
    47    47     2   ar
    48    14     6   ar
    49    45    19   ar
    50    39    24   ar
    51    45    40   ar
    52    36    28   ar
    53    35    31   ar
    54     1    48    1
    55     1    49    1
    56     1    50    1
    57     3    51    1
    58     4    52    1
    59    10    53    1
    60    10    54    1
    61    10    55    1
    62    11    56    1
    63    11    57    1
    64    11    58    1
    65    12    59    1
    66    12    60    1
    67    12    61    1
    68    13    62    1
    69    15    63    1
    70    18    64    1
    71    20    65    1
    72    21    66    1
    73    25    67    1
    74    27    68    1
    75    29    69    1
    76    30    70    1
    77    32    71    1
    78    34    72    1
    79    36    73    1
    80    38    74    1
    81    41    75    1
    82    42    76    1
    83    43    77    1
    84    44    78    1
    85    46    79    1
    86    47    80    1
