@<TRIPOS>MOLECULE
*****
 52 55 0 0 0
SMALL
GASTEIGER

@<TRIPOS>ATOM
      1 C           4.7362    1.6631    2.0359 C.3     1  UNL1       -0.0234
      2 C           4.3654    0.3667    1.2967 C.3     1  UNL1        0.1253
      3 O           3.1274    0.5113    0.7468 O.3     1  UNL1       -0.4810
      4 C           1.9676   -0.1622    0.8413 C.ar    1  UNL1        0.1613
      5 C           0.8824    0.3424    0.0902 C.ar    1  UNL1       -0.0072
      6 C          -0.3111   -0.3093    0.1570 C.ar    1  UNL1        0.0068
      7 C          -1.4702    0.1965   -0.6197 C.ar    1  UNL1        0.0211
      8 C          -1.4660    0.8439   -1.8352 C.ar    1  UNL1        0.0571
      9 N          -2.7531    1.1195   -2.1564 N.ar    1  UNL1       -0.1788
     10 N          -3.5706    0.6766   -1.2008 N.ar    1  UNL1       -0.2677
     11 C          -5.0160    0.7957   -1.2007 C.3     1  UNL1        0.0550
     12 C          -5.4394    1.1484    0.2084 C.3     1  UNL1       -0.0179
     13 C          -6.9415    1.1313    0.3622 C.3     1  UNL1       -0.0022
     14 N          -7.5857    0.1079   -0.3992 N.3     1  UNL1       -0.3158
     15 C          -6.6591   -0.9910   -0.5909 C.3     1  UNL1       -0.0022
     16 C          -5.6157   -0.5386   -1.5909 C.3     1  UNL1       -0.0179
     17 C          -2.7982    0.1093   -0.2539 C.ar    1  UNL1        0.0336
     18 C          -0.4498   -1.4354    0.9418 C.ar    1  UNL1        0.0377
     19 N           0.5894   -1.8833    1.6349 N.ar    1  UNL1       -0.2364
     20 C           1.8121   -1.2827    1.6160 C.ar    1  UNL1        0.1583
     21 N           2.8592   -1.8593    2.4060 N.pl3   1  UNL1       -0.3402
     22 C           5.3957    0.1949    0.2198 C.ar    1  UNL1        0.0318
     23 C           5.1936    0.8640   -0.9633 C.ar    1  UNL1        0.0492
     24 CL          3.8019    1.8994   -1.2275 Cl      1  UNL1       -0.0831
     25 C           6.1282    0.7169   -1.9741 C.ar    1  UNL1       -0.0402
     26 C           7.2114   -0.0784   -1.7710 C.ar    1  UNL1       -0.0236
     27 C           7.4294   -0.7503   -0.6038 C.ar    1  UNL1        0.1421
     28 F           8.4969   -1.5429   -0.3838 F       1  UNL1       -0.2039
     29 C           6.5082   -0.6112    0.4053 C.ar    1  UNL1        0.0841
     30 CL          6.7191   -1.4457    1.9382 Cl      1  UNL1       -0.0801
     31 H           3.8212    2.1891    2.3526 H       1  UNL1        0.0269
     32 H           5.3012    2.3165    1.3671 H       1  UNL1        0.0269
     33 H           5.3339    1.4486    2.9220 H       1  UNL1        0.0269
     34 H           4.5516   -0.4630    1.9916 H       1  UNL1        0.0782
     35 H           0.9960    1.2333   -0.5269 H       1  UNL1        0.0662
     36 H          -0.5710    1.0692   -2.3945 H       1  UNL1        0.0854
     37 H          -5.3501    1.5529   -1.9299 H       1  UNL1        0.0545
     38 H          -5.0210    2.1279    0.4654 H       1  UNL1        0.0298
     39 H          -5.0500    0.3460    0.8773 H       1  UNL1        0.0298
     40 H          -7.2347    1.0163    1.4247 H       1  UNL1        0.0425
     41 H          -7.3600    2.1238    0.0481 H       1  UNL1        0.0425
     42 H          -7.8988    0.4125   -1.3498 H       1  UNL1        0.1219
     43 H          -6.2181   -1.3151    0.3624 H       1  UNL1        0.0425
     44 H          -7.2458   -1.8212   -1.0268 H       1  UNL1        0.0425
     45 H          -4.8408   -1.3304   -1.6386 H       1  UNL1        0.0298
     46 H          -6.1520   -0.4533   -2.5708 H       1  UNL1        0.0298
     47 H          -3.1467   -0.3524    0.6656 H       1  UNL1        0.0832
     48 H          -1.4249   -1.9113    0.9543 H       1  UNL1        0.0836
     49 H           3.4612   -2.5695    1.9495 H       1  UNL1        0.1438
     50 H           2.9906   -1.5663    3.3973 H       1  UNL1        0.1438
     51 H           5.9701    1.2434   -2.9067 H       1  UNL1        0.0633
     52 H           7.9408   -0.1918   -2.5630 H       1  UNL1        0.0647
@<TRIPOS>BOND
     1     1     2    1
     2     2     3    1
     3     3     4    1
     4     4     5   ar
     5     5     6   ar
     6     6     7    1
     7     7     8   ar
     8     8     9   ar
     9     9    10   ar
    10    10    11    1
    11    11    12    1
    12    12    13    1
    13    13    14    1
    14    14    15    1
    15    15    16    1
    16    10    17   ar
    17     6    18   ar
    18    18    19   ar
    19    19    20   ar
    20    20    21    1
    21     2    22    1
    22    22    23   ar
    23    23    24    1
    24    23    25   ar
    25    25    26   ar
    26    26    27   ar
    27    27    28    1
    28    27    29   ar
    29    29    30    1
    30    20     4   ar
    31    29    22   ar
    32    17     7   ar
    33    16    11    1
    34     1    31    1
    35     1    32    1
    36     1    33    1
    37     2    34    1
    38     5    35    1
    39     8    36    1
    40    11    37    1
    41    12    38    1
    42    12    39    1
    43    13    40    1
    44    13    41    1
    45    14    42    1
    46    15    43    1
    47    15    44    1
    48    16    45    1
    49    16    46    1
    50    17    47    1
    51    18    48    1
    52    21    49    1
    53    21    50    1
    54    25    51    1
    55    26    52    1
