
     RDKit          3D

 52 55  0  0  0  0  0  0  0  0999 V2000
    4.7362    1.6631    2.0359 C   0  0  0  0  0  0  0  0  0  0  0  0
    4.3654    0.3667    1.2967 C   0  0  1  0  0  0  0  0  0  0  0  0
    3.1274    0.5113    0.7468 O   0  0  0  0  0  0  0  0  0  0  0  0
    1.9676   -0.1622    0.8413 C   0  0  0  0  0  0  0  0  0  0  0  0
    0.8824    0.3424    0.0902 C   0  0  0  0  0  0  0  0  0  0  0  0
   -0.3111   -0.3093    0.1570 C   0  0  0  0  0  0  0  0  0  0  0  0
   -1.4702    0.1965   -0.6197 C   0  0  0  0  0  0  0  0  0  0  0  0
   -1.4660    0.8439   -1.8352 C   0  0  0  0  0  0  0  0  0  0  0  0
   -2.7531    1.1195   -2.1564 N   0  0  0  0  0  0  0  0  0  0  0  0
   -3.5706    0.6766   -1.2008 N   0  0  0  0  0  0  0  0  0  0  0  0
   -5.0160    0.7957   -1.2007 C   0  0  0  0  0  0  0  0  0  0  0  0
   -5.4394    1.1484    0.2084 C   0  0  0  0  0  0  0  0  0  0  0  0
   -6.9415    1.1313    0.3622 C   0  0  0  0  0  0  0  0  0  0  0  0
   -7.5857    0.1079   -0.3992 N   0  0  0  0  0  0  0  0  0  0  0  0
   -6.6591   -0.9910   -0.5909 C   0  0  0  0  0  0  0  0  0  0  0  0
   -5.6157   -0.5386   -1.5909 C   0  0  0  0  0  0  0  0  0  0  0  0
   -2.7982    0.1093   -0.2539 C   0  0  0  0  0  0  0  0  0  0  0  0
   -0.4498   -1.4354    0.9418 C   0  0  0  0  0  0  0  0  0  0  0  0
    0.5894   -1.8833    1.6349 N   0  0  0  0  0  0  0  0  0  0  0  0
    1.8121   -1.2827    1.6160 C   0  0  0  0  0  0  0  0  0  0  0  0
    2.8592   -1.8593    2.4060 N   0  0  0  0  0  0  0  0  0  0  0  0
    5.3957    0.1949    0.2198 C   0  0  0  0  0  0  0  0  0  0  0  0
    5.1936    0.8640   -0.9633 C   0  0  0  0  0  0  0  0  0  0  0  0
    3.8019    1.8994   -1.2275 Cl  0  0  0  0  0  0  0  0  0  0  0  0
    6.1282    0.7169   -1.9741 C   0  0  0  0  0  0  0  0  0  0  0  0
    7.2114   -0.0784   -1.7710 C   0  0  0  0  0  0  0  0  0  0  0  0
    7.4294   -0.7503   -0.6038 C   0  0  0  0  0  0  0  0  0  0  0  0
    8.4969   -1.5429   -0.3838 F   0  0  0  0  0  0  0  0  0  0  0  0
    6.5082   -0.6112    0.4053 C   0  0  0  0  0  0  0  0  0  0  0  0
    6.7191   -1.4457    1.9382 Cl  0  0  0  0  0  0  0  0  0  0  0  0
    3.8212    2.1891    2.3526 H   0  0  0  0  0  0  0  0  0  0  0  0
    5.3012    2.3165    1.3671 H   0  0  0  0  0  0  0  0  0  0  0  0
    5.3339    1.4486    2.9220 H   0  0  0  0  0  0  0  0  0  0  0  0
    4.5516   -0.4630    1.9916 H   0  0  0  0  0  0  0  0  0  0  0  0
    0.9960    1.2333   -0.5269 H   0  0  0  0  0  0  0  0  0  0  0  0
   -0.5710    1.0692   -2.3945 H   0  0  0  0  0  0  0  0  0  0  0  0
   -5.3501    1.5529   -1.9299 H   0  0  0  0  0  0  0  0  0  0  0  0
   -5.0210    2.1279    0.4654 H   0  0  0  0  0  0  0  0  0  0  0  0
   -5.0500    0.3460    0.8773 H   0  0  0  0  0  0  0  0  0  0  0  0
   -7.2347    1.0163    1.4247 H   0  0  0  0  0  0  0  0  0  0  0  0
   -7.3600    2.1238    0.0481 H   0  0  0  0  0  0  0  0  0  0  0  0
   -7.8988    0.4125   -1.3498 H   0  0  0  0  0  0  0  0  0  0  0  0
   -6.2181   -1.3151    0.3624 H   0  0  0  0  0  0  0  0  0  0  0  0
   -7.2458   -1.8212   -1.0268 H   0  0  0  0  0  0  0  0  0  0  0  0
   -4.8408   -1.3304   -1.6386 H   0  0  0  0  0  0  0  0  0  0  0  0
   -6.1520   -0.4533   -2.5708 H   0  0  0  0  0  0  0  0  0  0  0  0
   -3.1467   -0.3524    0.6656 H   0  0  0  0  0  0  0  0  0  0  0  0
   -1.4249   -1.9113    0.9543 H   0  0  0  0  0  0  0  0  0  0  0  0
    3.4612   -2.5695    1.9495 H   0  0  0  0  0  0  0  0  0  0  0  0
    2.9906   -1.5663    3.3973 H   0  0  0  0  0  0  0  0  0  0  0  0
    5.9701    1.2434   -2.9067 H   0  0  0  0  0  0  0  0  0  0  0  0
    7.9408   -0.1918   -2.5630 H   0  0  0  0  0  0  0  0  0  0  0  0
  1  2  1  0
  2  3  1  0
  3  4  1  0
  4  5  2  0
  5  6  1  0
  6  7  1  0
  7  8  1  0
  8  9  2  0
  9 10  1  0
 10 11  1  0
 11 12  1  0
 12 13  1  0
 13 14  1  0
 14 15  1  0
 15 16  1  0
 10 17  1  0
  6 18  2  0
 18 19  1  0
 19 20  2  0
 20 21  1  0
  2 22  1  0
 22 23  2  0
 23 24  1  0
 23 25  1  0
 25 26  2  0
 26 27  1  0
 27 28  1  0
 27 29  2  0
 29 30  1  0
 20  4  1  0
 29 22  1  0
 17  7  2  0
 16 11  1  0
  1 31  1  0
  1 32  1  0
  1 33  1  0
  2 34  1  1
  5 35  1  0
  8 36  1  0
 11 37  1  0
 12 38  1  0
 12 39  1  0
 13 40  1  0
 13 41  1  0
 14 42  1  0
 15 43  1  0
 15 44  1  0
 16 45  1  0
 16 46  1  0
 17 47  1  0
 18 48  1  0
 21 49  1  0
 21 50  1  0
 25 51  1  0
 26 52  1  0
M  END
$$$$
