@<TRIPOS>MOLECULE
*****
 41 42 0 0 0
SMALL
GASTEIGER

@<TRIPOS>ATOM
      1 C           0.2245    1.0700    0.6771 C.3     1  UNL1        0.0498
      2 C          -0.9323    0.2620    1.2232 C.3     1  UNL1        0.0402
      3 N          -1.7263   -0.1866    0.0970 N.3     1  UNL1       -0.1721
      4 C          -2.9582   -0.7333    0.5876 C.3     1  UNL1        0.0440
      5 C          -4.0555   -0.4885   -0.4226 C.3     1  UNL1        0.0617
      6 O          -5.2870   -0.9593   -0.0755 O.3     1  UNL1       -0.3817
      7 C          -5.3972   -2.3060    0.1409 C.3     1  UNL1        0.0365
      8 S          -0.7808   -1.2534   -0.8356 S.O2    1  UNL1        0.0676
      9 O          -1.0249   -1.1180   -2.3188 O.2     1  UNL1       -0.1523
     10 O          -1.1689   -2.6704   -0.4946 O.2     1  UNL1       -0.1523
     11 C           0.8903   -0.9377   -0.4723 C.ar    1  UNL1        0.1491
     12 C           1.3322    0.1605    0.2427 C.ar    1  UNL1        0.0063
     13 C           2.6681    0.3280    0.4832 C.ar    1  UNL1       -0.0214
     14 C           3.5013   -0.6971   -0.0551 C.ar    1  UNL1        0.1443
     15 S           2.3765   -1.8340   -0.8643 S.2     1  UNL1       -0.0484
     16 S           5.2532   -0.8807    0.0024 S.O2    1  UNL1        0.0623
     17 N           5.6187   -2.3750    0.7735 N.3     1  UNL1       -0.2030
     18 O           5.8603   -0.7414   -1.3477 O.2     1  UNL1       -0.1527
     19 O           5.7394    0.2564    0.8369 O.2     1  UNL1       -0.1527
     20 N          -0.2036    1.8644   -0.4740 N.3     1  UNL1       -0.3084
     21 C           0.8692    2.6744   -1.0077 C.3     1  UNL1       -0.0064
     22 C           1.2866    3.7964   -0.0848 C.3     1  UNL1       -0.0526
     23 H           0.5287    1.7859    1.4615 H       1  UNL1        0.0524
     24 H          -1.5714    0.9628    1.8142 H       1  UNL1        0.0463
     25 H          -0.5506   -0.5757    1.8002 H       1  UNL1        0.0463
     26 H          -3.2315   -0.2296    1.5534 H       1  UNL1        0.0466
     27 H          -2.8541   -1.8225    0.8124 H       1  UNL1        0.0466
     28 H          -4.1541    0.6244   -0.5349 H       1  UNL1        0.0573
     29 H          -3.6787   -0.9126   -1.3924 H       1  UNL1        0.0573
     30 H          -5.1068   -2.8474   -0.7889 H       1  UNL1        0.0523
     31 H          -4.7046   -2.6317    0.9334 H       1  UNL1        0.0523
     32 H          -6.4077   -2.6177    0.4810 H       1  UNL1        0.0523
     33 H           3.1406    1.1315    1.0225 H       1  UNL1        0.0646
     34 H           6.0656   -3.0550    0.0882 H       1  UNL1        0.1443
     35 H           4.7839   -2.8000    1.2342 H       1  UNL1        0.1443
     36 H          -1.0722    2.3885   -0.2913 H       1  UNL1        0.1225
     37 H           0.6600    3.0424   -2.0106 H       1  UNL1        0.0421
     38 H           1.7654    1.9942   -1.0828 H       1  UNL1        0.0421
     39 H           0.8673    3.7103    0.9272 H       1  UNL1        0.0242
     40 H           1.0366    4.7882   -0.5418 H       1  UNL1        0.0242
     41 H           2.3981    3.8329    0.0335 H       1  UNL1        0.0242
@<TRIPOS>BOND
     1     1     2    1
     2     2     3    1
     3     3     4    1
     4     4     5    1
     5     5     6    1
     6     6     7    1
     7     3     8    1
     8     8     9    2
     9     8    10    2
    10     8    11    1
    11    11    12   ar
    12    12    13   ar
    13    13    14   ar
    14    14    15   ar
    15    14    16    1
    16    16    17    1
    17    16    18    2
    18    16    19    2
    19     1    20    1
    20    20    21    1
    21    21    22    1
    22    12     1    1
    23    15    11   ar
    24     1    23    1
    25     2    24    1
    26     2    25    1
    27     4    26    1
    28     4    27    1
    29     5    28    1
    30     5    29    1
    31     7    30    1
    32     7    31    1
    33     7    32    1
    34    13    33    1
    35    17    34    1
    36    17    35    1
    37    20    36    1
    38    21    37    1
    39    21    38    1
    40    22    39    1
    41    22    40    1
    42    22    41    1
