
     RDKit          3D

 41 42  0  0  0  0  0  0  0  0999 V2000
    0.2245    1.0700    0.6771 C   0  0  1  0  0  0  0  0  0  0  0  0
   -0.9323    0.2620    1.2232 C   0  0  0  0  0  0  0  0  0  0  0  0
   -1.7263   -0.1866    0.0970 N   0  0  0  0  0  0  0  0  0  0  0  0
   -2.9582   -0.7333    0.5876 C   0  0  0  0  0  0  0  0  0  0  0  0
   -4.0555   -0.4885   -0.4226 C   0  0  0  0  0  0  0  0  0  0  0  0
   -5.2870   -0.9593   -0.0755 O   0  0  0  0  0  0  0  0  0  0  0  0
   -5.3972   -2.3060    0.1409 C   0  0  0  0  0  0  0  0  0  0  0  0
   -0.7808   -1.2534   -0.8356 S   0  0  0  0  0  0  0  0  0  0  0  0
   -1.0249   -1.1180   -2.3188 O   0  0  0  0  0  0  0  0  0  0  0  0
   -1.1689   -2.6704   -0.4946 O   0  0  0  0  0  0  0  0  0  0  0  0
    0.8903   -0.9377   -0.4723 C   0  0  0  0  0  0  0  0  0  0  0  0
    1.3322    0.1605    0.2427 C   0  0  0  0  0  0  0  0  0  0  0  0
    2.6681    0.3280    0.4832 C   0  0  0  0  0  0  0  0  0  0  0  0
    3.5013   -0.6971   -0.0551 C   0  0  0  0  0  0  0  0  0  0  0  0
    2.3765   -1.8340   -0.8643 S   0  0  0  0  0  0  0  0  0  0  0  0
    5.2532   -0.8807    0.0024 S   0  0  0  0  0  0  0  0  0  0  0  0
    5.6187   -2.3750    0.7735 N   0  0  0  0  0  0  0  0  0  0  0  0
    5.8603   -0.7414   -1.3477 O   0  0  0  0  0  0  0  0  0  0  0  0
    5.7394    0.2564    0.8369 O   0  0  0  0  0  0  0  0  0  0  0  0
   -0.2036    1.8644   -0.4740 N   0  0  0  0  0  0  0  0  0  0  0  0
    0.8692    2.6744   -1.0077 C   0  0  0  0  0  0  0  0  0  0  0  0
    1.2866    3.7964   -0.0848 C   0  0  0  0  0  0  0  0  0  0  0  0
    0.5287    1.7859    1.4615 H   0  0  0  0  0  0  0  0  0  0  0  0
   -1.5714    0.9628    1.8142 H   0  0  0  0  0  0  0  0  0  0  0  0
   -0.5506   -0.5757    1.8002 H   0  0  0  0  0  0  0  0  0  0  0  0
   -3.2315   -0.2296    1.5534 H   0  0  0  0  0  0  0  0  0  0  0  0
   -2.8541   -1.8225    0.8124 H   0  0  0  0  0  0  0  0  0  0  0  0
   -4.1541    0.6244   -0.5349 H   0  0  0  0  0  0  0  0  0  0  0  0
   -3.6787   -0.9126   -1.3924 H   0  0  0  0  0  0  0  0  0  0  0  0
   -5.1068   -2.8474   -0.7889 H   0  0  0  0  0  0  0  0  0  0  0  0
   -4.7046   -2.6317    0.9334 H   0  0  0  0  0  0  0  0  0  0  0  0
   -6.4077   -2.6177    0.4810 H   0  0  0  0  0  0  0  0  0  0  0  0
    3.1406    1.1315    1.0225 H   0  0  0  0  0  0  0  0  0  0  0  0
    6.0656   -3.0550    0.0882 H   0  0  0  0  0  0  0  0  0  0  0  0
    4.7839   -2.8000    1.2342 H   0  0  0  0  0  0  0  0  0  0  0  0
   -1.0722    2.3885   -0.2913 H   0  0  0  0  0  0  0  0  0  0  0  0
    0.6600    3.0424   -2.0106 H   0  0  0  0  0  0  0  0  0  0  0  0
    1.7654    1.9942   -1.0828 H   0  0  0  0  0  0  0  0  0  0  0  0
    0.8673    3.7103    0.9272 H   0  0  0  0  0  0  0  0  0  0  0  0
    1.0366    4.7882   -0.5418 H   0  0  0  0  0  0  0  0  0  0  0  0
    2.3981    3.8329    0.0335 H   0  0  0  0  0  0  0  0  0  0  0  0
  1  2  1  0
  2  3  1  0
  3  4  1  0
  4  5  1  0
  5  6  1  0
  6  7  1  0
  3  8  1  0
  8  9  2  0
  8 10  2  0
  8 11  1  0
 11 12  2  0
 12 13  1  0
 13 14  2  0
 14 15  1  0
 14 16  1  0
 16 17  1  0
 16 18  2  0
 16 19  2  0
  1 20  1  0
 20 21  1  0
 21 22  1  0
 12  1  1  0
 15 11  1  0
  1 23  1  1
  2 24  1  0
  2 25  1  0
  4 26  1  0
  4 27  1  0
  5 28  1  0
  5 29  1  0
  7 30  1  0
  7 31  1  0
  7 32  1  0
 13 33  1  0
 17 34  1  0
 17 35  1  0
 20 36  1  0
 21 37  1  0
 21 38  1  0
 22 39  1  0
 22 40  1  0
 22 41  1  0
M  END
$$$$
