
     RDKit          3D

 44 47  0  0  0  0  0  0  0  0999 V2000
    3.0032   -1.3046    1.1439 O   0  0  0  0  0  0  0  0  0  0  0  0
    2.7480   -1.3708   -0.0652 C   0  0  0  0  0  0  0  0  0  0  0  0
    3.7517   -1.4471   -1.0097 O   0  0  0  0  0  0  0  0  0  0  0  0
    5.1219   -1.4603   -0.7656 C   0  0  0  0  0  0  0  0  0  0  0  0
    5.6656   -0.2875   -0.0778 C   0  0  0  0  0  0  0  0  0  0  0  0
    5.8664   -0.0515    1.2553 C   0  0  0  0  0  0  0  0  0  0  0  0
    6.3893    1.1295    1.7281 C   0  0  0  0  0  0  0  0  0  0  0  0
    6.7359    2.1403    0.8337 C   0  0  0  0  0  0  0  0  0  0  0  0
    6.5473    1.9342   -0.5041 C   0  0  0  0  0  0  0  0  0  0  0  0
    6.0201    0.7377   -0.9490 C   0  0  0  0  0  0  0  0  0  0  0  0
    1.3807   -1.3673   -0.4834 C   0  0  0  0  0  0  0  0  0  0  0  0
    0.2071   -1.3029    0.1975 C   0  0  0  0  0  0  0  0  0  0  0  0
   -0.9589   -1.3171   -0.4490 N   0  0  0  0  0  0  0  0  0  0  0  0
   -0.9343   -1.3970   -1.7913 C   0  0  0  0  0  0  0  0  0  0  0  0
    0.8743   -1.4600   -2.2256 S   0  0  0  0  0  0  0  0  0  0  0  0
   -2.0109   -1.4265   -2.6637 C   0  0  0  0  0  0  0  0  0  0  0  0
   -3.2606   -1.3666   -2.0890 C   0  0  0  0  0  0  0  0  0  0  0  0
   -4.2518   -1.3924   -2.8553 O   0  0  0  0  0  0  0  0  0  0  0  0
   -3.2704   -1.2856   -0.7283 N   0  0  0  0  0  0  0  0  0  0  0  0
   -4.5958   -1.2206   -0.0937 C   0  0  0  0  0  0  0  0  0  0  0  0
   -5.0796    0.1732    0.0573 C   0  0  0  0  0  0  0  0  0  0  0  0
   -5.8286    0.8277   -0.9205 C   0  0  0  0  0  0  0  0  0  0  0  0
   -6.2956    2.1041   -0.8251 C   0  0  0  0  0  0  0  0  0  0  0  0
   -6.0321    2.8418    0.3053 C   0  0  0  0  0  0  0  0  0  0  0  0
   -5.2926    2.2572    1.3215 C   0  0  0  0  0  0  0  0  0  0  0  0
   -4.8510    0.9659    1.1627 C   0  0  0  0  0  0  0  0  0  0  0  0
   -2.2051   -1.2619    0.0473 C   0  0  0  0  0  0  0  0  0  0  0  0
   -2.3744   -1.1856    1.2968 O   0  0  0  0  0  0  0  0  0  0  0  0
    5.3222   -2.3729   -0.1269 H   0  0  0  0  0  0  0  0  0  0  0  0
    5.6331   -1.6496   -1.7439 H   0  0  0  0  0  0  0  0  0  0  0  0
    5.5833   -0.8724    1.8984 H   0  0  0  0  0  0  0  0  0  0  0  0
    6.5194    1.2426    2.8049 H   0  0  0  0  0  0  0  0  0  0  0  0
    7.1417    3.0423    1.2783 H   0  0  0  0  0  0  0  0  0  0  0  0
    6.8340    2.7526   -1.1517 H   0  0  0  0  0  0  0  0  0  0  0  0
    5.9239    0.7101   -2.0425 H   0  0  0  0  0  0  0  0  0  0  0  0
    0.3186   -1.2416    1.2713 H   0  0  0  0  0  0  0  0  0  0  0  0
   -1.7955   -1.4936   -3.7212 H   0  0  0  0  0  0  0  0  0  0  0  0
   -4.5354   -1.7423    0.8877 H   0  0  0  0  0  0  0  0  0  0  0  0
   -5.2762   -1.7881   -0.7598 H   0  0  0  0  0  0  0  0  0  0  0  0
   -6.0870    0.3307   -1.8359 H   0  0  0  0  0  0  0  0  0  0  0  0
   -6.8714    2.5866   -1.5939 H   0  0  0  0  0  0  0  0  0  0  0  0
   -6.3882    3.8463    0.4033 H   0  0  0  0  0  0  0  0  0  0  0  0
   -5.0959    2.8484    2.1984 H   0  0  0  0  0  0  0  0  0  0  0  0
   -4.2964    0.5944    1.9892 H   0  0  0  0  0  0  0  0  0  0  0  0
  1  2  2  0
  2  3  1  0
  3  4  1  0
  4  5  1  0
  5  6  2  0
  6  7  1  0
  7  8  2  0
  8  9  1  0
  9 10  2  0
  2 11  1  0
 11 12  2  0
 12 13  1  0
 13 14  1  0
 14 15  1  0
 14 16  2  0
 16 17  1  0
 17 18  2  0
 17 19  1  0
 19 20  1  0
 20 21  1  0
 21 22  2  0
 22 23  1  0
 23 24  2  0
 24 25  1  0
 25 26  2  0
 19 27  1  0
 27 28  2  0
 10  5  1  0
 15 11  1  0
 26 21  1  0
 27 13  1  0
  4 29  1  0
  4 30  1  0
  6 31  1  0
  7 32  1  0
  8 33  1  0
  9 34  1  0
 10 35  1  0
 12 36  1  0
 16 37  1  0
 20 38  1  0
 20 39  1  0
 22 40  1  0
 23 41  1  0
 24 42  1  0
 25 43  1  0
 26 44  1  0
M  END
$$$$
