@<TRIPOS>MOLECULE
*****
 44 47 0 0 0
SMALL
GASTEIGER

@<TRIPOS>ATOM
      1 O           3.0032   -1.3046    1.1439 O.2     1  UNL1       -0.2443
      2 C           2.7480   -1.3708   -0.0652 C.2     1  UNL1        0.3477
      3 O           3.7517   -1.4471   -1.0097 O.3     1  UNL1       -0.4560
      4 C           5.1219   -1.4603   -0.7656 C.3     1  UNL1        0.1179
      5 C           5.6656   -0.2875   -0.0778 C.ar    1  UNL1       -0.0103
      6 C           5.8664   -0.0515    1.2553 C.ar    1  UNL1       -0.0554
      7 C           6.3893    1.1295    1.7281 C.ar    1  UNL1       -0.0614
      8 C           6.7359    2.1403    0.8337 C.ar    1  UNL1       -0.0617
      9 C           6.5473    1.9342   -0.5041 C.ar    1  UNL1       -0.0614
     10 C           6.0201    0.7377   -0.9490 C.ar    1  UNL1       -0.0554
     11 C           1.3807   -1.3673   -0.4834 C.ar    1  UNL1        0.1146
     12 C           0.2071   -1.3029    0.1975 C.ar    1  UNL1        0.0358
     13 N          -0.9589   -1.3171   -0.4490 N.ar    1  UNL1       -0.2618
     14 C          -0.9343   -1.3970   -1.7913 C.ar    1  UNL1        0.0945
     15 S           0.8743   -1.4600   -2.2256 S.2     1  UNL1       -0.0625
     16 C          -2.0109   -1.4265   -2.6637 C.ar    1  UNL1        0.0339
     17 C          -3.2606   -1.3666   -2.0890 C.ar    1  UNL1        0.2579
     18 O          -4.2518   -1.3924   -2.8553 O.2     1  UNL1       -0.2675
     19 N          -3.2704   -1.2856   -0.7283 N.ar    1  UNL1       -0.2561
     20 C          -4.5958   -1.2206   -0.0937 C.3     1  UNL1        0.0560
     21 C          -5.0796    0.1732    0.0573 C.ar    1  UNL1       -0.0275
     22 C          -5.8286    0.8277   -0.9205 C.ar    1  UNL1       -0.0569
     23 C          -6.2956    2.1041   -0.8251 C.ar    1  UNL1       -0.0614
     24 C          -6.0321    2.8418    0.3053 C.ar    1  UNL1       -0.0617
     25 C          -5.2926    2.2572    1.3215 C.ar    1  UNL1       -0.0614
     26 C          -4.8510    0.9659    1.1627 C.ar    1  UNL1       -0.0569
     27 C          -2.2051   -1.2619    0.0473 C.ar    1  UNL1        0.3371
     28 O          -2.3744   -1.1856    1.2968 O.2     1  UNL1       -0.2458
     29 H           5.3222   -2.3729   -0.1269 H       1  UNL1        0.0749
     30 H           5.6331   -1.6496   -1.7439 H       1  UNL1        0.0749
     31 H           5.5833   -0.8724    1.8984 H       1  UNL1        0.0621
     32 H           6.5194    1.2426    2.8049 H       1  UNL1        0.0618
     33 H           7.1417    3.0423    1.2783 H       1  UNL1        0.0618
     34 H           6.8340    2.7526   -1.1517 H       1  UNL1        0.0618
     35 H           5.9239    0.7101   -2.0425 H       1  UNL1        0.0621
     36 H           0.3186   -1.2416    1.2713 H       1  UNL1        0.0828
     37 H          -1.7955   -1.4936   -3.7212 H       1  UNL1        0.0698
     38 H          -4.5354   -1.7423    0.8877 H       1  UNL1        0.0544
     39 H          -5.2762   -1.7881   -0.7598 H       1  UNL1        0.0544
     40 H          -6.0870    0.3307   -1.8359 H       1  UNL1        0.0621
     41 H          -6.8714    2.5866   -1.5939 H       1  UNL1        0.0618
     42 H          -6.3882    3.8463    0.4033 H       1  UNL1        0.0618
     43 H          -5.0959    2.8484    2.1984 H       1  UNL1        0.0618
     44 H          -4.2964    0.5944    1.9892 H       1  UNL1        0.0621
@<TRIPOS>BOND
     1     1     2    2
     2     2     3    1
     3     3     4    1
     4     4     5    1
     5     5     6   ar
     6     6     7   ar
     7     7     8   ar
     8     8     9   ar
     9     9    10   ar
    10     2    11    1
    11    11    12   ar
    12    12    13   ar
    13    13    14   ar
    14    14    15   ar
    15    14    16   ar
    16    16    17   ar
    17    17    18    2
    18    17    19   ar
    19    19    20    1
    20    20    21    1
    21    21    22   ar
    22    22    23   ar
    23    23    24   ar
    24    24    25   ar
    25    25    26   ar
    26    19    27   ar
    27    27    28    2
    28    10     5   ar
    29    15    11   ar
    30    26    21   ar
    31    27    13   ar
    32     4    29    1
    33     4    30    1
    34     6    31    1
    35     7    32    1
    36     8    33    1
    37     9    34    1
    38    10    35    1
    39    12    36    1
    40    16    37    1
    41    20    38    1
    42    20    39    1
    43    22    40    1
    44    23    41    1
    45    24    42    1
    46    25    43    1
    47    26    44    1
