
     RDKit          3D

 43 45  0  0  0  0  0  0  0  0999 V2000
    0.8616   -0.2923    0.7754 C   0  0  2  0  0  0  0  0  0  0  0  0
   -0.0229   -0.5774   -0.4159 C   0  0  0  0  0  0  0  0  0  0  0  0
   -1.1564    0.4186   -0.0938 C   0  0  2  0  0  0  0  0  0  0  0  0
   -0.3362    1.4994    0.3166 O   0  0  0  0  0  0  0  0  0  0  0  0
    0.3268    0.9265    1.3446 N   0  0  0  0  0  0  0  0  0  0  0  0
   -1.8186   -0.0390    0.9628 O   0  0  0  0  0  0  0  0  0  0  0  0
   -3.1625   -0.0299    1.0249 C   0  0  2  0  0  0  0  0  0  0  0  0
   -3.6252   -1.4480    1.3857 C   0  0  0  0  0  0  0  0  0  0  0  0
   -5.0142   -1.5050    1.4653 O   0  0  0  0  0  0  0  0  0  0  0  0
   -3.9113    0.5242   -0.1315 C   0  0  1  0  0  0  0  0  0  0  0  0
   -3.8663    1.9184   -0.0070 O   0  0  0  0  0  0  0  0  0  0  0  0
   -3.2369    0.2107   -1.4649 C   0  0  2  0  0  0  0  0  0  0  0  0
   -3.2494   -1.1343   -1.7756 O   0  0  0  0  0  0  0  0  0  0  0  0
   -1.8534    0.7926   -1.3242 C   0  0  1  0  0  0  0  0  0  0  0  0
   -2.0251    2.1914   -1.3269 O   0  0  0  0  0  0  0  0  0  0  0  0
    2.2745   -0.0707    0.4439 C   0  0  0  0  0  0  0  0  0  0  0  0
    3.0900    0.5449    1.3700 C   0  0  0  0  0  0  0  0  0  0  0  0
    4.4282    0.7914    1.1392 C   0  0  0  0  0  0  0  0  0  0  0  0
    5.0180    0.4207   -0.0609 C   0  0  0  0  0  0  0  0  0  0  0  0
    6.4520    0.6601   -0.3653 C   0  0  0  0  0  0  0  0  0  0  0  0
    4.2372   -0.1960   -1.0094 C   0  0  0  0  0  0  0  0  0  0  0  0
    2.9179   -0.4122   -0.7204 C   0  0  0  0  0  0  0  0  0  0  0  0
    0.7836   -1.1233    1.5163 H   0  0  0  0  0  0  0  0  0  0  0  0
    0.4133   -0.3597   -1.3868 H   0  0  0  0  0  0  0  0  0  0  0  0
   -0.4014   -1.6199   -0.3434 H   0  0  0  0  0  0  0  0  0  0  0  0
    1.0153    1.5656    1.7459 H   0  0  0  0  0  0  0  0  0  0  0  0
   -3.4528    0.5858    1.9229 H   0  0  0  0  0  0  0  0  0  0  0  0
   -3.2877   -2.1994    0.6425 H   0  0  0  0  0  0  0  0  0  0  0  0
   -3.2300   -1.7584    2.3644 H   0  0  0  0  0  0  0  0  0  0  0  0
   -5.4109   -0.6385    1.7183 H   0  0  0  0  0  0  0  0  0  0  0  0
   -4.9592    0.2188   -0.1159 H   0  0  0  0  0  0  0  0  0  0  0  0
   -4.3165    2.2805   -0.8128 H   0  0  0  0  0  0  0  0  0  0  0  0
   -3.7854    0.7909   -2.2429 H   0  0  0  0  0  0  0  0  0  0  0  0
   -2.3616   -1.5558   -1.8176 H   0  0  0  0  0  0  0  0  0  0  0  0
   -1.2561    0.5371   -2.2364 H   0  0  0  0  0  0  0  0  0  0  0  0
   -1.3271    2.6671   -1.8239 H   0  0  0  0  0  0  0  0  0  0  0  0
    2.8076    0.8955    2.3519 H   0  0  0  0  0  0  0  0  0  0  0  0
    5.1175    1.2687    1.8229 H   0  0  0  0  0  0  0  0  0  0  0  0
    6.9136   -0.3490   -0.5366 H   0  0  0  0  0  0  0  0  0  0  0  0
    6.4729    1.2614   -1.3068 H   0  0  0  0  0  0  0  0  0  0  0  0
    6.9265    1.1864    0.4697 H   0  0  0  0  0  0  0  0  0  0  0  0
    4.6655   -0.5043   -1.9703 H   0  0  0  0  0  0  0  0  0  0  0  0
    2.3449   -0.9021   -1.4941 H   0  0  0  0  0  0  0  0  0  0  0  0
  1  2  1  0
  2  3  1  0
  3  4  1  1
  4  5  1  0
  3  6  1  0
  6  7  1  0
  7  8  1  0
  8  9  1  0
  7 10  1  0
 10 11  1  0
 10 12  1  0
 12 13  1  0
 12 14  1  0
 14 15  1  0
  1 16  1  0
 16 17  2  0
 17 18  1  0
 18 19  2  0
 19 20  1  0
 19 21  1  0
 21 22  2  0
  5  1  1  0
 22 16  1  0
 14  3  1  0
  1 23  1  1
  2 24  1  0
  2 25  1  0
  5 26  1  0
  7 27  1  1
  8 28  1  0
  8 29  1  0
  9 30  1  0
 10 31  1  6
 11 32  1  0
 12 33  1  6
 13 34  1  0
 14 35  1  6
 15 36  1  0
 17 37  1  0
 18 38  1  0
 20 39  1  0
 20 40  1  0
 20 41  1  0
 21 42  1  0
 22 43  1  0
M  END
$$$$
