@<TRIPOS>MOLECULE
*****
 43 45 0 0 0
SMALL
GASTEIGER

@<TRIPOS>ATOM
      1 C           0.8616   -0.2923    0.7754 C.3     1  UNL1        0.0629
      2 C          -0.0229   -0.5774   -0.4159 C.3     1  UNL1        0.0273
      3 C          -1.1564    0.4186   -0.0938 C.3     1  UNL1        0.2197
      4 O          -0.3362    1.4994    0.3166 O.3     1  UNL1       -0.2615
      5 N           0.3268    0.9265    1.3446 N.3     1  UNL1       -0.1904
      6 O          -1.8186   -0.0390    0.9628 O.3     1  UNL1       -0.3368
      7 C          -3.1625   -0.0299    1.0249 C.3     1  UNL1        0.1133
      8 C          -3.6252   -1.4480    1.3857 C.3     1  UNL1        0.0730
      9 O          -5.0142   -1.5050    1.4653 O.3     1  UNL1       -0.3924
     10 C          -3.9113    0.5242   -0.1315 C.3     1  UNL1        0.1119
     11 O          -3.8663    1.9184   -0.0070 O.3     1  UNL1       -0.3865
     12 C          -3.2369    0.2107   -1.4649 C.3     1  UNL1        0.1144
     13 O          -3.2494   -1.1343   -1.7756 O.3     1  UNL1       -0.3864
     14 C          -1.8534    0.7926   -1.3242 C.3     1  UNL1        0.1387
     15 O          -2.0251    2.1914   -1.3269 O.3     1  UNL1       -0.3837
     16 C           2.2745   -0.0707    0.4439 C.ar    1  UNL1       -0.0281
     17 C           3.0900    0.5449    1.3700 C.ar    1  UNL1       -0.0568
     18 C           4.4282    0.7914    1.1392 C.ar    1  UNL1       -0.0585
     19 C           5.0180    0.4207   -0.0609 C.ar    1  UNL1       -0.0504
     20 C           6.4520    0.6601   -0.3653 C.3     1  UNL1       -0.0397
     21 C           4.2372   -0.1960   -1.0094 C.ar    1  UNL1       -0.0585
     22 C           2.9179   -0.4122   -0.7204 C.ar    1  UNL1       -0.0568
     23 H           0.7836   -1.1233    1.5163 H       1  UNL1        0.0534
     24 H           0.4133   -0.3597   -1.3868 H       1  UNL1        0.0338
     25 H          -0.4014   -1.6199   -0.3434 H       1  UNL1        0.0338
     26 H           1.0153    1.5656    1.7459 H       1  UNL1        0.1546
     27 H          -3.4528    0.5858    1.9229 H       1  UNL1        0.0647
     28 H          -3.2877   -2.1994    0.6425 H       1  UNL1        0.0584
     29 H          -3.2300   -1.7584    2.3644 H       1  UNL1        0.0584
     30 H          -5.4109   -0.6385    1.7183 H       1  UNL1        0.2095
     31 H          -4.9592    0.2188   -0.1159 H       1  UNL1        0.0647
     32 H          -4.3165    2.2805   -0.8128 H       1  UNL1        0.2100
     33 H          -3.7854    0.7909   -2.2429 H       1  UNL1        0.0648
     34 H          -2.3616   -1.5558   -1.8176 H       1  UNL1        0.2100
     35 H          -1.2561    0.5371   -2.2364 H       1  UNL1        0.0675
     36 H          -1.3271    2.6671   -1.8239 H       1  UNL1        0.2101
     37 H           2.8076    0.8955    2.3519 H       1  UNL1        0.0621
     38 H           5.1175    1.2687    1.8229 H       1  UNL1        0.0620
     39 H           6.9136   -0.3490   -0.5366 H       1  UNL1        0.0278
     40 H           6.4729    1.2614   -1.3068 H       1  UNL1        0.0278
     41 H           6.9265    1.1864    0.4697 H       1  UNL1        0.0278
     42 H           4.6655   -0.5043   -1.9703 H       1  UNL1        0.0620
     43 H           2.3449   -0.9021   -1.4941 H       1  UNL1        0.0621
@<TRIPOS>BOND
     1     1     2    1
     2     2     3    1
     3     3     4    1
     4     4     5    1
     5     3     6    1
     6     6     7    1
     7     7     8    1
     8     8     9    1
     9     7    10    1
    10    10    11    1
    11    10    12    1
    12    12    13    1
    13    12    14    1
    14    14    15    1
    15     1    16    1
    16    16    17   ar
    17    17    18   ar
    18    18    19   ar
    19    19    20    1
    20    19    21   ar
    21    21    22   ar
    22     5     1    1
    23    22    16   ar
    24    14     3    1
    25     1    23    1
    26     2    24    1
    27     2    25    1
    28     5    26    1
    29     7    27    1
    30     8    28    1
    31     8    29    1
    32     9    30    1
    33    10    31    1
    34    11    32    1
    35    12    33    1
    36    13    34    1
    37    14    35    1
    38    15    36    1
    39    17    37    1
    40    18    38    1
    41    20    39    1
    42    20    40    1
    43    20    41    1
    44    21    42    1
    45    22    43    1
