@<TRIPOS>MOLECULE
*****
 20 20 0 0 0
SMALL
GASTEIGER

@<TRIPOS>ATOM
      1 O           4.2144   -0.0975   -0.9483 O.3     1  UNL1       -0.2930
      2 P           2.9989   -0.5845    0.1430 P.3     1  UNL1        0.5280
      3 O           2.3111   -2.0420   -0.3401 O.3     1  UNL1       -0.2930
      4 O           3.7032   -0.8387    1.4740 O.2     1  UNL1       -0.2156
      5 O           1.8978    0.6771    0.3241 O.3     1  UNL1       -0.4040
      6 C           0.5366    0.5070    0.1340 C.ar    1  UNL1        0.1325
      7 C          -0.0147   -0.1180   -0.9861 C.ar    1  UNL1       -0.0130
      8 C          -1.3987   -0.2583   -1.1181 C.ar    1  UNL1        0.0190
      9 C          -2.1931    0.2402   -0.1077 C.ar    1  UNL1        0.2734
     10 C          -1.7159    0.8671    1.0227 C.ar    1  UNL1        0.0190
     11 C          -0.3240    0.9815    1.1054 C.ar    1  UNL1       -0.0130
     12 N          -3.6088    0.1248   -0.1901 N.pl3   1  UNL1        0.0796
     13 O          -4.3973    0.6229    0.8191 O.co2   1  UNL1       -0.5760
     14 O          -4.3223   -0.3733   -1.0567 O.2     1  UNL1        0.0414
     15 H           4.3358    0.8913   -0.9499 H       1  UNL1        0.2231
     16 H           1.3541   -2.0904   -0.0275 H       1  UNL1        0.2231
     17 H           0.6539   -0.4916   -1.7501 H       1  UNL1        0.0656
     18 H          -1.7988   -0.7457   -1.9943 H       1  UNL1        0.0686
     19 H          -2.3410    1.2557    1.8108 H       1  UNL1        0.0686
     20 H           0.1087    1.4724    1.9851 H       1  UNL1        0.0656
@<TRIPOS>UNITY_ATOM_ATTR
12 1
charge 1
13 1
charge -1
@<TRIPOS>BOND
     1     1     2    1
     2     2     3    1
     3     2     4    2
     4     2     5    1
     5     5     6    1
     6     6     7   ar
     7     7     8   ar
     8     8     9   ar
     9     9    10   ar
    10    10    11   ar
    11     9    12    1
    12    12    13    1
    13    12    14    2
    14    11     6   ar
    15     1    15    1
    16     3    16    1
    17     7    17    1
    18     8    18    1
    19    10    19    1
    20    11    20    1
