
     RDKit          3D

 61 65  0  0  0  0  0  0  0  0999 V2000
    7.3054   -2.5942    0.0962 O   0  0  0  0  0  0  0  0  0  0  0  0
    6.8449   -1.4327    0.3472 C   0  0  0  0  0  0  0  0  0  0  0  0
    7.7318   -0.4294    0.6310 O   0  0  0  0  0  0  0  0  0  0  0  0
    5.4200   -1.1665    0.3357 C   0  0  0  0  0  0  0  0  0  0  0  0
    4.9759    0.0954    0.6112 C   0  0  0  0  0  0  0  0  0  0  0  0
    3.6528    0.3871    0.6113 C   0  0  0  0  0  0  0  0  0  0  0  0
    2.6823   -0.5853    0.3306 C   0  0  0  0  0  0  0  0  0  0  0  0
    1.3055   -0.2347    0.3277 N   0  0  0  0  0  0  0  0  0  0  0  0
    0.6346    0.1345   -0.8676 C   0  0  0  0  0  0  0  0  0  0  0  0
    1.3822    0.0929   -1.9336 O   0  0  0  0  0  0  0  0  0  0  0  0
   -0.7413    0.5309   -0.9359 C   0  0  2  0  0  0  0  0  0  0  0  0
   -1.1664    1.7338   -0.1462 C   0  0  0  0  0  0  0  0  0  0  0  0
   -0.3752    2.9739   -0.6252 C   0  0  0  0  0  0  0  0  0  0  0  0
   -1.2210    4.1660   -0.2282 C   0  0  0  0  0  0  0  0  0  0  0  0
   -1.1492    4.2205    1.3033 C   0  0  0  0  0  0  0  0  0  0  0  0
   -1.8690    2.9778    1.7830 C   0  0  0  0  0  0  0  0  0  0  0  0
   -1.0905    1.7231    1.3138 C   0  0  0  0  0  0  0  0  0  0  0  0
   -1.7748   -0.4647   -1.0857 N   0  0  0  0  0  0  0  0  0  0  0  0
   -2.0163   -1.5788   -0.4348 C   0  0  0  0  0  0  0  0  0  0  0  0
   -1.3135   -2.1771    0.6613 C   0  0  0  0  0  0  0  0  0  0  0  0
   -0.2916   -3.0746    0.4365 C   0  0  0  0  0  0  0  0  0  0  0  0
    0.3859   -3.6944    1.4934 C   0  0  0  0  0  0  0  0  0  0  0  0
    0.0434   -3.4181    2.7957 C   0  0  0  0  0  0  0  0  0  0  0  0
    0.8976   -4.1985    4.0966 Cl  0  0  0  0  0  0  0  0  0  0  0  0
   -0.9676   -2.5307    3.0529 C   0  0  0  0  0  0  0  0  0  0  0  0
   -1.6166   -1.9366    1.9947 C   0  0  0  0  0  0  0  0  0  0  0  0
   -3.1332   -2.1926   -0.9468 N   0  0  0  0  0  0  0  0  0  0  0  0
   -3.6162   -1.4642   -1.9390 C   0  0  0  0  0  0  0  0  0  0  0  0
   -4.6955   -1.6233   -2.7681 C   0  0  0  0  0  0  0  0  0  0  0  0
   -4.9869   -0.6767   -3.7571 C   0  0  0  0  0  0  0  0  0  0  0  0
   -6.0564   -0.8693   -4.5515 F   0  0  0  0  0  0  0  0  0  0  0  0
   -4.1351    0.4180   -3.8525 C   0  0  0  0  0  0  0  0  0  0  0  0
   -4.4024    1.3598   -4.8165 F   0  0  0  0  0  0  0  0  0  0  0  0
   -3.0462    0.5652   -3.0059 C   0  0  0  0  0  0  0  0  0  0  0  0
   -2.7771   -0.3794   -2.0382 C   0  0  0  0  0  0  0  0  0  0  0  0
    3.1459   -1.8462    0.0559 C   0  0  0  0  0  0  0  0  0  0  0  0
    4.5034   -2.1709    0.0500 C   0  0  0  0  0  0  0  0  0  0  0  0
    8.7014   -0.4491    0.3470 H   0  0  0  0  0  0  0  0  0  0  0  0
    5.7195    0.8781    0.8352 H   0  0  0  0  0  0  0  0  0  0  0  0
    3.3260    1.3806    0.8294 H   0  0  0  0  0  0  0  0  0  0  0  0
    0.7697   -0.2441    1.1966 H   0  0  0  0  0  0  0  0  0  0  0  0
   -0.7591    1.0535   -1.9917 H   0  0  0  0  0  0  0  0  0  0  0  0
   -2.2136    1.9494   -0.4462 H   0  0  0  0  0  0  0  0  0  0  0  0
    0.6217    2.9920   -0.1640 H   0  0  0  0  0  0  0  0  0  0  0  0
   -0.3606    2.9299   -1.7223 H   0  0  0  0  0  0  0  0  0  0  0  0
   -2.2811    3.9092   -0.4639 H   0  0  0  0  0  0  0  0  0  0  0  0
   -0.8923    5.1034   -0.6867 H   0  0  0  0  0  0  0  0  0  0  0  0
   -1.6333    5.1039    1.7138 H   0  0  0  0  0  0  0  0  0  0  0  0
   -0.0863    4.1098    1.6060 H   0  0  0  0  0  0  0  0  0  0  0  0
   -2.9130    2.9195    1.4016 H   0  0  0  0  0  0  0  0  0  0  0  0
   -1.8805    2.9865    2.8952 H   0  0  0  0  0  0  0  0  0  0  0  0
   -0.0637    1.9244    1.7303 H   0  0  0  0  0  0  0  0  0  0  0  0
   -1.6091    0.9183    1.8302 H   0  0  0  0  0  0  0  0  0  0  0  0
    0.0208   -3.3298   -0.5713 H   0  0  0  0  0  0  0  0  0  0  0  0
    1.1921   -4.4024    1.2969 H   0  0  0  0  0  0  0  0  0  0  0  0
   -1.2402   -2.3108    4.0917 H   0  0  0  0  0  0  0  0  0  0  0  0
   -2.4103   -1.2536    2.2467 H   0  0  0  0  0  0  0  0  0  0  0  0
   -5.3695   -2.4645   -2.7119 H   0  0  0  0  0  0  0  0  0  0  0  0
   -2.4396    1.4461   -3.1522 H   0  0  0  0  0  0  0  0  0  0  0  0
    2.4560   -2.6441   -0.1784 H   0  0  0  0  0  0  0  0  0  0  0  0
    4.8754   -3.1461   -0.1614 H   0  0  0  0  0  0  0  0  0  0  0  0
  1  2  2  0
  2  3  1  0
  2  4  1  0
  4  5  2  0
  5  6  1  0
  6  7  2  0
  7  8  1  0
  8  9  1  0
  9 10  2  0
  9 11  1  0
 11 12  1  0
 12 13  1  0
 13 14  1  0
 14 15  1  0
 15 16  1  0
 16 17  1  0
 11 18  1  0
 18 19  1  0
 19 20  1  0
 20 21  2  0
 21 22  1  0
 22 23  2  0
 23 24  1  0
 23 25  1  0
 25 26  2  0
 19 27  2  0
 27 28  1  0
 28 29  2  0
 29 30  1  0
 30 31  1  0
 30 32  2  0
 32 33  1  0
 32 34  1  0
 34 35  2  0
  7 36  1  0
 36 37  2  0
 37  4  1  0
 17 12  1  0
 35 18  1  0
 26 20  1  0
 35 28  1  0
  3 38  1  0
  5 39  1  0
  6 40  1  0
  8 41  1  0
 11 42  1  6
 12 43  1  0
 13 44  1  0
 13 45  1  0
 14 46  1  0
 14 47  1  0
 15 48  1  0
 15 49  1  0
 16 50  1  0
 16 51  1  0
 17 52  1  0
 17 53  1  0
 21 54  1  0
 22 55  1  0
 25 56  1  0
 26 57  1  0
 29 58  1  0
 34 59  1  0
 36 60  1  0
 37 61  1  0
M  END
$$$$
