@<TRIPOS>MOLECULE
*****
 61 65 0 0 0
SMALL
GASTEIGER

@<TRIPOS>ATOM
      1 O           7.3054   -2.5942    0.0962 O.2     1  UNL1       -0.2451
      2 C           6.8449   -1.4327    0.3472 C.2     1  UNL1        0.3368
      3 O           7.7318   -0.4294    0.6310 O.3     1  UNL1       -0.4771
      4 C           5.4200   -1.1665    0.3357 C.ar    1  UNL1        0.0589
      5 C           4.9759    0.0954    0.6112 C.ar    1  UNL1       -0.0460
      6 C           3.6528    0.3871    0.6113 C.ar    1  UNL1       -0.0397
      7 C           2.6823   -0.5853    0.3306 C.ar    1  UNL1        0.0335
      8 N           1.3055   -0.2347    0.3277 N.am    1  UNL1       -0.2838
      9 C           0.6346    0.1345   -0.8676 C.2     1  UNL1        0.2404
     10 O           1.3822    0.0929   -1.9336 O.2     1  UNL1       -0.2732
     11 C          -0.7413    0.5309   -0.9359 C.3     1  UNL1        0.1154
     12 C          -1.1664    1.7338   -0.1462 C.3     1  UNL1       -0.0116
     13 C          -0.3752    2.9739   -0.6252 C.3     1  UNL1       -0.0479
     14 C          -1.2210    4.1660   -0.2282 C.3     1  UNL1       -0.0527
     15 C          -1.1492    4.2205    1.3033 C.3     1  UNL1       -0.0530
     16 C          -1.8690    2.9778    1.7830 C.3     1  UNL1       -0.0527
     17 C          -1.0905    1.7231    1.3138 C.3     1  UNL1       -0.0479
     18 N          -1.7748   -0.4647   -1.0857 N.ar    1  UNL1       -0.3112
     19 C          -2.0163   -1.5788   -0.4348 C.ar    1  UNL1        0.1425
     20 C          -1.3135   -2.1771    0.6613 C.ar    1  UNL1        0.0176
     21 C          -0.2916   -3.0746    0.4365 C.ar    1  UNL1       -0.0497
     22 C           0.3859   -3.6944    1.4934 C.ar    1  UNL1       -0.0427
     23 C           0.0434   -3.4181    2.7957 C.ar    1  UNL1        0.0410
     24 CL          0.8976   -4.1985    4.0966 Cl      1  UNL1       -0.0835
     25 C          -0.9676   -2.5307    3.0529 C.ar    1  UNL1       -0.0427
     26 C          -1.6166   -1.9366    1.9947 C.ar    1  UNL1       -0.0497
     27 N          -3.1332   -2.1926   -0.9468 N.ar    1  UNL1       -0.2274
     28 C          -3.6162   -1.4642   -1.9390 C.ar    1  UNL1        0.0926
     29 C          -4.6955   -1.6233   -2.7681 C.ar    1  UNL1        0.0039
     30 C          -4.9869   -0.6767   -3.7571 C.ar    1  UNL1        0.1605
     31 F          -6.0564   -0.8693   -4.5515 F       1  UNL1       -0.2024
     32 C          -4.1351    0.4180   -3.8525 C.ar    1  UNL1        0.1605
     33 F          -4.4024    1.3598   -4.8165 F       1  UNL1       -0.2024
     34 C          -3.0462    0.5652   -3.0059 C.ar    1  UNL1        0.0021
     35 C          -2.7771   -0.3794   -2.0382 C.ar    1  UNL1        0.0727
     36 C           3.1459   -1.8462    0.0559 C.ar    1  UNL1       -0.0397
     37 C           4.5034   -2.1709    0.0500 C.ar    1  UNL1       -0.0460
     38 H           8.7014   -0.4491    0.3470 H       1  UNL1        0.2954
     39 H           5.7195    0.8781    0.8352 H       1  UNL1        0.0626
     40 H           3.3260    1.3806    0.8294 H       1  UNL1        0.0636
     41 H           0.7697   -0.2441    1.1966 H       1  UNL1        0.1549
     42 H          -0.7591    1.0535   -1.9917 H       1  UNL1        0.0627
     43 H          -2.2136    1.9494   -0.4462 H       1  UNL1        0.0325
     44 H           0.6217    2.9920   -0.1640 H       1  UNL1        0.0269
     45 H          -0.3606    2.9299   -1.7223 H       1  UNL1        0.0269
     46 H          -2.2811    3.9092   -0.4639 H       1  UNL1        0.0265
     47 H          -0.8923    5.1034   -0.6867 H       1  UNL1        0.0265
     48 H          -1.6333    5.1039    1.7138 H       1  UNL1        0.0265
     49 H          -0.0863    4.1098    1.6060 H       1  UNL1        0.0265
     50 H          -2.9130    2.9195    1.4016 H       1  UNL1        0.0265
     51 H          -1.8805    2.9865    2.8952 H       1  UNL1        0.0265
     52 H          -0.0637    1.9244    1.7303 H       1  UNL1        0.0269
     53 H          -1.6091    0.9183    1.8302 H       1  UNL1        0.0269
     54 H           0.0208   -3.3298   -0.5713 H       1  UNL1        0.0625
     55 H           1.1921   -4.4024    1.2969 H       1  UNL1        0.0632
     56 H          -1.2402   -2.3108    4.0917 H       1  UNL1        0.0632
     57 H          -2.4103   -1.2536    2.2467 H       1  UNL1        0.0625
     58 H          -5.3695   -2.4645   -2.7119 H       1  UNL1        0.0669
     59 H          -2.4396    1.4461   -3.1522 H       1  UNL1        0.0668
     60 H           2.4560   -2.6441   -0.1784 H       1  UNL1        0.0636
     61 H           4.8754   -3.1461   -0.1614 H       1  UNL1        0.0626
@<TRIPOS>BOND
     1     1     2    2
     2     2     3    1
     3     2     4    1
     4     4     5   ar
     5     5     6   ar
     6     6     7   ar
     7     7     8    1
     8     8     9   am
     9     9    10    2
    10     9    11    1
    11    11    12    1
    12    12    13    1
    13    13    14    1
    14    14    15    1
    15    15    16    1
    16    16    17    1
    17    11    18    1
    18    18    19   ar
    19    19    20    1
    20    20    21   ar
    21    21    22   ar
    22    22    23   ar
    23    23    24    1
    24    23    25   ar
    25    25    26   ar
    26    19    27   ar
    27    27    28   ar
    28    28    29   ar
    29    29    30   ar
    30    30    31    1
    31    30    32   ar
    32    32    33    1
    33    32    34   ar
    34    34    35   ar
    35     7    36   ar
    36    36    37   ar
    37    37     4   ar
    38    17    12    1
    39    35    18   ar
    40    26    20   ar
    41    35    28   ar
    42     3    38    1
    43     5    39    1
    44     6    40    1
    45     8    41    1
    46    11    42    1
    47    12    43    1
    48    13    44    1
    49    13    45    1
    50    14    46    1
    51    14    47    1
    52    15    48    1
    53    15    49    1
    54    16    50    1
    55    16    51    1
    56    17    52    1
    57    17    53    1
    58    21    54    1
    59    22    55    1
    60    25    56    1
    61    26    57    1
    62    29    58    1
    63    34    59    1
    64    36    60    1
    65    37    61    1
