
     RDKit          3D

 47 49  0  0  0  0  0  0  0  0999 V2000
   -3.9686   -5.2543   -0.5612 C   0  0  0  0  0  0  0  0  0  0  0  0
   -3.8245   -3.8482   -0.4263 O   0  0  0  0  0  0  0  0  0  0  0  0
   -2.5486   -3.3065   -0.2190 C   0  0  0  0  0  0  0  0  0  0  0  0
   -1.6961   -4.2223   -0.1837 O   0  0  0  0  0  0  0  0  0  0  0  0
   -2.2876   -1.8811   -0.0695 C   0  0  0  0  0  0  0  0  0  0  0  0
   -3.3246   -0.9782   -0.1296 C   0  0  0  0  0  0  0  0  0  0  0  0
   -2.9456    0.3521    0.0227 C   0  0  0  0  0  0  0  0  0  0  0  0
   -3.9983    1.2442   -0.0428 C   0  0  0  0  0  0  0  0  0  0  0  0
   -3.7684    2.5724    0.0892 C   0  0  0  0  0  0  0  0  0  0  0  0
   -2.5107    3.0496    0.2866 C   0  0  0  0  0  0  0  0  0  0  0  0
   -1.4914    2.1345    0.3452 C   0  0  0  0  0  0  0  0  0  0  0  0
   -1.6367    0.7736    0.2215 C   0  0  0  0  0  0  0  0  0  0  0  0
   -0.6317   -0.1537    0.2753 C   0  0  0  0  0  0  0  0  0  0  0  0
    0.6873    0.3078    0.4639 N   0  0  0  0  0  0  0  0  0  0  0  0
    1.8381   -0.4715    0.5425 C   0  0  0  0  0  0  0  0  0  0  0  0
    1.8367   -1.7178    0.4577 O   0  0  0  0  0  0  0  0  0  0  0  0
    3.2452   -0.2670    0.7161 C   0  0  0  0  0  0  0  0  0  0  0  0
    3.7726    0.1373    1.9252 C   0  0  0  0  0  0  0  0  0  0  0  0
    5.1080    0.3561    2.1874 C   0  0  0  0  0  0  0  0  0  0  0  0
    5.9875    0.1519    1.1478 C   0  0  0  0  0  0  0  0  0  0  0  0
    5.5709   -0.2514   -0.1004 C   0  0  0  0  0  0  0  0  0  0  0  0
    6.4344   -0.4716   -1.1893 O   0  0  0  0  0  0  0  0  0  0  0  0
    4.2190   -0.4442   -0.2660 C   0  0  0  0  0  0  0  0  0  0  0  0
    3.7484   -0.8779   -1.6207 C   0  0  0  0  0  0  0  0  0  0  0  0
   -0.9911   -1.4644    0.1272 C   0  0  0  0  0  0  0  0  0  0  0  0
   -2.2915    4.4985    0.4228 C   0  0  0  0  0  0  0  0  0  0  0  0
   -3.1348    5.3274   -0.3530 N   0  0  0  0  0  0  0  0  0  0  0  0
   -1.3628    4.9038    1.2249 N   0  0  0  0  0  0  0  0  0  0  0  0
   -4.8462   -5.4906   -1.1896 H   0  0  0  0  0  0  0  0  0  0  0  0
   -3.0592   -5.6031   -1.1099 H   0  0  0  0  0  0  0  0  0  0  0  0
   -4.1070   -5.7441    0.4108 H   0  0  0  0  0  0  0  0  0  0  0  0
   -4.3333   -1.2916   -0.2841 H   0  0  0  0  0  0  0  0  0  0  0  0
   -5.0221    0.9376   -0.1977 H   0  0  0  0  0  0  0  0  0  0  0  0
   -4.5828    3.2814    0.0379 H   0  0  0  0  0  0  0  0  0  0  0  0
   -0.5090    2.5370    0.5030 H   0  0  0  0  0  0  0  0  0  0  0  0
    0.9940    1.2829    0.5717 H   0  0  0  0  0  0  0  0  0  0  0  0
    3.1187    0.3109    2.7831 H   0  0  0  0  0  0  0  0  0  0  0  0
    5.4600    0.6704    3.1604 H   0  0  0  0  0  0  0  0  0  0  0  0
    7.0639    0.2950    1.2513 H   0  0  0  0  0  0  0  0  0  0  0  0
    6.5480   -1.4718   -1.4229 H   0  0  0  0  0  0  0  0  0  0  0  0
    3.2239    0.0125   -2.0733 H   0  0  0  0  0  0  0  0  0  0  0  0
    3.1070   -1.7488   -1.4887 H   0  0  0  0  0  0  0  0  0  0  0  0
    4.6146   -1.0737   -2.2994 H   0  0  0  0  0  0  0  0  0  0  0  0
   -0.2763   -2.2491    0.1590 H   0  0  0  0  0  0  0  0  0  0  0  0
   -2.5575    5.6395   -1.1674 H   0  0  0  0  0  0  0  0  0  0  0  0
   -4.0477    5.3430    0.1559 H   0  0  0  0  0  0  0  0  0  0  0  0
   -0.8240    4.1635    1.7279 H   0  0  0  0  0  0  0  0  0  0  0  0
  1  2  1  0
  2  3  1  0
  3  4  2  0
  3  5  1  0
  5  6  2  0
  6  7  1  0
  7  8  2  0
  8  9  1  0
  9 10  2  0
 10 11  1  0
 11 12  2  0
 12 13  1  0
 13 14  1  0
 14 15  1  0
 15 16  2  0
 15 17  1  0
 17 18  2  0
 18 19  1  0
 19 20  2  0
 20 21  1  0
 21 22  1  0
 21 23  2  0
 23 24  1  0
 13 25  2  0
 10 26  1  0
 26 27  1  0
 26 28  2  3
 25  5  1  0
 12  7  1  0
 23 17  1  0
  1 29  1  0
  1 30  1  0
  1 31  1  0
  6 32  1  0
  8 33  1  0
  9 34  1  0
 11 35  1  0
 14 36  1  0
 18 37  1  0
 19 38  1  0
 20 39  1  0
 22 40  1  0
 24 41  1  0
 24 42  1  0
 24 43  1  0
 25 44  1  0
 27 45  1  0
 27 46  1  0
 28 47  1  0
M  END
$$$$
