@<TRIPOS>MOLECULE
*****
 67 71 0 0 0
SMALL
GASTEIGER

@<TRIPOS>ATOM
      1 C           1.6567   -5.4442    1.6200 C.3     1  UNL1       -0.0025
      2 C           2.2322   -4.2418    1.0199 C.1     1  UNL1       -0.1027
      3 C           2.7188   -3.2494    0.5021 C.1     1  UNL1       -0.0673
      4 C           3.2990   -2.0729   -0.0864 C.3     1  UNL1        0.1320
      5 O           3.9803   -2.4024   -1.2903 O.3     1  UNL1       -0.3760
      6 C           4.4094   -1.4635    0.7813 C.3     1  UNL1       -0.0118
      7 C           4.1940    0.0401    0.5182 C.3     1  UNL1       -0.0455
      8 C           2.7338    0.0897    0.6258 C.3     1  UNL1       -0.0254
      9 C           2.0214    1.3157    0.1283 C.3     1  UNL1       -0.0150
     10 C           2.7228    2.4849    0.7572 C.3     1  UNL1       -0.0422
     11 C           1.9514    3.7292    0.2625 C.3     1  UNL1       -0.0268
     12 C           0.6287    3.5511    0.9408 C.2     1  UNL1       -0.0409
     13 C           0.1489    4.5948    1.5737 C.2     1  UNL1       -0.0158
     14 C          -1.1337    4.4585    2.2465 C.2     1  UNL1        0.1567
     15 O          -1.4317    5.1665    3.2362 O.2     1  UNL1       -0.2927
     16 C          -2.0736    3.4692    1.7356 C.3     1  UNL1        0.0139
     17 C          -1.4573    2.1702    1.2629 C.3     1  UNL1       -0.0204
     18 C          -0.0526    2.2345    0.8783 C.2     1  UNL1       -0.0436
     19 C           0.5909    1.1587    0.5056 C.2     1  UNL1       -0.0553
     20 C           0.0118   -0.1667    0.4679 C.3     1  UNL1        0.0066
     21 C          -1.2632   -0.3618   -0.2182 C.ar    1  UNL1       -0.0401
     22 C          -1.4814   -0.0762   -1.5290 C.ar    1  UNL1       -0.0563
     23 C          -2.6993   -0.2815   -2.1642 C.ar    1  UNL1       -0.0404
     24 C          -3.7806   -0.8066   -1.4548 C.ar    1  UNL1        0.0292
     25 N          -5.0134   -1.0132   -2.0896 N.pl3   1  UNL1       -0.3360
     26 C          -6.1268   -1.5555   -1.3484 C.3     1  UNL1        0.0004
     27 C          -5.1908   -0.6899   -3.4842 C.3     1  UNL1        0.0004
     28 C          -3.5445   -1.0918   -0.1246 C.ar    1  UNL1       -0.0404
     29 C          -2.3241   -0.8763    0.4746 C.ar    1  UNL1       -0.0563
     30 C           0.8921   -1.2934   -0.0116 C.3     1  UNL1       -0.0332
     31 C           2.2931   -1.0000   -0.3516 C.3     1  UNL1        0.0122
     32 C           2.4742   -0.5393   -1.7876 C.3     1  UNL1       -0.0557
     33 H           1.3858   -5.2339    2.6927 H       1  UNL1        0.0362
     34 H           2.4189   -6.2691    1.6021 H       1  UNL1        0.0362
     35 H           0.7822   -5.8341    1.0582 H       1  UNL1        0.0362
     36 H           4.6282   -1.6511   -1.4895 H       1  UNL1        0.2114
     37 H           4.1281   -1.6270    1.8367 H       1  UNL1        0.0303
     38 H           5.4042   -1.8005    0.4996 H       1  UNL1        0.0303
     39 H           4.6799    0.6353    1.3235 H       1  UNL1        0.0269
     40 H           4.6602    0.3391   -0.4174 H       1  UNL1        0.0269
     41 H           2.4202   -0.1865    1.6372 H       1  UNL1        0.0313
     42 H           2.1431    1.4053   -0.9716 H       1  UNL1        0.0349
     43 H           2.6723    2.4737    1.8675 H       1  UNL1        0.0274
     44 H           3.7510    2.4947    0.3949 H       1  UNL1        0.0274
     45 H           1.7788    3.6657   -0.8142 H       1  UNL1        0.0313
     46 H           2.4913    4.6027    0.6184 H       1  UNL1        0.0313
     47 H           0.6826    5.5569    1.6090 H       1  UNL1        0.0655
     48 H          -2.7049    3.9594    0.9471 H       1  UNL1        0.0348
     49 H          -2.8152    3.2574    2.5573 H       1  UNL1        0.0348
     50 H          -2.0331    1.9543    0.3358 H       1  UNL1        0.0317
     51 H          -1.6515    1.4394    2.0717 H       1  UNL1        0.0317
     52 H          -0.1154   -0.4233    1.5937 H       1  UNL1        0.0394
     53 H          -0.7022    0.3369   -2.1471 H       1  UNL1        0.0621
     54 H          -2.8495   -0.0436   -3.2190 H       1  UNL1        0.0636
     55 H          -5.7422   -2.4478   -0.7868 H       1  UNL1        0.0428
     56 H          -6.4363   -0.7550   -0.6143 H       1  UNL1        0.0428
     57 H          -6.9966   -1.8053   -1.9886 H       1  UNL1        0.0428
     58 H          -5.1173    0.4288   -3.5912 H       1  UNL1        0.0428
     59 H          -4.3782   -1.1918   -4.0661 H       1  UNL1        0.0428
     60 H          -6.2009   -1.0196   -3.8512 H       1  UNL1        0.0428
     61 H          -4.3988   -1.5058    0.4357 H       1  UNL1        0.0636
     62 H          -2.2658   -1.1465    1.5416 H       1  UNL1        0.0621
     63 H           0.4435   -1.8017   -0.9247 H       1  UNL1        0.0281
     64 H           0.9089   -2.1602    0.7292 H       1  UNL1        0.0281
     65 H           2.6887   -1.4873   -2.3676 H       1  UNL1        0.0236
     66 H           3.3538    0.0839   -1.9301 H       1  UNL1        0.0236
     67 H           1.5994   -0.0800   -2.2349 H       1  UNL1        0.0236
@<TRIPOS>BOND
     1     1     2    1
     2     2     3    3
     3     4     3    1
     4     4     5    1
     5     4     6    1
     6     6     7    1
     7     7     8    1
     8     8     9    1
     9     9    10    1
    10    10    11    1
    11    11    12    1
    12    12    13    2
    13    13    14    1
    14    14    15    2
    15    14    16    1
    16    16    17    1
    17    17    18    1
    18    18    19    2
    19    19    20    1
    20    20    21    1
    21    21    22   ar
    22    22    23   ar
    23    23    24   ar
    24    24    25    1
    25    25    26    1
    26    25    27    1
    27    24    28   ar
    28    28    29   ar
    29    20    30    1
    30    30    31    1
    31    31    32    1
    32    31     4    1
    33    31     8    1
    34    19     9    1
    35    29    21   ar
    36    18    12    1
    37     1    33    1
    38     1    34    1
    39     1    35    1
    40     5    36    1
    41     6    37    1
    42     6    38    1
    43     7    39    1
    44     7    40    1
    45     8    41    1
    46     9    42    1
    47    10    43    1
    48    10    44    1
    49    11    45    1
    50    11    46    1
    51    13    47    1
    52    16    48    1
    53    16    49    1
    54    17    50    1
    55    17    51    1
    56    20    52    1
    57    22    53    1
    58    23    54    1
    59    26    55    1
    60    26    56    1
    61    26    57    1
    62    27    58    1
    63    27    59    1
    64    27    60    1
    65    28    61    1
    66    29    62    1
    67    30    63    1
    68    30    64    1
    69    32    65    1
    70    32    66    1
    71    32    67    1
