
     RDKit          3D

 38 41  0  0  0  0  0  0  0  0999 V2000
    4.7379   -0.5094    1.2390 C   0  0  0  0  0  0  0  0  0  0  0  0
    3.7462   -0.1554    0.1836 C   0  0  0  0  0  0  0  0  0  0  0  0
    2.4553   -0.5859    0.1937 N   0  0  0  0  0  0  0  0  0  0  0  0
    1.5806   -0.2489   -0.7758 C   0  0  0  0  0  0  0  0  0  0  0  0
    2.0047    0.5565   -1.8098 C   0  0  0  0  0  0  0  0  0  0  0  0
    3.3067    0.9963   -1.8286 C   0  0  0  0  0  0  0  0  0  0  0  0
    4.2066    0.6592   -0.8462 C   0  0  0  0  0  0  0  0  0  0  0  0
    0.2815   -0.8508   -0.4974 C   0  0  0  0  0  0  0  0  0  0  0  0
    0.0666   -2.1820   -0.4965 N   0  0  0  0  0  0  0  0  0  0  0  0
   -1.1970   -2.4526   -0.2142 N   0  0  0  0  0  0  0  0  0  0  0  0
   -2.0682   -3.6016   -0.0550 C   0  0  0  0  0  0  0  0  0  0  0  0
   -3.1719   -3.0248    0.7997 C   0  0  0  0  0  0  0  0  0  0  0  0
   -3.2394   -1.5914    0.2905 C   0  0  0  0  0  0  0  0  0  0  0  0
   -1.8212   -1.2743   -0.0265 C   0  0  0  0  0  0  0  0  0  0  0  0
   -0.9220   -0.2453   -0.1967 C   0  0  0  0  0  0  0  0  0  0  0  0
   -1.1717    1.1798   -0.0867 C   0  0  0  0  0  0  0  0  0  0  0  0
   -1.5131    1.5241    1.2209 C   0  0  0  0  0  0  0  0  0  0  0  0
   -1.7931    2.8586    1.5242 C   0  0  0  0  0  0  0  0  0  0  0  0
   -1.7331    3.8331    0.5365 C   0  0  0  0  0  0  0  0  0  0  0  0
   -1.9890    5.1484    0.7415 F   0  0  0  0  0  0  0  0  0  0  0  0
   -1.3923    3.4743   -0.7579 C   0  0  0  0  0  0  0  0  0  0  0  0
   -1.1250    2.1675   -1.0227 C   0  0  0  0  0  0  0  0  0  0  0  0
    4.8759    0.3397    1.9534 H   0  0  0  0  0  0  0  0  0  0  0  0
    5.7117   -0.6869    0.7518 H   0  0  0  0  0  0  0  0  0  0  0  0
    4.4521   -1.4441    1.7577 H   0  0  0  0  0  0  0  0  0  0  0  0
    1.2138    0.7503   -2.5175 H   0  0  0  0  0  0  0  0  0  0  0  0
    3.5699    1.6218   -2.6659 H   0  0  0  0  0  0  0  0  0  0  0  0
    5.2325    1.0245   -0.8901 H   0  0  0  0  0  0  0  0  0  0  0  0
   -1.5258   -4.4210    0.4399 H   0  0  0  0  0  0  0  0  0  0  0  0
   -2.4832   -3.9310   -1.0370 H   0  0  0  0  0  0  0  0  0  0  0  0
   -2.8191   -3.0576    1.8402 H   0  0  0  0  0  0  0  0  0  0  0  0
   -4.1342   -3.5677    0.6595 H   0  0  0  0  0  0  0  0  0  0  0  0
   -3.5968   -0.9704    1.1539 H   0  0  0  0  0  0  0  0  0  0  0  0
   -3.8835   -1.5008   -0.5850 H   0  0  0  0  0  0  0  0  0  0  0  0
   -1.6115    0.9171    2.1154 H   0  0  0  0  0  0  0  0  0  0  0  0
   -2.0660    3.2645    2.4742 H   0  0  0  0  0  0  0  0  0  0  0  0
   -1.3275    4.1705   -1.5656 H   0  0  0  0  0  0  0  0  0  0  0  0
   -0.8571    1.8158   -2.0007 H   0  0  0  0  0  0  0  0  0  0  0  0
  1  2  1  0
  2  3  2  0
  3  4  1  0
  4  5  2  0
  5  6  1  0
  6  7  2  0
  4  8  1  0
  8  9  2  0
  9 10  1  0
 10 11  1  0
 11 12  1  0
 12 13  1  0
 13 14  1  0
 14 15  2  0
 15 16  1  0
 16 17  2  0
 17 18  1  0
 18 19  2  0
 19 20  1  0
 19 21  1  0
 21 22  2  0
  7  2  1  0
 15  8  1  0
 22 16  1  0
 14 10  1  0
  1 23  1  0
  1 24  1  0
  1 25  1  0
  5 26  1  0
  6 27  1  0
  7 28  1  0
 11 29  1  0
 11 30  1  0
 12 31  1  0
 12 32  1  0
 13 33  1  0
 13 34  1  0
 17 35  1  0
 18 36  1  0
 21 37  1  0
 22 38  1  0
M  END
$$$$
