@<TRIPOS>MOLECULE
*****
 38 41 0 0 0
SMALL
GASTEIGER

@<TRIPOS>ATOM
      1 C           4.7379   -0.5094    1.2390 C.3     1  UNL1       -0.0223
      2 C           3.7462   -0.1554    0.1836 C.ar    1  UNL1        0.0390
      3 N           2.4553   -0.5859    0.1937 N.ar    1  UNL1       -0.2503
      4 C           1.5806   -0.2489   -0.7758 C.ar    1  UNL1        0.0918
      5 C           2.0047    0.5565   -1.8098 C.ar    1  UNL1       -0.0341
      6 C           3.3067    0.9963   -1.8286 C.ar    1  UNL1       -0.0580
      7 C           4.2066    0.6592   -0.8462 C.ar    1  UNL1       -0.0406
      8 C           0.2815   -0.8508   -0.4974 C.ar    1  UNL1        0.1188
      9 N           0.0666   -2.1820   -0.4965 N.ar    1  UNL1       -0.1688
     10 N          -1.1970   -2.4526   -0.2142 N.ar    1  UNL1       -0.2671
     11 C          -2.0682   -3.6016   -0.0550 C.3     1  UNL1        0.0422
     12 C          -3.1719   -3.0248    0.7997 C.3     1  UNL1       -0.0279
     13 C          -3.2394   -1.5914    0.2905 C.3     1  UNL1       -0.0084
     14 C          -1.8212   -1.2743   -0.0265 C.ar    1  UNL1        0.0476
     15 C          -0.9220   -0.2453   -0.1967 C.ar    1  UNL1        0.0322
     16 C          -1.1717    1.1798   -0.0867 C.ar    1  UNL1       -0.0139
     17 C          -1.5131    1.5241    1.2209 C.ar    1  UNL1       -0.0512
     18 C          -1.7931    2.8586    1.5242 C.ar    1  UNL1       -0.0259
     19 C          -1.7331    3.8331    0.5365 C.ar    1  UNL1        0.1234
     20 F          -1.9890    5.1484    0.7415 F       1  UNL1       -0.2055
     21 C          -1.3923    3.4743   -0.7579 C.ar    1  UNL1       -0.0259
     22 C          -1.1250    2.1675   -1.0227 C.ar    1  UNL1       -0.0512
     23 H           4.8759    0.3397    1.9534 H       1  UNL1        0.0292
     24 H           5.7117   -0.6869    0.7518 H       1  UNL1        0.0292
     25 H           4.4521   -1.4441    1.7577 H       1  UNL1        0.0292
     26 H           1.2138    0.7503   -2.5175 H       1  UNL1        0.0639
     27 H           3.5699    1.6218   -2.6659 H       1  UNL1        0.0619
     28 H           5.2325    1.0245   -0.8901 H       1  UNL1        0.0635
     29 H          -1.5258   -4.4210    0.4399 H       1  UNL1        0.0509
     30 H          -2.4832   -3.9310   -1.0370 H       1  UNL1        0.0509
     31 H          -2.8191   -3.0576    1.8402 H       1  UNL1        0.0287
     32 H          -4.1342   -3.5677    0.6595 H       1  UNL1        0.0287
     33 H          -3.5968   -0.9704    1.1539 H       1  UNL1        0.0329
     34 H          -3.8835   -1.5008   -0.5850 H       1  UNL1        0.0329
     35 H          -1.6115    0.9171    2.1154 H       1  UNL1        0.0624
     36 H          -2.0660    3.2645    2.4742 H       1  UNL1        0.0646
     37 H          -1.3275    4.1705   -1.5656 H       1  UNL1        0.0646
     38 H          -0.8571    1.8158   -2.0007 H       1  UNL1        0.0624
@<TRIPOS>BOND
     1     1     2    1
     2     2     3   ar
     3     3     4   ar
     4     4     5   ar
     5     5     6   ar
     6     6     7   ar
     7     4     8    1
     8     8     9   ar
     9     9    10   ar
    10    10    11    1
    11    11    12    1
    12    12    13    1
    13    13    14    1
    14    14    15   ar
    15    15    16    1
    16    16    17   ar
    17    17    18   ar
    18    18    19   ar
    19    19    20    1
    20    19    21   ar
    21    21    22   ar
    22     7     2   ar
    23    15     8   ar
    24    22    16   ar
    25    14    10   ar
    26     1    23    1
    27     1    24    1
    28     1    25    1
    29     5    26    1
    30     6    27    1
    31     7    28    1
    32    11    29    1
    33    11    30    1
    34    12    31    1
    35    12    32    1
    36    13    33    1
    37    13    34    1
    38    17    35    1
    39    18    36    1
    40    21    37    1
    41    22    38    1
