
     RDKit          3D

 73 76  0  0  0  0  0  0  0  0999 V2000
   -0.5943    0.4908    3.3688 C   0  0  0  0  0  0  0  0  0  0  0  0
   -0.5928    0.4666    1.9168 N   0  0  0  0  0  0  0  0  0  0  0  0
   -1.7310    0.6415    1.0871 C   0  0  0  0  0  0  0  0  0  0  0  0
   -1.2571    0.5413   -0.0726 O   0  0  0  0  0  0  0  0  0  0  0  0
   -3.1389    0.8830    1.4114 C   0  0  0  0  0  0  0  0  0  0  0  0
   -3.8118   -0.1919    2.2113 C   0  0  0  0  0  0  0  0  0  0  0  0
   -3.3214    2.2131    2.1248 C   0  0  0  0  0  0  0  0  0  0  0  0
   -3.8926    0.9271    0.1023 C   0  0  0  0  0  0  0  0  0  0  0  0
   -4.8106    1.9549   -0.0991 C   0  0  0  0  0  0  0  0  0  0  0  0
   -5.4962    1.9772   -1.3051 C   0  0  0  0  0  0  0  0  0  0  0  0
   -5.3102    1.0288   -2.3121 C   0  0  0  0  0  0  0  0  0  0  0  0
   -4.3904    0.0138   -2.0881 C   0  0  0  0  0  0  0  0  0  0  0  0
   -3.7184   -0.0027   -0.8987 C   0  0  0  0  0  0  0  0  0  0  0  0
   -4.1802   -1.0034   -3.1509 C   0  0  0  0  0  0  0  0  0  0  0  0
   -3.2902   -0.6008   -4.1233 F   0  0  0  0  0  0  0  0  0  0  0  0
   -3.7786   -2.2148   -2.5692 F   0  0  0  0  0  0  0  0  0  0  0  0
   -5.3759   -1.2665   -3.7728 F   0  0  0  0  0  0  0  0  0  0  0  0
   -6.4969    3.0202   -1.6337 C   0  0  0  0  0  0  0  0  0  0  0  0
   -6.2734    4.1517   -0.8643 F   0  0  0  0  0  0  0  0  0  0  0  0
   -6.3038    3.4001   -2.9437 F   0  0  0  0  0  0  0  0  0  0  0  0
   -7.7946    2.5935   -1.4275 F   0  0  0  0  0  0  0  0  0  0  0  0
    0.6736    0.2485    1.3576 C   0  0  0  0  0  0  0  0  0  0  0  0
    1.3344    1.4489    1.0717 C   0  0  0  0  0  0  0  0  0  0  0  0
    2.5663    1.5455    0.5437 N   0  0  0  0  0  0  0  0  0  0  0  0
    3.2869    0.4270    0.2372 C   0  0  0  0  0  0  0  0  0  0  0  0
    2.6630   -0.7729    0.5072 C   0  0  0  0  0  0  0  0  0  0  0  0
    1.3996   -0.8824    1.0489 C   0  0  0  0  0  0  0  0  0  0  0  0
    0.7174   -2.1320    1.3414 C   0  0  0  0  0  0  0  0  0  0  0  0
    0.7678   -2.7204    2.6081 C   0  0  0  0  0  0  0  0  0  0  0  0
    0.1468   -3.8935    2.9795 C   0  0  0  0  0  0  0  0  0  0  0  0
   -0.5920   -4.5500    2.0179 C   0  0  0  0  0  0  0  0  0  0  0  0
   -0.6974   -4.0330    0.7211 C   0  0  0  0  0  0  0  0  0  0  0  0
   -0.0406   -2.8529    0.4435 C   0  0  0  0  0  0  0  0  0  0  0  0
   -0.1714   -2.3668   -0.9394 C   0  0  0  0  0  0  0  0  0  0  0  0
    4.5769    0.5258   -0.3169 N   0  0  0  0  0  0  0  0  0  0  0  0
    5.4471   -0.5708   -0.6844 C   0  0  0  0  0  0  0  0  0  0  0  0
    5.6650   -0.4512   -2.1932 C   0  0  0  0  0  0  0  0  0  0  0  0
    6.2676    0.8104   -2.4833 N   0  0  0  0  0  0  0  0  0  0  0  0
    7.6791    0.8107   -2.2654 C   0  0  0  0  0  0  0  0  0  0  0  0
    5.5618    1.9616   -2.0152 C   0  0  0  0  0  0  0  0  0  0  0  0
    5.1371    1.8388   -0.5679 C   0  0  0  0  0  0  0  0  0  0  0  0
    0.2068   -0.1523    3.7988 H   0  0  0  0  0  0  0  0  0  0  0  0
   -0.3223    1.5341    3.7112 H   0  0  0  0  0  0  0  0  0  0  0  0
   -1.5814    0.2829    3.8134 H   0  0  0  0  0  0  0  0  0  0  0  0
   -4.8967   -0.3243    1.9118 H   0  0  0  0  0  0  0  0  0  0  0  0
   -3.9065    0.0987    3.2964 H   0  0  0  0  0  0  0  0  0  0  0  0
   -3.3814   -1.2035    2.0902 H   0  0  0  0  0  0  0  0  0  0  0  0
   -4.3190    2.2816    2.5524 H   0  0  0  0  0  0  0  0  0  0  0  0
   -2.5663    2.2609    2.9299 H   0  0  0  0  0  0  0  0  0  0  0  0
   -3.1484    3.0174    1.3576 H   0  0  0  0  0  0  0  0  0  0  0  0
   -5.0191    2.7221    0.6112 H   0  0  0  0  0  0  0  0  0  0  0  0
   -5.8284    1.0321   -3.2414 H   0  0  0  0  0  0  0  0  0  0  0  0
   -3.0128   -0.8073   -0.7605 H   0  0  0  0  0  0  0  0  0  0  0  0
    0.9206    2.4545    1.2483 H   0  0  0  0  0  0  0  0  0  0  0  0
    3.1524   -1.6899    0.3010 H   0  0  0  0  0  0  0  0  0  0  0  0
    1.3395   -2.2357    3.3951 H   0  0  0  0  0  0  0  0  0  0  0  0
    0.2169   -4.2996    3.9575 H   0  0  0  0  0  0  0  0  0  0  0  0
   -1.1054   -5.4748    2.2356 H   0  0  0  0  0  0  0  0  0  0  0  0
   -1.2814   -4.5636   -0.0190 H   0  0  0  0  0  0  0  0  0  0  0  0
   -1.2035   -2.2729   -1.3066 H   0  0  0  0  0  0  0  0  0  0  0  0
    0.3601   -3.1052   -1.6111 H   0  0  0  0  0  0  0  0  0  0  0  0
    0.3482   -1.4115   -1.1474 H   0  0  0  0  0  0  0  0  0  0  0  0
    5.0663   -1.5524   -0.3856 H   0  0  0  0  0  0  0  0  0  0  0  0
    6.4335   -0.3375   -0.1885 H   0  0  0  0  0  0  0  0  0  0  0  0
    4.6973   -0.5669   -2.6776 H   0  0  0  0  0  0  0  0  0  0  0  0
    6.3952   -1.2320   -2.5145 H   0  0  0  0  0  0  0  0  0  0  0  0
    8.0001    0.5489   -1.2350 H   0  0  0  0  0  0  0  0  0  0  0  0
    8.0688    1.8380   -2.5188 H   0  0  0  0  0  0  0  0  0  0  0  0
    8.1349    0.1258   -3.0233 H   0  0  0  0  0  0  0  0  0  0  0  0
    6.2787    2.8224   -2.0602 H   0  0  0  0  0  0  0  0  0  0  0  0
    4.6874    2.1794   -2.6530 H   0  0  0  0  0  0  0  0  0  0  0  0
    6.0110    1.9540    0.1061 H   0  0  0  0  0  0  0  0  0  0  0  0
    4.4256    2.6615   -0.3476 H   0  0  0  0  0  0  0  0  0  0  0  0
  1  2  1  0
  2  3  1  0
  3  4  2  0
  3  5  1  0
  5  6  1  0
  5  7  1  0
  5  8  1  0
  8  9  2  0
  9 10  1  0
 10 11  2  0
 11 12  1  0
 12 13  2  0
 12 14  1  0
 14 15  1  0
 14 16  1  0
 14 17  1  0
 10 18  1  0
 18 19  1  0
 18 20  1  0
 18 21  1  0
  2 22  1  0
 22 23  2  0
 23 24  1  0
 24 25  2  0
 25 26  1  0
 26 27  2  0
 27 28  1  0
 28 29  2  0
 29 30  1  0
 30 31  2  0
 31 32  1  0
 32 33  2  0
 33 34  1  0
 25 35  1  0
 35 36  1  0
 36 37  1  0
 37 38  1  0
 38 39  1  0
 38 40  1  0
 40 41  1  0
 13  8  1  0
 27 22  1  0
 33 28  1  0
 41 35  1  0
  1 42  1  0
  1 43  1  0
  1 44  1  0
  6 45  1  0
  6 46  1  0
  6 47  1  0
  7 48  1  0
  7 49  1  0
  7 50  1  0
  9 51  1  0
 11 52  1  0
 13 53  1  0
 23 54  1  0
 26 55  1  0
 29 56  1  0
 30 57  1  0
 31 58  1  0
 32 59  1  0
 34 60  1  0
 34 61  1  0
 34 62  1  0
 36 63  1  0
 36 64  1  0
 37 65  1  0
 37 66  1  0
 39 67  1  0
 39 68  1  0
 39 69  1  0
 40 70  1  0
 40 71  1  0
 41 72  1  0
 41 73  1  0
M  END
$$$$
