@<TRIPOS>MOLECULE
*****
 85 89 0 0 0
SMALL
GASTEIGER

@<TRIPOS>ATOM
      1 C          -2.8037   -5.4592   -0.3469 C.3     1  UNL1       -0.0652
      2 C          -3.3241   -4.0264   -0.1280 C.3     1  UNL1       -0.0545
      3 C          -2.8030   -3.5661    1.1848 C.3     1  UNL1       -0.0374
      4 C          -3.1835   -2.1994    1.6233 C.3     1  UNL1        0.0158
      5 N          -2.7926   -1.1187    0.7601 N.am    1  UNL1       -0.2855
      6 C          -3.7628   -0.7211   -0.2308 C.2     1  UNL1        0.2393
      7 O          -4.7281   -1.4655   -0.5440 O.2     1  UNL1       -0.2734
      8 C          -3.6996    0.5779   -0.9469 C.3     1  UNL1        0.1259
      9 C          -4.6662    1.5318   -0.2291 C.3     1  UNL1        0.0848
     10 O          -4.6207    2.7890   -0.8784 O.3     1  UNL1       -0.3892
     11 C          -6.1031    1.0657   -0.3314 C.3     1  UNL1       -0.0127
     12 C          -6.5633    0.9755   -1.7680 C.3     1  UNL1       -0.0478
     13 C          -8.0075    1.4323   -1.8881 C.3     1  UNL1       -0.0527
     14 C          -8.0178    2.9172   -1.6336 C.3     1  UNL1       -0.0530
     15 C          -7.3591    3.2543   -0.3232 C.3     1  UNL1       -0.0527
     16 C          -6.9341    2.0608    0.4678 C.3     1  UNL1       -0.0478
     17 N          -2.4035    1.1874   -0.8583 N.am    1  UNL1       -0.3001
     18 C          -1.5992    0.9445    0.2764 C.2     1  UNL1        0.2375
     19 O          -0.9709    1.9294    0.7692 O.2     1  UNL1       -0.2734
     20 C          -1.5412   -0.4339    0.8127 C.3     1  UNL1        0.1156
     21 C          -0.5181   -1.1618   -0.0730 C.3     1  UNL1       -0.0100
     22 C           0.7873   -0.3790   -0.0926 C.3     1  UNL1        0.0016
     23 N           1.2915   -0.2376    1.2026 N.3     1  UNL1       -0.2980
     24 C           2.5460   -0.7882    1.5461 C.3     1  UNL1        0.0240
     25 C           3.6534   -0.2217    0.7440 C.ar    1  UNL1       -0.0331
     26 C           4.0767   -0.8643   -0.3943 C.ar    1  UNL1       -0.0539
     27 C           5.1124   -0.3330   -1.1660 C.ar    1  UNL1       -0.0190
     28 C           5.7111    0.8563   -0.7671 C.ar    1  UNL1        0.1285
     29 O           6.7301    1.3790   -1.5266 O.3     1  UNL1       -0.4560
     30 C           8.0759    1.1031   -1.3416 C.ar    1  UNL1        0.1285
     31 C           8.8171    1.9157   -0.4887 C.ar    1  UNL1       -0.0186
     32 C          10.1542    1.7166   -0.2467 C.ar    1  UNL1       -0.0443
     33 C          10.8235    0.6677   -0.8650 C.ar    1  UNL1        0.0591
     34 C          12.2379    0.4298   -0.6306 C.2     1  UNL1        0.3368
     35 O          12.7892   -0.5316   -1.2148 O.2     1  UNL1       -0.2451
     36 O          13.0011    1.2181    0.2088 O.3     1  UNL1       -0.4771
     37 C          10.0917   -0.1365   -1.7086 C.ar    1  UNL1       -0.0443
     38 C           8.7419    0.0638   -1.9534 C.ar    1  UNL1       -0.0186
     39 C           5.2893    1.5036    0.3746 C.ar    1  UNL1       -0.0190
     40 C           4.2660    0.9631    1.1220 C.ar    1  UNL1       -0.0539
     41 C           0.4281    0.1249    2.2608 C.3     1  UNL1        0.0016
     42 C          -0.9612   -0.4196    2.2112 C.3     1  UNL1       -0.0100
     43 H          -2.9104   -5.9535    0.6465 H       1  UNL1        0.0230
     44 H          -3.5021   -5.9845   -1.0300 H       1  UNL1        0.0230
     45 H          -1.7638   -5.4587   -0.7043 H       1  UNL1        0.0230
     46 H          -2.9498   -3.4512   -0.9981 H       1  UNL1        0.0263
     47 H          -4.4222   -4.1394   -0.0846 H       1  UNL1        0.0263
     48 H          -1.6969   -3.7716    1.3032 H       1  UNL1        0.0280
     49 H          -3.2516   -4.2699    1.9554 H       1  UNL1        0.0280
     50 H          -4.3114   -2.2202    1.7417 H       1  UNL1        0.0465
     51 H          -2.8308   -2.0646    2.6690 H       1  UNL1        0.0465
     52 H          -4.0290    0.4110   -1.9860 H       1  UNL1        0.0621
     53 H          -4.4193    1.6494    0.8251 H       1  UNL1        0.0619
     54 H          -3.8931    3.3247   -0.4535 H       1  UNL1        0.2099
     55 H          -6.2839    0.0903    0.1626 H       1  UNL1        0.0326
     56 H          -5.8848    1.6205   -2.3601 H       1  UNL1        0.0269
     57 H          -6.4926   -0.0646   -2.0915 H       1  UNL1        0.0269
     58 H          -8.5881    0.8949   -1.1397 H       1  UNL1        0.0265
     59 H          -8.3453    1.2765   -2.9244 H       1  UNL1        0.0265
     60 H          -9.0676    3.3021   -1.7053 H       1  UNL1        0.0265
     61 H          -7.4696    3.4029   -2.4648 H       1  UNL1        0.0265
     62 H          -6.5620    4.0134   -0.4669 H       1  UNL1        0.0265
     63 H          -8.1386    3.7770    0.2909 H       1  UNL1        0.0265
     64 H          -7.8236    1.5854    0.9181 H       1  UNL1        0.0269
     65 H          -6.3105    2.4193    1.3115 H       1  UNL1        0.0269
     66 H          -2.0948    1.8076   -1.6556 H       1  UNL1        0.1496
     67 H          -0.8637   -1.2379   -1.1168 H       1  UNL1        0.0303
     68 H          -0.2664   -2.1580    0.2903 H       1  UNL1        0.0303
     69 H           0.6482    0.6123   -0.5838 H       1  UNL1        0.0427
     70 H           1.4633   -0.9386   -0.7376 H       1  UNL1        0.0427
     71 H           2.8120   -0.5663    2.6125 H       1  UNL1        0.0476
     72 H           2.5222   -1.9112    1.3977 H       1  UNL1        0.0476
     73 H           3.6582   -1.7802   -0.7394 H       1  UNL1        0.0622
     74 H           5.4291   -0.8532   -2.0559 H       1  UNL1        0.0654
     75 H           8.2946    2.7335   -0.0065 H       1  UNL1        0.0654
     76 H          10.7325    2.3522    0.4200 H       1  UNL1        0.0627
     77 H          13.9670    1.0419    0.4527 H       1  UNL1        0.2954
     78 H          10.6107   -0.9656   -2.2002 H       1  UNL1        0.0627
     79 H           8.1804   -0.5691   -2.6131 H       1  UNL1        0.0654
     80 H           5.7977    2.4204    0.6251 H       1  UNL1        0.0654
     81 H           3.9425    1.4658    2.0034 H       1  UNL1        0.0622
     82 H           0.4442    1.2340    2.4861 H       1  UNL1        0.0427
     83 H           0.8943   -0.2970    3.2056 H       1  UNL1        0.0427
     84 H          -0.8787   -1.4988    2.5354 H       1  UNL1        0.0303
     85 H          -1.6077    0.1753    2.8506 H       1  UNL1        0.0303
@<TRIPOS>BOND
     1     1     2    1
     2     2     3    1
     3     3     4    1
     4     4     5    1
     5     5     6   am
     6     6     7    2
     7     6     8    1
     8     8     9    1
     9     9    10    1
    10     9    11    1
    11    11    12    1
    12    12    13    1
    13    13    14    1
    14    14    15    1
    15    15    16    1
    16     8    17    1
    17    17    18   am
    18    18    19    2
    19    18    20    1
    20    20    21    1
    21    21    22    1
    22    22    23    1
    23    23    24    1
    24    24    25    1
    25    25    26   ar
    26    26    27   ar
    27    27    28   ar
    28    28    29    1
    29    29    30    1
    30    30    31   ar
    31    31    32   ar
    32    32    33   ar
    33    33    34    1
    34    34    35    2
    35    34    36    1
    36    33    37   ar
    37    37    38   ar
    38    28    39   ar
    39    39    40   ar
    40    23    41    1
    41    41    42    1
    42    20     5    1
    43    40    25   ar
    44    16    11    1
    45    42    20    1
    46    38    30   ar
    47     1    43    1
    48     1    44    1
    49     1    45    1
    50     2    46    1
    51     2    47    1
    52     3    48    1
    53     3    49    1
    54     4    50    1
    55     4    51    1
    56     8    52    1
    57     9    53    1
    58    10    54    1
    59    11    55    1
    60    12    56    1
    61    12    57    1
    62    13    58    1
    63    13    59    1
    64    14    60    1
    65    14    61    1
    66    15    62    1
    67    15    63    1
    68    16    64    1
    69    16    65    1
    70    17    66    1
    71    21    67    1
    72    21    68    1
    73    22    69    1
    74    22    70    1
    75    24    71    1
    76    24    72    1
    77    26    73    1
    78    27    74    1
    79    31    75    1
    80    32    76    1
    81    36    77    1
    82    37    78    1
    83    38    79    1
    84    39    80    1
    85    40    81    1
    86    41    82    1
    87    41    83    1
    88    42    84    1
    89    42    85    1
