
     RDKit          3D

 85 89  0  0  0  0  0  0  0  0999 V2000
   -2.8037   -5.4592   -0.3469 C   0  0  0  0  0  0  0  0  0  0  0  0
   -3.3241   -4.0264   -0.1280 C   0  0  0  0  0  0  0  0  0  0  0  0
   -2.8030   -3.5661    1.1848 C   0  0  0  0  0  0  0  0  0  0  0  0
   -3.1835   -2.1994    1.6233 C   0  0  0  0  0  0  0  0  0  0  0  0
   -2.7926   -1.1187    0.7601 N   0  0  0  0  0  0  0  0  0  0  0  0
   -3.7628   -0.7211   -0.2308 C   0  0  0  0  0  0  0  0  0  0  0  0
   -4.7281   -1.4655   -0.5440 O   0  0  0  0  0  0  0  0  0  0  0  0
   -3.6996    0.5779   -0.9469 C   0  0  1  0  0  0  0  0  0  0  0  0
   -4.6662    1.5318   -0.2291 C   0  0  1  0  0  0  0  0  0  0  0  0
   -4.6207    2.7890   -0.8784 O   0  0  0  0  0  0  0  0  0  0  0  0
   -6.1031    1.0657   -0.3314 C   0  0  0  0  0  0  0  0  0  0  0  0
   -6.5633    0.9755   -1.7680 C   0  0  0  0  0  0  0  0  0  0  0  0
   -8.0075    1.4323   -1.8881 C   0  0  0  0  0  0  0  0  0  0  0  0
   -8.0178    2.9172   -1.6336 C   0  0  0  0  0  0  0  0  0  0  0  0
   -7.3591    3.2543   -0.3232 C   0  0  0  0  0  0  0  0  0  0  0  0
   -6.9341    2.0608    0.4678 C   0  0  0  0  0  0  0  0  0  0  0  0
   -2.4035    1.1874   -0.8583 N   0  0  0  0  0  0  0  0  0  0  0  0
   -1.5992    0.9445    0.2764 C   0  0  0  0  0  0  0  0  0  0  0  0
   -0.9709    1.9294    0.7692 O   0  0  0  0  0  0  0  0  0  0  0  0
   -1.5412   -0.4339    0.8127 C   0  0  0  0  0  0  0  0  0  0  0  0
   -0.5181   -1.1618   -0.0730 C   0  0  0  0  0  0  0  0  0  0  0  0
    0.7873   -0.3790   -0.0926 C   0  0  0  0  0  0  0  0  0  0  0  0
    1.2915   -0.2376    1.2026 N   0  0  0  0  0  0  0  0  0  0  0  0
    2.5460   -0.7882    1.5461 C   0  0  0  0  0  0  0  0  0  0  0  0
    3.6534   -0.2217    0.7440 C   0  0  0  0  0  0  0  0  0  0  0  0
    4.0767   -0.8643   -0.3943 C   0  0  0  0  0  0  0  0  0  0  0  0
    5.1124   -0.3330   -1.1660 C   0  0  0  0  0  0  0  0  0  0  0  0
    5.7111    0.8563   -0.7671 C   0  0  0  0  0  0  0  0  0  0  0  0
    6.7301    1.3790   -1.5266 O   0  0  0  0  0  0  0  0  0  0  0  0
    8.0759    1.1031   -1.3416 C   0  0  0  0  0  0  0  0  0  0  0  0
    8.8171    1.9157   -0.4887 C   0  0  0  0  0  0  0  0  0  0  0  0
   10.1542    1.7166   -0.2467 C   0  0  0  0  0  0  0  0  0  0  0  0
   10.8235    0.6677   -0.8650 C   0  0  0  0  0  0  0  0  0  0  0  0
   12.2379    0.4298   -0.6306 C   0  0  0  0  0  0  0  0  0  0  0  0
   12.7892   -0.5316   -1.2148 O   0  0  0  0  0  0  0  0  0  0  0  0
   13.0011    1.2181    0.2088 O   0  0  0  0  0  0  0  0  0  0  0  0
   10.0917   -0.1365   -1.7086 C   0  0  0  0  0  0  0  0  0  0  0  0
    8.7419    0.0638   -1.9534 C   0  0  0  0  0  0  0  0  0  0  0  0
    5.2893    1.5036    0.3746 C   0  0  0  0  0  0  0  0  0  0  0  0
    4.2660    0.9631    1.1220 C   0  0  0  0  0  0  0  0  0  0  0  0
    0.4281    0.1249    2.2608 C   0  0  0  0  0  0  0  0  0  0  0  0
   -0.9612   -0.4196    2.2112 C   0  0  0  0  0  0  0  0  0  0  0  0
   -2.9104   -5.9535    0.6465 H   0  0  0  0  0  0  0  0  0  0  0  0
   -3.5021   -5.9845   -1.0300 H   0  0  0  0  0  0  0  0  0  0  0  0
   -1.7638   -5.4587   -0.7043 H   0  0  0  0  0  0  0  0  0  0  0  0
   -2.9498   -3.4512   -0.9981 H   0  0  0  0  0  0  0  0  0  0  0  0
   -4.4222   -4.1394   -0.0846 H   0  0  0  0  0  0  0  0  0  0  0  0
   -1.6969   -3.7716    1.3032 H   0  0  0  0  0  0  0  0  0  0  0  0
   -3.2516   -4.2699    1.9554 H   0  0  0  0  0  0  0  0  0  0  0  0
   -4.3114   -2.2202    1.7417 H   0  0  0  0  0  0  0  0  0  0  0  0
   -2.8308   -2.0646    2.6690 H   0  0  0  0  0  0  0  0  0  0  0  0
   -4.0290    0.4110   -1.9860 H   0  0  0  0  0  0  0  0  0  0  0  0
   -4.4193    1.6494    0.8251 H   0  0  0  0  0  0  0  0  0  0  0  0
   -3.8931    3.3247   -0.4535 H   0  0  0  0  0  0  0  0  0  0  0  0
   -6.2839    0.0903    0.1626 H   0  0  0  0  0  0  0  0  0  0  0  0
   -5.8848    1.6205   -2.3601 H   0  0  0  0  0  0  0  0  0  0  0  0
   -6.4926   -0.0646   -2.0915 H   0  0  0  0  0  0  0  0  0  0  0  0
   -8.5881    0.8949   -1.1397 H   0  0  0  0  0  0  0  0  0  0  0  0
   -8.3453    1.2765   -2.9244 H   0  0  0  0  0  0  0  0  0  0  0  0
   -9.0676    3.3021   -1.7053 H   0  0  0  0  0  0  0  0  0  0  0  0
   -7.4696    3.4029   -2.4648 H   0  0  0  0  0  0  0  0  0  0  0  0
   -6.5620    4.0134   -0.4669 H   0  0  0  0  0  0  0  0  0  0  0  0
   -8.1386    3.7770    0.2909 H   0  0  0  0  0  0  0  0  0  0  0  0
   -7.8236    1.5854    0.9181 H   0  0  0  0  0  0  0  0  0  0  0  0
   -6.3105    2.4193    1.3115 H   0  0  0  0  0  0  0  0  0  0  0  0
   -2.0948    1.8076   -1.6556 H   0  0  0  0  0  0  0  0  0  0  0  0
   -0.8637   -1.2379   -1.1168 H   0  0  0  0  0  0  0  0  0  0  0  0
   -0.2664   -2.1580    0.2903 H   0  0  0  0  0  0  0  0  0  0  0  0
    0.6482    0.6123   -0.5838 H   0  0  0  0  0  0  0  0  0  0  0  0
    1.4633   -0.9386   -0.7376 H   0  0  0  0  0  0  0  0  0  0  0  0
    2.8120   -0.5663    2.6125 H   0  0  0  0  0  0  0  0  0  0  0  0
    2.5222   -1.9112    1.3977 H   0  0  0  0  0  0  0  0  0  0  0  0
    3.6582   -1.7802   -0.7394 H   0  0  0  0  0  0  0  0  0  0  0  0
    5.4291   -0.8532   -2.0559 H   0  0  0  0  0  0  0  0  0  0  0  0
    8.2946    2.7335   -0.0065 H   0  0  0  0  0  0  0  0  0  0  0  0
   10.7325    2.3522    0.4200 H   0  0  0  0  0  0  0  0  0  0  0  0
   13.9670    1.0419    0.4527 H   0  0  0  0  0  0  0  0  0  0  0  0
   10.6107   -0.9656   -2.2002 H   0  0  0  0  0  0  0  0  0  0  0  0
    8.1804   -0.5691   -2.6131 H   0  0  0  0  0  0  0  0  0  0  0  0
    5.7977    2.4204    0.6251 H   0  0  0  0  0  0  0  0  0  0  0  0
    3.9425    1.4658    2.0034 H   0  0  0  0  0  0  0  0  0  0  0  0
    0.4442    1.2340    2.4861 H   0  0  0  0  0  0  0  0  0  0  0  0
    0.8943   -0.2970    3.2056 H   0  0  0  0  0  0  0  0  0  0  0  0
   -0.8787   -1.4988    2.5354 H   0  0  0  0  0  0  0  0  0  0  0  0
   -1.6077    0.1753    2.8506 H   0  0  0  0  0  0  0  0  0  0  0  0
  1  2  1  0
  2  3  1  0
  3  4  1  0
  4  5  1  0
  5  6  1  0
  6  7  2  0
  6  8  1  0
  8  9  1  0
  9 10  1  0
  9 11  1  0
 11 12  1  0
 12 13  1  0
 13 14  1  0
 14 15  1  0
 15 16  1  0
  8 17  1  0
 17 18  1  0
 18 19  2  0
 18 20  1  0
 20 21  1  0
 21 22  1  0
 22 23  1  0
 23 24  1  0
 24 25  1  0
 25 26  2  0
 26 27  1  0
 27 28  2  0
 28 29  1  0
 29 30  1  0
 30 31  2  0
 31 32  1  0
 32 33  2  0
 33 34  1  0
 34 35  2  0
 34 36  1  0
 33 37  1  0
 37 38  2  0
 28 39  1  0
 39 40  2  0
 23 41  1  0
 41 42  1  0
 20  5  1  0
 40 25  1  0
 16 11  1  0
 42 20  1  0
 38 30  1  0
  1 43  1  0
  1 44  1  0
  1 45  1  0
  2 46  1  0
  2 47  1  0
  3 48  1  0
  3 49  1  0
  4 50  1  0
  4 51  1  0
  8 52  1  6
  9 53  1  1
 10 54  1  0
 11 55  1  0
 12 56  1  0
 12 57  1  0
 13 58  1  0
 13 59  1  0
 14 60  1  0
 14 61  1  0
 15 62  1  0
 15 63  1  0
 16 64  1  0
 16 65  1  0
 17 66  1  0
 21 67  1  0
 21 68  1  0
 22 69  1  0
 22 70  1  0
 24 71  1  0
 24 72  1  0
 26 73  1  0
 27 74  1  0
 31 75  1  0
 32 76  1  0
 36 77  1  0
 37 78  1  0
 38 79  1  0
 39 80  1  0
 40 81  1  0
 41 82  1  0
 41 83  1  0
 42 84  1  0
 42 85  1  0
M  END
$$$$
