
     RDKit          3D

 16 16  0  0  0  0  0  0  0  0999 V2000
    2.6945   -0.8191   -0.8038 O   0  0  0  0  0  0  0  0  0  0  0  0
    1.8686   -0.1454    0.1074 C   0  0  0  0  0  0  0  0  0  0  0  0
    2.6891   -0.0204    1.0751 O   0  0  0  0  0  0  0  0  0  0  0  0
    0.4844    0.3143    0.0560 C   0  0  2  0  0  0  0  0  0  0  0  0
   -0.4432   -0.3834    1.0432 C   0  0  0  0  0  0  0  0  0  0  0  0
   -1.7387    0.3173    0.6234 C   0  0  0  0  0  0  0  0  0  0  0  0
   -1.6012    0.1296   -0.8659 C   0  0  0  0  0  0  0  0  0  0  0  0
   -2.6459    0.0915   -1.5913 O   0  0  0  0  0  0  0  0  0  0  0  0
   -0.2006    0.0224   -1.1942 N   0  0  0  0  0  0  0  0  0  0  0  0
    3.4945   -0.3592   -1.2640 H   0  0  0  0  0  0  0  0  0  0  0  0
    0.3867    1.4198    0.2423 H   0  0  0  0  0  0  0  0  0  0  0  0
   -0.1818   -0.1777    2.0946 H   0  0  0  0  0  0  0  0  0  0  0  0
   -0.5732   -1.4428    0.7947 H   0  0  0  0  0  0  0  0  0  0  0  0
   -2.6352   -0.1330    1.0360 H   0  0  0  0  0  0  0  0  0  0  0  0
   -1.6176    1.4131    0.8451 H   0  0  0  0  0  0  0  0  0  0  0  0
    0.0197   -0.2270   -2.1987 H   0  0  0  0  0  0  0  0  0  0  0  0
  1  2  1  0
  2  3  2  0
  2  4  1  0
  4  5  1  0
  5  6  1  0
  6  7  1  0
  7  8  2  0
  7  9  1  0
  9  4  1  0
  1 10  1  0
  4 11  1  1
  5 12  1  0
  5 13  1  0
  6 14  1  0
  6 15  1  0
  9 16  1  0
M  END
$$$$
