@<TRIPOS>MOLECULE
*****
 15 15 0 0 0
SMALL
GASTEIGER

@<TRIPOS>ATOM
      1 O          -3.0443    0.1470   -0.3174 O.3     1  UNL1       -0.5068
      2 C          -1.6628    0.0467   -0.2071 C.ar    1  UNL1        0.1173
      3 C          -0.8954    1.1549    0.1115 C.ar    1  UNL1       -0.0138
      4 C           0.4940    1.1409    0.2417 C.ar    1  UNL1        0.0190
      5 C           1.1094   -0.0772    0.0313 C.ar    1  UNL1        0.2734
      6 C           0.4112   -1.2237   -0.2893 C.ar    1  UNL1        0.0190
      7 C          -0.9620   -1.1290   -0.4000 C.ar    1  UNL1       -0.0138
      8 N           2.5255   -0.0587    0.1711 N.pl3   1  UNL1        0.0796
      9 O           3.3566    0.9895    0.4826 O.co2   1  UNL1       -0.5760
     10 O           3.3189   -1.0104    0.0368 O.2     1  UNL1        0.0414
     11 H          -3.6682    0.0259    0.4665 H       1  UNL1        0.2921
     12 H          -1.4336    2.0866    0.2660 H       1  UNL1        0.0656
     13 H           1.0056    2.0612    0.4942 H       1  UNL1        0.0686
     14 H           0.9498   -2.1381   -0.4398 H       1  UNL1        0.0686
     15 H          -1.5045   -2.0155   -0.6481 H       1  UNL1        0.0656
@<TRIPOS>UNITY_ATOM_ATTR
8 1
charge 1
9 1
charge -1
@<TRIPOS>BOND
     1     1     2    1
     2     2     3   ar
     3     3     4   ar
     4     4     5   ar
     5     5     6   ar
     6     6     7   ar
     7     5     8    1
     8     8     9    1
     9     8    10    2
    10     7     2   ar
    11     1    11    1
    12     3    12    1
    13     4    13    1
    14     6    14    1
    15     7    15    1
