
     RDKit          3D

 15 15  0  0  0  0  0  0  0  0999 V2000
   -3.0443    0.1470   -0.3174 O   0  0  0  0  0  0  0  0  0  0  0  0
   -1.6628    0.0467   -0.2071 C   0  0  0  0  0  0  0  0  0  0  0  0
   -0.8954    1.1549    0.1115 C   0  0  0  0  0  0  0  0  0  0  0  0
    0.4940    1.1409    0.2417 C   0  0  0  0  0  0  0  0  0  0  0  0
    1.1094   -0.0772    0.0313 C   0  0  0  0  0  0  0  0  0  0  0  0
    0.4112   -1.2237   -0.2893 C   0  0  0  0  0  0  0  0  0  0  0  0
   -0.9620   -1.1290   -0.4000 C   0  0  0  0  0  0  0  0  0  0  0  0
    2.5255   -0.0587    0.1711 N   0  0  0  0  0  4  0  0  0  0  0  0
    3.3566    0.9895    0.4826 O   0  0  0  0  0  1  0  0  0  0  0  0
    3.3189   -1.0104    0.0368 O   0  0  0  0  0  0  0  0  0  0  0  0
   -3.6682    0.0259    0.4665 H   0  0  0  0  0  0  0  0  0  0  0  0
   -1.4336    2.0866    0.2660 H   0  0  0  0  0  0  0  0  0  0  0  0
    1.0056    2.0612    0.4942 H   0  0  0  0  0  0  0  0  0  0  0  0
    0.9498   -2.1381   -0.4398 H   0  0  0  0  0  0  0  0  0  0  0  0
   -1.5045   -2.0155   -0.6481 H   0  0  0  0  0  0  0  0  0  0  0  0
  1  2  1  0
  2  3  2  0
  3  4  1  0
  4  5  2  0
  5  6  1  0
  6  7  2  0
  5  8  1  0
  8  9  1  0
  8 10  2  0
  7  2  1  0
  1 11  1  0
  3 12  1  0
  4 13  1  0
  6 14  1  0
  7 15  1  0
M  CHG  2   8   1   9  -1
M  END
$$$$
