@<TRIPOS>MOLECULE
*****
 41 44 0 0 0
SMALL
GASTEIGER

@<TRIPOS>ATOM
      1 N          -3.8702   -1.8884    0.0649 N.1     1  UNL1       -0.1909
      2 C          -4.1252   -0.7740   -0.1269 C.1     1  UNL1        0.0998
      3 C          -4.4136    0.5961   -0.3656 C.ar    1  UNL1        0.0595
      4 C          -5.4838    0.8927   -1.2167 C.ar    1  UNL1       -0.0438
      5 C          -5.8109    2.2027   -1.4920 C.ar    1  UNL1       -0.0605
      6 C          -5.0616    3.1967   -0.9113 C.ar    1  UNL1       -0.0611
      7 C          -3.9995    2.8966   -0.0665 C.ar    1  UNL1       -0.0528
      8 C          -3.6635    1.5862    0.2160 C.ar    1  UNL1       -0.0005
      9 C          -2.5597    1.2397    1.1008 C.ar    1  UNL1       -0.0166
     10 C          -1.3313    1.8644    0.9474 C.ar    1  UNL1       -0.0537
     11 C          -0.2607    1.5617    1.7774 C.ar    1  UNL1       -0.0572
     12 C          -0.3557    0.6342    2.7886 C.ar    1  UNL1       -0.0370
     13 C           0.7775    0.2845    3.6801 C.3     1  UNL1        0.0278
     14 S           1.6357   -1.1577    3.0768 S.3     1  UNL1       -0.0609
     15 C           2.4846   -0.9212    1.5465 C.ar    1  UNL1        0.2779
     16 N           2.5296    0.2099    0.8390 N.ar    1  UNL1       -0.1006
     17 N           3.2576    0.0032   -0.2437 N.ar    1  UNL1       -0.1065
     18 C           3.6705   -1.2658   -0.2130 C.ar    1  UNL1        0.2493
     19 C           4.4986   -1.9191   -1.2102 C.ar    1  UNL1        0.0414
     20 C           4.8801   -3.2234   -1.0989 C.ar    1  UNL1       -0.0313
     21 C           5.6717   -3.8504   -2.0525 C.ar    1  UNL1        0.0283
     22 N           6.0529   -3.1108   -3.1048 N.ar    1  UNL1       -0.2632
     23 C           5.7161   -1.8213   -3.2819 C.ar    1  UNL1        0.0283
     24 C           4.9299   -1.2169   -2.3245 C.ar    1  UNL1       -0.0313
     25 O           3.1867   -1.8075    0.8866 O.2     1  UNL1       -0.4110
     26 C          -1.5964    0.0041    2.9428 C.ar    1  UNL1       -0.0572
     27 C          -2.6533    0.3104    2.1154 C.ar    1  UNL1       -0.0537
     28 H          -6.0824    0.1224   -1.6811 H       1  UNL1        0.0631
     29 H          -6.6414    2.4455   -2.1525 H       1  UNL1        0.0618
     30 H          -5.3019    4.2299   -1.1144 H       1  UNL1        0.0618
     31 H          -3.4424    3.7173    0.3642 H       1  UNL1        0.0624
     32 H          -1.2318    2.5988    0.1573 H       1  UNL1        0.0624
     33 H           0.6849    2.0783    1.6353 H       1  UNL1        0.0621
     34 H           1.4971    1.1470    3.6081 H       1  UNL1        0.0430
     35 H           0.4670    0.2097    4.7358 H       1  UNL1        0.0430
     36 H           4.5749   -3.8346   -0.2455 H       1  UNL1        0.0640
     37 H           5.9735   -4.8976   -1.9553 H       1  UNL1        0.0830
     38 H           6.0572   -1.2614   -4.1658 H       1  UNL1        0.0830
     39 H           4.6234   -0.1688   -2.4138 H       1  UNL1        0.0640
     40 H          -1.6714   -0.7241    3.7370 H       1  UNL1        0.0621
     41 H          -3.6127   -0.1891    2.2538 H       1  UNL1        0.0624
@<TRIPOS>BOND
     1     1     2    3
     2     2     3    1
     3     3     4   ar
     4     4     5   ar
     5     5     6   ar
     6     6     7   ar
     7     7     8   ar
     8     8     9    1
     9     9    10   ar
    10    10    11   ar
    11    11    12   ar
    12    12    13    1
    13    13    14    1
    14    14    15    1
    15    15    16   ar
    16    16    17   ar
    17    17    18   ar
    18    18    19    1
    19    19    20   ar
    20    20    21   ar
    21    21    22   ar
    22    22    23   ar
    23    23    24   ar
    24    18    25   ar
    25    12    26   ar
    26    26    27   ar
    27     8     3   ar
    28    27     9   ar
    29    25    15   ar
    30    24    19   ar
    31     4    28    1
    32     5    29    1
    33     6    30    1
    34     7    31    1
    35    10    32    1
    36    11    33    1
    37    13    34    1
    38    13    35    1
    39    20    36    1
    40    21    37    1
    41    23    38    1
    42    24    39    1
    43    26    40    1
    44    27    41    1
