@<TRIPOS>MOLECULE
*****
 63 67 0 0 0
SMALL
GASTEIGER

@<TRIPOS>ATOM
      1 C          -6.2236    2.0063    0.7783 C.3     1  UNL1       -0.0523
      2 C          -6.4774    2.1515   -0.7035 C.3     1  UNL1       -0.0033
      3 N          -6.3884    0.9404   -1.4305 N.3     1  UNL1       -0.2938
      4 C          -6.6263    1.1592   -2.8295 C.3     1  UNL1       -0.0005
      5 C          -7.2869   -0.1070   -3.3696 C.3     1  UNL1       -0.0401
      6 C          -6.5389   -1.3084   -2.8706 C.3     1  UNL1       -0.0501
      7 C          -5.1687   -0.8926   -2.3467 C.3     1  UNL1       -0.0312
      8 C          -5.3475    0.0396   -1.1571 C.3     1  UNL1        0.0591
      9 C          -4.0517    0.6155   -0.6999 C.ar    1  UNL1        0.0958
     10 N          -3.1366    0.3553    0.0123 N.ar    1  UNL1       -0.2439
     11 C          -2.0689    1.0326    0.3136 C.ar    1  UNL1        0.0859
     12 C          -0.9185    0.5327    1.2032 C.3     1  UNL1        0.1320
     13 O           0.1779    0.2410    0.4286 O.3     1  UNL1       -0.4821
     14 C           1.3484   -0.3398    0.7805 C.ar    1  UNL1        0.1645
     15 C           1.5887   -0.8017    2.0825 C.ar    1  UNL1        0.0099
     16 C           2.7670   -1.3917    2.4524 C.ar    1  UNL1        0.0797
     17 N           3.0422   -1.8473    3.6905 N.ar    1  UNL1       -0.2352
     18 C           4.2246   -2.4138    3.9869 C.ar    1  UNL1        0.1187
     19 N           5.1931   -2.5577    3.0679 N.ar    1  UNL1       -0.2200
     20 C           4.9794   -2.1270    1.8214 C.ar    1  UNL1        0.1340
     21 N           5.9573   -2.2317    0.7965 N.pl3   1  UNL1       -0.2988
     22 C           6.8470   -1.1132    0.6247 C.ar    1  UNL1        0.0339
     23 C           6.6279    0.1118    1.1833 C.ar    1  UNL1       -0.0390
     24 C           7.4567    1.1958    1.0596 C.ar    1  UNL1       -0.0402
     25 C           8.6250    1.0296    0.2973 C.ar    1  UNL1        0.0594
     26 CL          9.7007    2.4151    0.1271 Cl      1  UNL1       -0.0820
     27 C           8.8725   -0.1901   -0.2775 C.ar    1  UNL1        0.0610
     28 CL         10.3499   -0.3522   -1.2162 Cl      1  UNL1       -0.0820
     29 C           8.0063   -1.2592   -0.1275 C.ar    1  UNL1       -0.0207
     30 C           3.7688   -1.5366    1.4807 C.ar    1  UNL1        0.0441
     31 C           3.5168   -1.0775    0.2102 C.ar    1  UNL1       -0.0038
     32 C           2.3489   -0.4825   -0.1920 C.ar    1  UNL1        0.1623
     33 O           2.1358   -0.0333   -1.4859 O.3     1  UNL1       -0.4914
     34 C           3.1566   -0.1864   -2.4514 C.3     1  UNL1        0.0790
     35 C          -1.9836    2.2597   -0.2970 C.ar    1  UNL1        0.0020
     36 S          -3.5267    2.3034   -1.2865 S.2     1  UNL1       -0.0786
     37 H          -7.1087    2.3745    1.3295 H       1  UNL1        0.0242
     38 H          -6.0604    0.9158    0.9996 H       1  UNL1        0.0242
     39 H          -5.3366    2.6236    1.0546 H       1  UNL1        0.0242
     40 H          -7.5638    2.4923   -0.8037 H       1  UNL1        0.0424
     41 H          -5.9069    2.9973   -1.1586 H       1  UNL1        0.0424
     42 H          -7.3556    2.0061   -2.8985 H       1  UNL1        0.0427
     43 H          -5.6896    1.3844   -3.3961 H       1  UNL1        0.0427
     44 H          -7.2642   -0.0420   -4.4850 H       1  UNL1        0.0278
     45 H          -8.3353   -0.0785   -2.9989 H       1  UNL1        0.0278
     46 H          -6.3894   -2.0270   -3.6760 H       1  UNL1        0.0266
     47 H          -7.0754   -1.7746   -2.0200 H       1  UNL1        0.0266
     48 H          -4.5974   -1.8048   -2.0819 H       1  UNL1        0.0284
     49 H          -4.6011   -0.3555   -3.1309 H       1  UNL1        0.0284
     50 H          -5.6692   -0.6460   -0.3121 H       1  UNL1        0.0533
     51 H          -1.2620   -0.3769    1.7367 H       1  UNL1        0.0763
     52 H          -0.6716    1.3509    1.9033 H       1  UNL1        0.0763
     53 H           0.8176   -0.6964    2.8385 H       1  UNL1        0.0677
     54 H           4.4148   -2.7695    4.9888 H       1  UNL1        0.1048
     55 H           6.0756   -3.0422    0.1685 H       1  UNL1        0.1536
     56 H           5.7233    0.2884    1.7849 H       1  UNL1        0.0636
     57 H           7.2560    2.1595    1.5122 H       1  UNL1        0.0633
     58 H           8.2434   -2.1995   -0.5965 H       1  UNL1        0.0651
     59 H           4.3242   -1.2142   -0.5160 H       1  UNL1        0.0663
     60 H           4.0479    0.4442   -2.2444 H       1  UNL1        0.0660
     61 H           3.5097   -1.2554   -2.4116 H       1  UNL1        0.0660
     62 H           2.7660    0.0212   -3.4715 H       1  UNL1        0.0660
     63 H          -1.2391    3.0844   -0.2801 H       1  UNL1        0.0713
@<TRIPOS>BOND
     1     1     2    1
     2     2     3    1
     3     3     4    1
     4     4     5    1
     5     5     6    1
     6     6     7    1
     7     7     8    1
     8     8     9    1
     9     9    10   ar
    10    10    11   ar
    11    11    12    1
    12    12    13    1
    13    13    14    1
    14    14    15   ar
    15    15    16   ar
    16    16    17   ar
    17    17    18   ar
    18    18    19   ar
    19    19    20   ar
    20    20    21    1
    21    21    22    1
    22    22    23   ar
    23    23    24   ar
    24    24    25   ar
    25    25    26    1
    26    25    27   ar
    27    27    28    1
    28    27    29   ar
    29    20    30   ar
    30    30    31   ar
    31    31    32   ar
    32    32    33    1
    33    33    34    1
    34    11    35   ar
    35    35    36   ar
    36     8     3    1
    37    36     9   ar
    38    32    14   ar
    39    30    16   ar
    40    29    22   ar
    41     1    37    1
    42     1    38    1
    43     1    39    1
    44     2    40    1
    45     2    41    1
    46     4    42    1
    47     4    43    1
    48     5    44    1
    49     5    45    1
    50     6    46    1
    51     6    47    1
    52     7    48    1
    53     7    49    1
    54     8    50    1
    55    12    51    1
    56    12    52    1
    57    15    53    1
    58    18    54    1
    59    21    55    1
    60    23    56    1
    61    24    57    1
    62    29    58    1
    63    31    59    1
    64    34    60    1
    65    34    61    1
    66    34    62    1
    67    35    63    1
