
     RDKit          3D

 63 67  0  0  0  0  0  0  0  0999 V2000
   -6.2236    2.0063    0.7783 C   0  0  0  0  0  0  0  0  0  0  0  0
   -6.4774    2.1515   -0.7035 C   0  0  0  0  0  0  0  0  0  0  0  0
   -6.3884    0.9404   -1.4305 N   0  0  0  0  0  0  0  0  0  0  0  0
   -6.6263    1.1592   -2.8295 C   0  0  0  0  0  0  0  0  0  0  0  0
   -7.2869   -0.1070   -3.3696 C   0  0  0  0  0  0  0  0  0  0  0  0
   -6.5389   -1.3084   -2.8706 C   0  0  0  0  0  0  0  0  0  0  0  0
   -5.1687   -0.8926   -2.3467 C   0  0  0  0  0  0  0  0  0  0  0  0
   -5.3475    0.0396   -1.1571 C   0  0  0  0  0  0  0  0  0  0  0  0
   -4.0517    0.6155   -0.6999 C   0  0  0  0  0  0  0  0  0  0  0  0
   -3.1366    0.3553    0.0123 N   0  0  0  0  0  0  0  0  0  0  0  0
   -2.0689    1.0326    0.3136 C   0  0  0  0  0  0  0  0  0  0  0  0
   -0.9185    0.5327    1.2032 C   0  0  0  0  0  0  0  0  0  0  0  0
    0.1779    0.2410    0.4286 O   0  0  0  0  0  0  0  0  0  0  0  0
    1.3484   -0.3398    0.7805 C   0  0  0  0  0  0  0  0  0  0  0  0
    1.5887   -0.8017    2.0825 C   0  0  0  0  0  0  0  0  0  0  0  0
    2.7670   -1.3917    2.4524 C   0  0  0  0  0  0  0  0  0  0  0  0
    3.0422   -1.8473    3.6905 N   0  0  0  0  0  0  0  0  0  0  0  0
    4.2246   -2.4138    3.9869 C   0  0  0  0  0  0  0  0  0  0  0  0
    5.1931   -2.5577    3.0679 N   0  0  0  0  0  0  0  0  0  0  0  0
    4.9794   -2.1270    1.8214 C   0  0  0  0  0  0  0  0  0  0  0  0
    5.9573   -2.2317    0.7965 N   0  0  0  0  0  0  0  0  0  0  0  0
    6.8470   -1.1132    0.6247 C   0  0  0  0  0  0  0  0  0  0  0  0
    6.6279    0.1118    1.1833 C   0  0  0  0  0  0  0  0  0  0  0  0
    7.4567    1.1958    1.0596 C   0  0  0  0  0  0  0  0  0  0  0  0
    8.6250    1.0296    0.2973 C   0  0  0  0  0  0  0  0  0  0  0  0
    9.7007    2.4151    0.1271 Cl  0  0  0  0  0  0  0  0  0  0  0  0
    8.8725   -0.1901   -0.2775 C   0  0  0  0  0  0  0  0  0  0  0  0
   10.3499   -0.3522   -1.2162 Cl  0  0  0  0  0  0  0  0  0  0  0  0
    8.0063   -1.2592   -0.1275 C   0  0  0  0  0  0  0  0  0  0  0  0
    3.7688   -1.5366    1.4807 C   0  0  0  0  0  0  0  0  0  0  0  0
    3.5168   -1.0775    0.2102 C   0  0  0  0  0  0  0  0  0  0  0  0
    2.3489   -0.4825   -0.1920 C   0  0  0  0  0  0  0  0  0  0  0  0
    2.1358   -0.0333   -1.4859 O   0  0  0  0  0  0  0  0  0  0  0  0
    3.1566   -0.1864   -2.4514 C   0  0  0  0  0  0  0  0  0  0  0  0
   -1.9836    2.2597   -0.2970 C   0  0  0  0  0  0  0  0  0  0  0  0
   -3.5267    2.3034   -1.2865 S   0  0  0  0  0  0  0  0  0  0  0  0
   -7.1087    2.3745    1.3295 H   0  0  0  0  0  0  0  0  0  0  0  0
   -6.0604    0.9158    0.9996 H   0  0  0  0  0  0  0  0  0  0  0  0
   -5.3366    2.6236    1.0546 H   0  0  0  0  0  0  0  0  0  0  0  0
   -7.5638    2.4923   -0.8037 H   0  0  0  0  0  0  0  0  0  0  0  0
   -5.9069    2.9973   -1.1586 H   0  0  0  0  0  0  0  0  0  0  0  0
   -7.3556    2.0061   -2.8985 H   0  0  0  0  0  0  0  0  0  0  0  0
   -5.6896    1.3844   -3.3961 H   0  0  0  0  0  0  0  0  0  0  0  0
   -7.2642   -0.0420   -4.4850 H   0  0  0  0  0  0  0  0  0  0  0  0
   -8.3353   -0.0785   -2.9989 H   0  0  0  0  0  0  0  0  0  0  0  0
   -6.3894   -2.0270   -3.6760 H   0  0  0  0  0  0  0  0  0  0  0  0
   -7.0754   -1.7746   -2.0200 H   0  0  0  0  0  0  0  0  0  0  0  0
   -4.5974   -1.8048   -2.0819 H   0  0  0  0  0  0  0  0  0  0  0  0
   -4.6011   -0.3555   -3.1309 H   0  0  0  0  0  0  0  0  0  0  0  0
   -5.6692   -0.6460   -0.3121 H   0  0  0  0  0  0  0  0  0  0  0  0
   -1.2620   -0.3769    1.7367 H   0  0  0  0  0  0  0  0  0  0  0  0
   -0.6716    1.3509    1.9033 H   0  0  0  0  0  0  0  0  0  0  0  0
    0.8176   -0.6964    2.8385 H   0  0  0  0  0  0  0  0  0  0  0  0
    4.4148   -2.7695    4.9888 H   0  0  0  0  0  0  0  0  0  0  0  0
    6.0756   -3.0422    0.1685 H   0  0  0  0  0  0  0  0  0  0  0  0
    5.7233    0.2884    1.7849 H   0  0  0  0  0  0  0  0  0  0  0  0
    7.2560    2.1595    1.5122 H   0  0  0  0  0  0  0  0  0  0  0  0
    8.2434   -2.1995   -0.5965 H   0  0  0  0  0  0  0  0  0  0  0  0
    4.3242   -1.2142   -0.5160 H   0  0  0  0  0  0  0  0  0  0  0  0
    4.0479    0.4442   -2.2444 H   0  0  0  0  0  0  0  0  0  0  0  0
    3.5097   -1.2554   -2.4116 H   0  0  0  0  0  0  0  0  0  0  0  0
    2.7660    0.0212   -3.4715 H   0  0  0  0  0  0  0  0  0  0  0  0
   -1.2391    3.0844   -0.2801 H   0  0  0  0  0  0  0  0  0  0  0  0
  1  2  1  0
  2  3  1  0
  3  4  1  0
  4  5  1  0
  5  6  1  0
  6  7  1  0
  7  8  1  0
  8  9  1  0
  9 10  2  0
 10 11  1  0
 11 12  1  0
 12 13  1  0
 13 14  1  0
 14 15  2  0
 15 16  1  0
 16 17  2  0
 17 18  1  0
 18 19  2  0
 19 20  1  0
 20 21  1  0
 21 22  1  0
 22 23  2  0
 23 24  1  0
 24 25  2  0
 25 26  1  0
 25 27  1  0
 27 28  1  0
 27 29  2  0
 20 30  2  0
 30 31  1  0
 31 32  2  0
 32 33  1  0
 33 34  1  0
 11 35  2  0
 35 36  1  0
  8  3  1  0
 36  9  1  0
 32 14  1  0
 30 16  1  0
 29 22  1  0
  1 37  1  0
  1 38  1  0
  1 39  1  0
  2 40  1  0
  2 41  1  0
  4 42  1  0
  4 43  1  0
  5 44  1  0
  5 45  1  0
  6 46  1  0
  6 47  1  0
  7 48  1  0
  7 49  1  0
  8 50  1  0
 12 51  1  0
 12 52  1  0
 15 53  1  0
 18 54  1  0
 21 55  1  0
 23 56  1  0
 24 57  1  0
 29 58  1  0
 31 59  1  0
 34 60  1  0
 34 61  1  0
 34 62  1  0
 35 63  1  0
M  END
$$$$
