@<TRIPOS>MOLECULE
*****
 68 72 0 0 0
SMALL
GASTEIGER

@<TRIPOS>ATOM
      1 N          -8.9403   -0.6935   -0.6857 N.3     1  UNL1       -0.3272
      2 C          -7.4811   -0.6189   -0.6396 C.3     1  UNL1        0.0049
      3 C          -7.1397    0.2799    0.5229 C.3     1  UNL1       -0.0363
      4 C          -6.4756    1.5158   -0.0006 C.3     1  UNL1       -0.0361
      5 C          -5.1409    1.1093   -0.6010 C.3     1  UNL1        0.0080
      6 N          -4.3172    0.4060    0.3498 N.3     1  UNL1       -0.3099
      7 C          -3.9970    1.1374    1.5181 C.3     1  UNL1        0.0153
      8 C          -3.2734    2.4479    1.3179 C.3     1  UNL1       -0.0287
      9 C          -2.6161    1.3439    2.0124 C.3     1  UNL1        0.0010
     10 C          -1.4458    0.6422    1.4288 C.ar    1  UNL1       -0.0427
     11 C          -0.6024   -0.1539    2.1746 C.ar    1  UNL1       -0.0577
     12 C           0.4896   -0.7924    1.6276 C.ar    1  UNL1       -0.0538
     13 C           0.7911   -0.6608    0.2883 C.ar    1  UNL1       -0.0178
     14 C           1.9547   -1.3426   -0.2935 C.ar    1  UNL1       -0.0161
     15 C           1.9123   -1.7492   -1.6074 C.ar    1  UNL1       -0.0539
     16 C           3.0005   -2.3976   -2.1833 C.ar    1  UNL1       -0.0594
     17 C           4.1428   -2.6475   -1.4555 C.ar    1  UNL1       -0.0393
     18 C           4.1953   -2.2444   -0.1393 C.ar    1  UNL1        0.0496
     19 N           5.3837   -2.5159    0.5839 N.pl3   1  UNL1       -0.2064
     20 S           6.1651   -1.3858    1.5957 S.O2    1  UNL1        0.1118
     21 O           7.2729   -2.0153    2.3500 O.2     1  UNL1       -0.1379
     22 O           5.1391   -0.9202    2.6199 O.2     1  UNL1       -0.1379
     23 N           6.7052    0.0136    0.7691 N.3     1  UNL1       -0.1614
     24 C           5.6518    0.7676    0.1641 C.3     1  UNL1        0.0343
     25 C           6.1460    2.1825   -0.0760 C.3     1  UNL1        0.0104
     26 N           7.5834    2.2147    0.0340 N.3     1  UNL1       -0.3134
     27 C           8.2236    1.1245   -0.6892 C.3     1  UNL1        0.0104
     28 C           7.7889   -0.2247   -0.1333 C.3     1  UNL1        0.0343
     29 C           3.1096   -1.6038    0.4159 C.ar    1  UNL1       -0.0316
     30 C          -0.0400    0.1308   -0.4737 C.ar    1  UNL1       -0.0538
     31 C          -1.1443    0.7738    0.0913 C.ar    1  UNL1       -0.0577
     32 C          -5.4571    0.2745   -1.8114 C.3     1  UNL1       -0.0361
     33 C          -6.9088   -0.0839   -1.9110 C.3     1  UNL1       -0.0363
     34 H          -9.3773    0.1223   -0.2003 H       1  UNL1        0.1185
     35 H          -9.2950   -1.5493   -0.1689 H       1  UNL1        0.1185
     36 H          -7.1471   -1.6750   -0.4489 H       1  UNL1        0.0458
     37 H          -6.3958   -0.2848    1.1579 H       1  UNL1        0.0281
     38 H          -8.0192    0.5182    1.1556 H       1  UNL1        0.0281
     39 H          -6.3525    2.3038    0.7697 H       1  UNL1        0.0281
     40 H          -7.0712    1.9690   -0.8127 H       1  UNL1        0.0281
     41 H          -4.6293    2.0687   -0.8689 H       1  UNL1        0.0460
     42 H          -3.5590   -0.0760   -0.1412 H       1  UNL1        0.1225
     43 H          -4.8019    1.0987    2.3001 H       1  UNL1        0.0466
     44 H          -2.9959    2.7736    0.2927 H       1  UNL1        0.0287
     45 H          -3.6930    3.2875    1.9160 H       1  UNL1        0.0287
     46 H          -2.5287    1.4068    3.1333 H       1  UNL1        0.0364
     47 H          -0.8324   -0.2640    3.2344 H       1  UNL1        0.0621
     48 H           1.1479   -1.4155    2.2172 H       1  UNL1        0.0624
     49 H           1.0417   -1.5768   -2.2190 H       1  UNL1        0.0624
     50 H           2.9571   -2.7117   -3.2127 H       1  UNL1        0.0618
     51 H           4.9810   -3.1530   -1.9180 H       1  UNL1        0.0636
     52 H           5.7939   -3.4677    0.4819 H       1  UNL1        0.1747
     53 H           5.3798    0.3555   -0.8403 H       1  UNL1        0.0457
     54 H           4.7454    0.7586    0.8025 H       1  UNL1        0.0457
     55 H           5.7376    2.8107    0.7688 H       1  UNL1        0.0437
     56 H           5.7949    2.5724   -1.0610 H       1  UNL1        0.0437
     57 H           7.9176    3.0905   -0.3976 H       1  UNL1        0.1220
     58 H           7.9790    1.2069   -1.7845 H       1  UNL1        0.0437
     59 H           9.3195    1.2745   -0.5642 H       1  UNL1        0.0437
     60 H           7.5279   -0.8596   -1.0032 H       1  UNL1        0.0457
     61 H           8.6631   -0.6332    0.4419 H       1  UNL1        0.0457
     62 H           3.1320   -1.2818    1.4414 H       1  UNL1        0.0642
     63 H           0.1919    0.2385   -1.5293 H       1  UNL1        0.0624
     64 H          -1.7608    1.3921   -0.5575 H       1  UNL1        0.0621
     65 H          -5.1842    0.8345   -2.7287 H       1  UNL1        0.0281
     66 H          -4.8534   -0.6591   -1.8084 H       1  UNL1        0.0281
     67 H          -6.9668   -0.9215   -2.6580 H       1  UNL1        0.0281
     68 H          -7.5226    0.7245   -2.3537 H       1  UNL1        0.0281
@<TRIPOS>BOND
     1     1     2    1
     2     2     3    1
     3     3     4    1
     4     4     5    1
     5     5     6    1
     6     6     7    1
     7     7     8    1
     8     8     9    1
     9     9    10    1
    10    10    11   ar
    11    11    12   ar
    12    12    13   ar
    13    13    14    1
    14    14    15   ar
    15    15    16   ar
    16    16    17   ar
    17    17    18   ar
    18    18    19    1
    19    19    20    1
    20    20    21    2
    21    20    22    2
    22    20    23    1
    23    23    24    1
    24    24    25    1
    25    25    26    1
    26    26    27    1
    27    27    28    1
    28    18    29   ar
    29    13    30   ar
    30    30    31   ar
    31     5    32    1
    32    32    33    1
    33    33     2    1
    34     9     7    1
    35    31    10   ar
    36    29    14   ar
    37    28    23    1
    38     1    34    1
    39     1    35    1
    40     2    36    1
    41     3    37    1
    42     3    38    1
    43     4    39    1
    44     4    40    1
    45     5    41    1
    46     6    42    1
    47     7    43    1
    48     8    44    1
    49     8    45    1
    50     9    46    1
    51    11    47    1
    52    12    48    1
    53    15    49    1
    54    16    50    1
    55    17    51    1
    56    19    52    1
    57    24    53    1
    58    24    54    1
    59    25    55    1
    60    25    56    1
    61    26    57    1
    62    27    58    1
    63    27    59    1
    64    28    60    1
    65    28    61    1
    66    29    62    1
    67    30    63    1
    68    31    64    1
    69    32    65    1
    70    32    66    1
    71    33    67    1
    72    33    68    1
