@<TRIPOS>MOLECULE
*****
 32 34 0 0 0
SMALL
GASTEIGER

@<TRIPOS>ATOM
      1 O          -1.2258    2.5743   -1.0854 O.2     1  UNL1       -0.2917
      2 C          -1.0767    1.3477   -1.1822 C.2     1  UNL1        0.1740
      3 C          -0.2139    0.7048   -2.2096 C.3     1  UNL1        0.0520
      4 C           0.4635   -0.5198   -1.6913 C.3     1  UNL1        0.1322
      5 C           1.6478   -0.2611   -0.8438 C.ar    1  UNL1       -0.0067
      6 C           2.2482   -1.3304   -0.1828 C.ar    1  UNL1       -0.0516
      7 C           3.3512   -1.1704    0.6252 C.ar    1  UNL1       -0.0198
      8 C           3.8996    0.0737    0.8043 C.ar    1  UNL1        0.1169
      9 O           5.0074    0.2739    1.6082 O.3     1  UNL1       -0.5068
     10 C           3.3255    1.1404    0.1638 C.ar    1  UNL1       -0.0198
     11 C           2.2127    0.9707   -0.6497 C.ar    1  UNL1       -0.0516
     12 O          -0.4429   -1.3640   -0.9902 O.3     1  UNL1       -0.4828
     13 C          -1.4425   -0.8664   -0.1778 C.ar    1  UNL1        0.1389
     14 C          -2.0992   -1.7321    0.7078 C.ar    1  UNL1        0.0225
     15 C          -3.0988   -1.2486    1.5243 C.ar    1  UNL1        0.1238
     16 O          -3.7623   -2.0727    2.4042 O.3     1  UNL1       -0.5065
     17 C          -3.4213    0.0881    1.4394 C.ar    1  UNL1        0.0222
     18 C          -2.7852    0.9500    0.5746 C.ar    1  UNL1        0.1343
     19 O          -3.0933    2.2980    0.4724 O.3     1  UNL1       -0.5058
     20 C          -1.7693    0.4615   -0.2562 C.ar    1  UNL1        0.1007
     21 H          -0.8498    0.4114   -3.0793 H       1  UNL1        0.0385
     22 H           0.5043    1.4285   -2.5704 H       1  UNL1        0.0385
     23 H           0.8054   -1.1220   -2.5774 H       1  UNL1        0.0789
     24 H           1.8134   -2.3225   -0.3237 H       1  UNL1        0.0623
     25 H           3.7810   -2.0306    1.1165 H       1  UNL1        0.0654
     26 H           5.1048    1.1177    2.1631 H       1  UNL1        0.2921
     27 H           3.7644    2.1320    0.3080 H       1  UNL1        0.0654
     28 H           1.8179    1.8465   -1.1154 H       1  UNL1        0.0623
     29 H          -1.8251   -2.7785    0.7536 H       1  UNL1        0.0691
     30 H          -4.7664   -2.0941    2.5201 H       1  UNL1        0.2921
     31 H          -4.2017    0.4996    2.0668 H       1  UNL1        0.0691
     32 H          -3.6729    2.5945   -0.3169 H       1  UNL1        0.2922
@<TRIPOS>BOND
     1     1     2    2
     2     2     3    1
     3     3     4    1
     4     4     5    1
     5     5     6   ar
     6     6     7   ar
     7     7     8   ar
     8     8     9    1
     9     8    10   ar
    10    10    11   ar
    11     4    12    1
    12    12    13    1
    13    13    14   ar
    14    14    15   ar
    15    15    16    1
    16    15    17   ar
    17    17    18   ar
    18    18    19    1
    19    18    20   ar
    20    20     2    1
    21    11     5   ar
    22    20    13   ar
    23     3    21    1
    24     3    22    1
    25     4    23    1
    26     6    24    1
    27     7    25    1
    28     9    26    1
    29    10    27    1
    30    11    28    1
    31    14    29    1
    32    16    30    1
    33    17    31    1
    34    19    32    1
