
     RDKit          3D

 32 34  0  0  0  0  0  0  0  0999 V2000
   -1.2258    2.5743   -1.0854 O   0  0  0  0  0  0  0  0  0  0  0  0
   -1.0767    1.3477   -1.1822 C   0  0  0  0  0  0  0  0  0  0  0  0
   -0.2139    0.7048   -2.2096 C   0  0  0  0  0  0  0  0  0  0  0  0
    0.4635   -0.5198   -1.6913 C   0  0  1  0  0  0  0  0  0  0  0  0
    1.6478   -0.2611   -0.8438 C   0  0  0  0  0  0  0  0  0  0  0  0
    2.2482   -1.3304   -0.1828 C   0  0  0  0  0  0  0  0  0  0  0  0
    3.3512   -1.1704    0.6252 C   0  0  0  0  0  0  0  0  0  0  0  0
    3.8996    0.0737    0.8043 C   0  0  0  0  0  0  0  0  0  0  0  0
    5.0074    0.2739    1.6082 O   0  0  0  0  0  0  0  0  0  0  0  0
    3.3255    1.1404    0.1638 C   0  0  0  0  0  0  0  0  0  0  0  0
    2.2127    0.9707   -0.6497 C   0  0  0  0  0  0  0  0  0  0  0  0
   -0.4429   -1.3640   -0.9902 O   0  0  0  0  0  0  0  0  0  0  0  0
   -1.4425   -0.8664   -0.1778 C   0  0  0  0  0  0  0  0  0  0  0  0
   -2.0992   -1.7321    0.7078 C   0  0  0  0  0  0  0  0  0  0  0  0
   -3.0988   -1.2486    1.5243 C   0  0  0  0  0  0  0  0  0  0  0  0
   -3.7623   -2.0727    2.4042 O   0  0  0  0  0  0  0  0  0  0  0  0
   -3.4213    0.0881    1.4394 C   0  0  0  0  0  0  0  0  0  0  0  0
   -2.7852    0.9500    0.5746 C   0  0  0  0  0  0  0  0  0  0  0  0
   -3.0933    2.2980    0.4724 O   0  0  0  0  0  0  0  0  0  0  0  0
   -1.7693    0.4615   -0.2562 C   0  0  0  0  0  0  0  0  0  0  0  0
   -0.8498    0.4114   -3.0793 H   0  0  0  0  0  0  0  0  0  0  0  0
    0.5043    1.4285   -2.5704 H   0  0  0  0  0  0  0  0  0  0  0  0
    0.8054   -1.1220   -2.5774 H   0  0  0  0  0  0  0  0  0  0  0  0
    1.8134   -2.3225   -0.3237 H   0  0  0  0  0  0  0  0  0  0  0  0
    3.7810   -2.0306    1.1165 H   0  0  0  0  0  0  0  0  0  0  0  0
    5.1048    1.1177    2.1631 H   0  0  0  0  0  0  0  0  0  0  0  0
    3.7644    2.1320    0.3080 H   0  0  0  0  0  0  0  0  0  0  0  0
    1.8179    1.8465   -1.1154 H   0  0  0  0  0  0  0  0  0  0  0  0
   -1.8251   -2.7785    0.7536 H   0  0  0  0  0  0  0  0  0  0  0  0
   -4.7664   -2.0941    2.5201 H   0  0  0  0  0  0  0  0  0  0  0  0
   -4.2017    0.4996    2.0668 H   0  0  0  0  0  0  0  0  0  0  0  0
   -3.6729    2.5945   -0.3169 H   0  0  0  0  0  0  0  0  0  0  0  0
  1  2  2  0
  2  3  1  0
  3  4  1  0
  4  5  1  0
  5  6  2  0
  6  7  1  0
  7  8  2  0
  8  9  1  0
  8 10  1  0
 10 11  2  0
  4 12  1  0
 12 13  1  0
 13 14  2  0
 14 15  1  0
 15 16  1  0
 15 17  2  0
 17 18  1  0
 18 19  1  0
 18 20  2  0
 20  2  1  0
 11  5  1  0
 20 13  1  0
  3 21  1  0
  3 22  1  0
  4 23  1  6
  6 24  1  0
  7 25  1  0
  9 26  1  0
 10 27  1  0
 11 28  1  0
 14 29  1  0
 16 30  1  0
 17 31  1  0
 19 32  1  0
M  END
$$$$
