@<TRIPOS>MOLECULE
*****
 49 51 0 0 0
SMALL
GASTEIGER

@<TRIPOS>ATOM
      1 O           6.3395   -1.1806    0.8535 O.co2   1  UNL1       -0.6195
      2 N           6.3302    0.0071    0.1446 N.ar    1  UNL1       -0.1695
      3 C           7.5469    0.3853   -0.2870 C.ar    1  UNL1        0.1833
      4 C           7.6793    1.5699   -1.0182 C.ar    1  UNL1        0.0034
      5 C           6.5584    2.3436   -1.2921 C.ar    1  UNL1       -0.0500
      6 C           5.3343    1.9267   -0.8360 C.ar    1  UNL1        0.0129
      7 C           5.2390    0.7555   -0.1190 C.ar    1  UNL1        0.2663
      8 C           3.9800    0.1656    0.4472 C.3     1  UNL1        0.3467
      9 F           4.1001    0.1362    1.8331 F       1  UNL1       -0.1920
     10 F           3.8305   -1.1124   -0.0087 F       1  UNL1       -0.1920
     11 C           2.8106    1.0435    0.1210 C.3     1  UNL1        0.0845
     12 N           1.6094    0.4597    0.6778 N.pl3   1  UNL1       -0.3185
     13 C           0.9541   -0.7522    0.3399 C.ar    1  UNL1        0.1846
     14 N           1.3738   -1.5874   -0.6232 N.ar    1  UNL1       -0.2325
     15 C           0.7564   -2.7310   -0.9571 C.ar    1  UNL1        0.0650
     16 C          -0.3846   -3.0683   -0.2631 C.ar    1  UNL1        0.1308
     17 CL         -1.2044   -4.5424   -0.6734 Cl      1  UNL1       -0.0621
     18 N          -0.8519   -2.2701    0.7120 N.ar    1  UNL1       -0.2862
     19 C          -2.0459   -2.5848    1.4646 C.3     1  UNL1        0.1038
     20 C          -3.2690   -2.0599    0.8836 C.2     1  UNL1        0.2332
     21 O          -4.3136   -2.3141    1.5256 O.2     1  UNL1       -0.2738
     22 N          -3.4347   -1.3205   -0.2779 N.am    1  UNL1       -0.3096
     23 C          -4.4481   -0.6862   -1.0763 C.3     1  UNL1        0.0396
     24 C          -5.1763    0.3955   -0.4024 C.ar    1  UNL1        0.0048
     25 C          -6.2242    0.3992    0.4809 C.ar    1  UNL1        0.1281
     26 F          -6.7378   -0.8117    0.7719 F       1  UNL1       -0.2051
     27 C          -6.7578    1.5370    1.0334 C.ar    1  UNL1       -0.0261
     28 C          -6.2564    2.7793    0.7220 C.ar    1  UNL1       -0.0590
     29 C          -5.2020    2.8458   -0.1618 C.ar    1  UNL1       -0.0613
     30 C          -4.7030    1.6790   -0.6872 C.ar    1  UNL1       -0.0543
     31 C          -0.1963   -1.1374    1.0062 C.ar    1  UNL1        0.2927
     32 O          -0.6470   -0.3929    1.9280 O.2     1  UNL1       -0.2639
     33 H           8.4659   -0.1835   -0.1017 H       1  UNL1        0.1389
     34 H           8.6245    1.9131   -1.3829 H       1  UNL1        0.0677
     35 H           6.5744    3.2664   -1.8467 H       1  UNL1        0.0621
     36 H           4.3862    2.4103   -0.9653 H       1  UNL1        0.0682
     37 H           2.7160    1.1704   -0.9910 H       1  UNL1        0.0526
     38 H           3.0155    2.0428    0.5448 H       1  UNL1        0.0526
     39 H           1.1602    1.0342    1.4556 H       1  UNL1        0.1478
     40 H           1.1836   -3.3227   -1.7468 H       1  UNL1        0.0860
     41 H          -1.9080   -2.1806    2.4877 H       1  UNL1        0.0589
     42 H          -2.0668   -3.6990    1.5974 H       1  UNL1        0.0589
     43 H          -2.4668   -1.1904   -0.7044 H       1  UNL1        0.1491
     44 H          -4.0636   -0.3343   -2.0497 H       1  UNL1        0.0512
     45 H          -5.2035   -1.4914   -1.3974 H       1  UNL1        0.0512
     46 H          -7.5895    1.4025    1.7235 H       1  UNL1        0.0646
     47 H          -6.7386    3.6134    1.2041 H       1  UNL1        0.0618
     48 H          -4.8096    3.8229   -0.4053 H       1  UNL1        0.0618
     49 H          -3.8692    1.8489   -1.3754 H       1  UNL1        0.0622
@<TRIPOS>UNITY_ATOM_ATTR
1 1
charge -1
2 1
charge 1
@<TRIPOS>BOND
     1     1     2    1
     2     2     3   ar
     3     3     4   ar
     4     4     5   ar
     5     5     6   ar
     6     6     7   ar
     7     7     8    1
     8     8     9    1
     9     8    10    1
    10     8    11    1
    11    11    12    1
    12    12    13    1
    13    13    14   ar
    14    14    15   ar
    15    15    16   ar
    16    16    17    1
    17    16    18   ar
    18    18    19    1
    19    19    20    1
    20    20    21    2
    21    20    22   am
    22    22    23    1
    23    23    24    1
    24    24    25   ar
    25    25    26    1
    26    25    27   ar
    27    27    28   ar
    28    28    29   ar
    29    29    30   ar
    30    18    31   ar
    31    31    32    2
    32     7     2   ar
    33    31    13   ar
    34    30    24   ar
    35     3    33    1
    36     4    34    1
    37     5    35    1
    38     6    36    1
    39    11    37    1
    40    11    38    1
    41    12    39    1
    42    15    40    1
    43    19    41    1
    44    19    42    1
    45    22    43    1
    46    23    44    1
    47    23    45    1
    48    27    46    1
    49    28    47    1
    50    29    48    1
    51    30    49    1
