
     RDKit          3D

 49 51  0  0  0  0  0  0  0  0999 V2000
    6.3395   -1.1806    0.8535 O   0  0  0  0  0  1  0  0  0  0  0  0
    6.3302    0.0071    0.1446 N   0  0  0  0  0  4  0  0  0  0  0  0
    7.5469    0.3853   -0.2870 C   0  0  0  0  0  0  0  0  0  0  0  0
    7.6793    1.5699   -1.0182 C   0  0  0  0  0  0  0  0  0  0  0  0
    6.5584    2.3436   -1.2921 C   0  0  0  0  0  0  0  0  0  0  0  0
    5.3343    1.9267   -0.8360 C   0  0  0  0  0  0  0  0  0  0  0  0
    5.2390    0.7555   -0.1190 C   0  0  0  0  0  0  0  0  0  0  0  0
    3.9800    0.1656    0.4472 C   0  0  0  0  0  0  0  0  0  0  0  0
    4.1001    0.1362    1.8331 F   0  0  0  0  0  0  0  0  0  0  0  0
    3.8305   -1.1124   -0.0087 F   0  0  0  0  0  0  0  0  0  0  0  0
    2.8106    1.0435    0.1210 C   0  0  0  0  0  0  0  0  0  0  0  0
    1.6094    0.4597    0.6778 N   0  0  0  0  0  0  0  0  0  0  0  0
    0.9541   -0.7522    0.3399 C   0  0  0  0  0  0  0  0  0  0  0  0
    1.3738   -1.5874   -0.6232 N   0  0  0  0  0  0  0  0  0  0  0  0
    0.7564   -2.7310   -0.9571 C   0  0  0  0  0  0  0  0  0  0  0  0
   -0.3846   -3.0683   -0.2631 C   0  0  0  0  0  0  0  0  0  0  0  0
   -1.2044   -4.5424   -0.6734 Cl  0  0  0  0  0  0  0  0  0  0  0  0
   -0.8519   -2.2701    0.7120 N   0  0  0  0  0  0  0  0  0  0  0  0
   -2.0459   -2.5848    1.4646 C   0  0  0  0  0  0  0  0  0  0  0  0
   -3.2690   -2.0599    0.8836 C   0  0  0  0  0  0  0  0  0  0  0  0
   -4.3136   -2.3141    1.5256 O   0  0  0  0  0  0  0  0  0  0  0  0
   -3.4347   -1.3205   -0.2779 N   0  0  0  0  0  0  0  0  0  0  0  0
   -4.4481   -0.6862   -1.0763 C   0  0  0  0  0  0  0  0  0  0  0  0
   -5.1763    0.3955   -0.4024 C   0  0  0  0  0  0  0  0  0  0  0  0
   -6.2242    0.3992    0.4809 C   0  0  0  0  0  0  0  0  0  0  0  0
   -6.7378   -0.8117    0.7719 F   0  0  0  0  0  0  0  0  0  0  0  0
   -6.7578    1.5370    1.0334 C   0  0  0  0  0  0  0  0  0  0  0  0
   -6.2564    2.7793    0.7220 C   0  0  0  0  0  0  0  0  0  0  0  0
   -5.2020    2.8458   -0.1618 C   0  0  0  0  0  0  0  0  0  0  0  0
   -4.7030    1.6790   -0.6872 C   0  0  0  0  0  0  0  0  0  0  0  0
   -0.1963   -1.1374    1.0062 C   0  0  0  0  0  0  0  0  0  0  0  0
   -0.6470   -0.3929    1.9280 O   0  0  0  0  0  0  0  0  0  0  0  0
    8.4659   -0.1835   -0.1017 H   0  0  0  0  0  0  0  0  0  0  0  0
    8.6245    1.9131   -1.3829 H   0  0  0  0  0  0  0  0  0  0  0  0
    6.5744    3.2664   -1.8467 H   0  0  0  0  0  0  0  0  0  0  0  0
    4.3862    2.4103   -0.9653 H   0  0  0  0  0  0  0  0  0  0  0  0
    2.7160    1.1704   -0.9910 H   0  0  0  0  0  0  0  0  0  0  0  0
    3.0155    2.0428    0.5448 H   0  0  0  0  0  0  0  0  0  0  0  0
    1.1602    1.0342    1.4556 H   0  0  0  0  0  0  0  0  0  0  0  0
    1.1836   -3.3227   -1.7468 H   0  0  0  0  0  0  0  0  0  0  0  0
   -1.9080   -2.1806    2.4877 H   0  0  0  0  0  0  0  0  0  0  0  0
   -2.0668   -3.6990    1.5974 H   0  0  0  0  0  0  0  0  0  0  0  0
   -2.4668   -1.1904   -0.7044 H   0  0  0  0  0  0  0  0  0  0  0  0
   -4.0636   -0.3343   -2.0497 H   0  0  0  0  0  0  0  0  0  0  0  0
   -5.2035   -1.4914   -1.3974 H   0  0  0  0  0  0  0  0  0  0  0  0
   -7.5895    1.4025    1.7235 H   0  0  0  0  0  0  0  0  0  0  0  0
   -6.7386    3.6134    1.2041 H   0  0  0  0  0  0  0  0  0  0  0  0
   -4.8096    3.8229   -0.4053 H   0  0  0  0  0  0  0  0  0  0  0  0
   -3.8692    1.8489   -1.3754 H   0  0  0  0  0  0  0  0  0  0  0  0
  1  2  1  0
  2  3  2  0
  3  4  1  0
  4  5  2  0
  5  6  1  0
  6  7  2  0
  7  8  1  0
  8  9  1  0
  8 10  1  0
  8 11  1  0
 11 12  1  0
 12 13  1  0
 13 14  2  0
 14 15  1  0
 15 16  2  0
 16 17  1  0
 16 18  1  0
 18 19  1  0
 19 20  1  0
 20 21  2  0
 20 22  1  0
 22 23  1  0
 23 24  1  0
 24 25  2  0
 25 26  1  0
 25 27  1  0
 27 28  2  0
 28 29  1  0
 29 30  2  0
 18 31  1  0
 31 32  2  0
  7  2  1  0
 31 13  1  0
 30 24  1  0
  3 33  1  0
  4 34  1  0
  5 35  1  0
  6 36  1  0
 11 37  1  0
 11 38  1  0
 12 39  1  0
 15 40  1  0
 19 41  1  0
 19 42  1  0
 22 43  1  0
 23 44  1  0
 23 45  1  0
 27 46  1  0
 28 47  1  0
 29 48  1  0
 30 49  1  0
M  CHG  2   1  -1   2   1
M  END
$$$$
