
     RDKit          3D

 50 54  0  0  0  0  0  0  0  0999 V2000
   -7.4697    0.9591    0.4045 C   0  0  0  0  0  0  0  0  0  0  0  0
   -6.0871    1.3378    0.2322 N   0  0  0  0  0  0  0  0  0  0  0  0
   -5.0329    0.5233    0.7347 C   0  0  0  0  0  0  0  0  0  0  0  0
   -5.3373   -0.5354    1.3335 O   0  0  0  0  0  0  0  0  0  0  0  0
   -3.6581    1.0002    0.5048 C   0  0  1  0  0  0  0  0  0  0  0  0
   -3.2896    2.3052    1.0706 C   0  0  0  0  0  0  0  0  0  0  0  0
   -2.6088    1.0063    1.5268 C   0  0  2  0  0  0  0  0  0  0  0  0
   -1.2653    0.7893    0.8679 C   0  0  1  0  0  0  0  0  0  0  0  0
   -0.7438   -0.5243    1.1081 N   0  0  0  0  0  0  0  0  0  0  0  0
   -1.3365   -1.5800    1.6769 C   0  0  0  0  0  0  0  0  0  0  0  0
   -0.4552   -2.6204    1.6895 N   0  0  0  0  0  0  0  0  0  0  0  0
    0.6977   -2.2247    1.1286 C   0  0  0  0  0  0  0  0  0  0  0  0
    1.9032   -2.8435    0.8820 C   0  0  0  0  0  0  0  0  0  0  0  0
    2.1513   -4.1969    1.2353 N   0  0  0  0  0  0  0  0  0  0  0  0
    3.4194   -4.8091    0.9628 C   0  0  0  0  0  0  0  0  0  0  0  0
    2.8774   -2.1324    0.2849 N   0  0  0  0  0  0  0  0  0  0  0  0
    2.7114   -0.8450   -0.0761 C   0  0  0  0  0  0  0  0  0  0  0  0
    3.7866   -0.1249   -0.7105 C   0  0  0  0  0  0  0  0  0  0  0  0
    4.6964    0.4679   -1.2262 C   0  0  0  0  0  0  0  0  0  0  0  0
    5.8054    1.1939   -1.8283 C   0  0  0  0  0  0  0  0  0  0  0  0
    7.1013    1.3631   -1.3799 C   0  0  0  0  0  0  0  0  0  0  0  0
    7.9463    2.0758   -2.1110 C   0  0  0  0  0  0  0  0  0  0  0  0
    7.6010    2.6525   -3.2874 C   0  0  0  0  0  0  0  0  0  0  0  0
    8.3428    3.5873   -4.4553 Cl  0  0  0  0  0  0  0  0  0  0  0  0
    5.8065    2.0939   -3.3572 S   0  0  0  0  0  0  0  0  0  0  0  0
    1.5166   -0.2580    0.1766 N   0  0  0  0  0  0  0  0  0  0  0  0
    0.4971   -0.9056    0.7699 C   0  0  0  0  0  0  0  0  0  0  0  0
   -1.5569    0.9238   -0.6281 C   0  0  2  0  0  0  0  0  0  0  0  0
   -1.3303    2.1877   -1.1139 O   0  0  0  0  0  0  0  0  0  0  0  0
   -2.9710    0.4479   -0.7267 C   0  0  2  0  0  0  0  0  0  0  0  0
   -3.6151    0.7522   -1.8999 O   0  0  0  0  0  0  0  0  0  0  0  0
   -8.1019    1.8882    0.4240 H   0  0  0  0  0  0  0  0  0  0  0  0
   -7.6499    0.4108    1.3394 H   0  0  0  0  0  0  0  0  0  0  0  0
   -7.7851    0.3063   -0.4578 H   0  0  0  0  0  0  0  0  0  0  0  0
   -5.8867    2.2350   -0.2781 H   0  0  0  0  0  0  0  0  0  0  0  0
   -2.6986    3.0666    0.5538 H   0  0  0  0  0  0  0  0  0  0  0  0
   -3.9862    2.7221    1.8313 H   0  0  0  0  0  0  0  0  0  0  0  0
   -2.7793    0.6748    2.5577 H   0  0  0  0  0  0  0  0  0  0  0  0
   -0.5110    1.5317    1.2058 H   0  0  0  0  0  0  0  0  0  0  0  0
   -2.3475   -1.5743    2.0520 H   0  0  0  0  0  0  0  0  0  0  0  0
    1.3824   -4.7466    1.7055 H   0  0  0  0  0  0  0  0  0  0  0  0
    3.9498   -4.1793    0.2079 H   0  0  0  0  0  0  0  0  0  0  0  0
    3.9919   -4.8598    1.8992 H   0  0  0  0  0  0  0  0  0  0  0  0
    3.2695   -5.8394    0.5290 H   0  0  0  0  0  0  0  0  0  0  0  0
    7.3662    0.8789   -0.4064 H   0  0  0  0  0  0  0  0  0  0  0  0
    9.0327    2.2452   -1.7828 H   0  0  0  0  0  0  0  0  0  0  0  0
   -0.9241    0.1579   -1.1640 H   0  0  0  0  0  0  0  0  0  0  0  0
   -0.4235    2.4604   -0.8753 H   0  0  0  0  0  0  0  0  0  0  0  0
   -2.9529   -0.6741   -0.5833 H   0  0  0  0  0  0  0  0  0  0  0  0
   -3.0487    1.2287   -2.5471 H   0  0  0  0  0  0  0  0  0  0  0  0
  1  2  1  0
  2  3  1  0
  3  4  2  0
  5  3  1  1
  5  6  1  0
  6  7  1  0
  7  8  1  0
  8  9  1  0
  9 10  1  0
 10 11  2  0
 11 12  1  0
 12 13  2  0
 13 14  1  0
 14 15  1  0
 13 16  1  0
 16 17  2  0
 17 18  1  0
 18 19  3  0
 19 20  1  0
 20 21  2  0
 21 22  1  0
 22 23  2  0
 23 24  1  0
 23 25  1  0
 17 26  1  0
 26 27  2  0
  8 28  1  0
 28 29  1  0
 28 30  1  0
 30 31  1  0
  7  5  1  0
 27  9  1  0
 30  5  1  0
 27 12  1  0
 25 20  1  0
  1 32  1  0
  1 33  1  0
  1 34  1  0
  2 35  1  0
  6 36  1  0
  6 37  1  0
  7 38  1  1
  8 39  1  1
 10 40  1  0
 14 41  1  0
 15 42  1  0
 15 43  1  0
 15 44  1  0
 21 45  1  0
 22 46  1  0
 28 47  1  6
 29 48  1  0
 30 49  1  1
 31 50  1  0
M  END
$$$$
