@<TRIPOS>MOLECULE
*****
 50 54 0 0 0
SMALL
GASTEIGER

@<TRIPOS>ATOM
      1 C          -7.4697    0.9591    0.4045 C.3     1  UNL1        0.0001
      2 N          -6.0871    1.3378    0.2322 N.am    1  UNL1       -0.3178
      3 C          -5.0329    0.5233    0.7347 C.2     1  UNL1        0.2219
      4 O          -5.3373   -0.5354    1.3335 O.2     1  UNL1       -0.2751
      5 C          -3.6581    1.0002    0.5048 C.3     1  UNL1        0.0803
      6 C          -3.2896    2.3052    1.0706 C.3     1  UNL1       -0.0304
      7 C          -2.6088    1.0063    1.5268 C.3     1  UNL1       -0.0001
      8 C          -1.2653    0.7893    0.8679 C.3     1  UNL1        0.0695
      9 N          -0.7438   -0.5243    1.1081 N.ar    1  UNL1       -0.3089
     10 C          -1.3365   -1.5800    1.6769 C.ar    1  UNL1        0.0987
     11 N          -0.4552   -2.6204    1.6895 N.ar    1  UNL1       -0.2306
     12 C           0.6977   -2.2247    1.1286 C.ar    1  UNL1        0.1475
     13 C           1.9032   -2.8435    0.8820 C.ar    1  UNL1        0.1508
     14 N           2.1513   -4.1969    1.2353 N.pl3   1  UNL1       -0.3303
     15 C           3.4194   -4.8091    0.9628 C.3     1  UNL1       -0.0010
     16 N           2.8774   -2.1324    0.2849 N.ar    1  UNL1       -0.2031
     17 C           2.7114   -0.8450   -0.0761 C.ar    1  UNL1        0.2093
     18 C           3.7866   -0.1249   -0.7105 C.1     1  UNL1       -0.0205
     19 C           4.6964    0.4679   -1.2262 C.1     1  UNL1       -0.0508
     20 C           5.8054    1.1939   -1.8283 C.ar    1  UNL1        0.0638
     21 C           7.1013    1.3631   -1.3799 C.ar    1  UNL1       -0.0377
     22 C           7.9463    2.0758   -2.1110 C.ar    1  UNL1       -0.0350
     23 C           7.6010    2.6525   -3.2874 C.ar    1  UNL1        0.0792
     24 CL          8.3428    3.5873   -4.4553 Cl      1  UNL1       -0.0758
     25 S           5.8065    2.0939   -3.3572 S.2     1  UNL1       -0.0684
     26 N           1.5166   -0.2580    0.1766 N.ar    1  UNL1       -0.2004
     27 C           0.4971   -0.9056    0.7699 C.ar    1  UNL1        0.1669
     28 C          -1.5569    0.9238   -0.6281 C.3     1  UNL1        0.1030
     29 O          -1.3303    2.1877   -1.1139 O.3     1  UNL1       -0.3871
     30 C          -2.9710    0.4479   -0.7267 C.3     1  UNL1        0.0972
     31 O          -3.6151    0.7522   -1.8999 O.3     1  UNL1       -0.3881
     32 H          -8.1019    1.8882    0.4240 H       1  UNL1        0.0426
     33 H          -7.6499    0.4108    1.3394 H       1  UNL1        0.0426
     34 H          -7.7851    0.3063   -0.4578 H       1  UNL1        0.0426
     35 H          -5.8867    2.2350   -0.2781 H       1  UNL1        0.1484
     36 H          -2.6986    3.0666    0.5538 H       1  UNL1        0.0280
     37 H          -3.9862    2.7221    1.8313 H       1  UNL1        0.0280
     38 H          -2.7793    0.6748    2.5577 H       1  UNL1        0.0333
     39 H          -0.5110    1.5317    1.2058 H       1  UNL1        0.0558
     40 H          -2.3475   -1.5743    2.0520 H       1  UNL1        0.1029
     41 H           1.3824   -4.7466    1.7055 H       1  UNL1        0.1472
     42 H           3.9498   -4.1793    0.2079 H       1  UNL1        0.0426
     43 H           3.9919   -4.8598    1.8992 H       1  UNL1        0.0426
     44 H           3.2695   -5.8394    0.5290 H       1  UNL1        0.0426
     45 H           7.3662    0.8789   -0.4064 H       1  UNL1        0.0636
     46 H           9.0327    2.2452   -1.7828 H       1  UNL1        0.0638
     47 H          -0.9241    0.1579   -1.1640 H       1  UNL1        0.0640
     48 H          -0.4235    2.4604   -0.8753 H       1  UNL1        0.2100
     49 H          -2.9529   -0.6741   -0.5833 H       1  UNL1        0.0630
     50 H          -3.0487    1.2287   -2.5471 H       1  UNL1        0.2099
@<TRIPOS>BOND
     1     1     2    1
     2     2     3   am
     3     3     4    2
     4     5     3    1
     5     5     6    1
     6     6     7    1
     7     7     8    1
     8     8     9    1
     9     9    10   ar
    10    10    11   ar
    11    11    12   ar
    12    12    13   ar
    13    13    14    1
    14    14    15    1
    15    13    16   ar
    16    16    17   ar
    17    17    18    1
    18    18    19    3
    19    19    20    1
    20    20    21   ar
    21    21    22   ar
    22    22    23   ar
    23    23    24    1
    24    23    25   ar
    25    17    26   ar
    26    26    27   ar
    27     8    28    1
    28    28    29    1
    29    28    30    1
    30    30    31    1
    31     7     5    1
    32    27     9   ar
    33    30     5    1
    34    27    12   ar
    35    25    20   ar
    36     1    32    1
    37     1    33    1
    38     1    34    1
    39     2    35    1
    40     6    36    1
    41     6    37    1
    42     7    38    1
    43     8    39    1
    44    10    40    1
    45    14    41    1
    46    15    42    1
    47    15    43    1
    48    15    44    1
    49    21    45    1
    50    22    46    1
    51    28    47    1
    52    29    48    1
    53    30    49    1
    54    31    50    1
