@<TRIPOS>MOLECULE
*****
 65 69 0 0 0
SMALL
GASTEIGER

@<TRIPOS>ATOM
      1 C          12.5855    0.3003   -0.5380 C.3     1  UNL1        0.0788
      2 O          11.7581    1.4424   -0.5048 O.3     1  UNL1       -0.4951
      3 C          10.3963    1.3298   -0.2842 C.ar    1  UNL1        0.1201
      4 C           9.8519    0.0546   -0.0968 C.ar    1  UNL1       -0.0192
      5 C           8.4787   -0.0488    0.1267 C.ar    1  UNL1       -0.0460
      6 C           7.6778    1.0748    0.1621 C.ar    1  UNL1        0.0387
      7 C           6.2518    0.9160    0.4263 C.ar    1  UNL1        0.2489
      8 N           5.2777    1.8382    0.4471 N.ar    1  UNL1       -0.1068
      9 N           4.1186    1.2736    0.7295 N.ar    1  UNL1       -0.1021
     10 C           4.3771   -0.0295    0.8879 C.ar    1  UNL1        0.3042
     11 C           3.3662   -1.0375    1.2173 C.2     1  UNL1        0.3035
     12 O           3.4272   -1.6272    2.3594 O.2     1  UNL1       -0.2647
     13 N           2.3090   -1.4204    0.3555 N.am    1  UNL1       -0.2865
     14 C           1.8572   -1.0390   -0.9534 C.3     1  UNL1        0.0538
     15 C           0.5186   -1.6015   -0.6635 C.3     1  UNL1        0.1314
     16 O          -0.3630   -0.7084   -0.0483 O.3     1  UNL1       -0.4857
     17 C          -1.7391   -0.8842    0.0683 C.ar    1  UNL1        0.1211
     18 C          -2.3377   -2.0343   -0.3892 C.ar    1  UNL1       -0.0196
     19 C          -3.7155   -2.1747   -0.2541 C.ar    1  UNL1       -0.0539
     20 C          -4.4868   -1.1952    0.3232 C.ar    1  UNL1       -0.0331
     21 C          -5.9478   -1.3274    0.4993 C.3     1  UNL1        0.0238
     22 N          -6.7593   -0.8966   -0.5490 N.3     1  UNL1       -0.3005
     23 C          -6.6015   -1.5035   -1.8114 C.3     1  UNL1       -0.0124
     24 C          -7.8019   -0.0077   -0.3442 C.3     1  UNL1        0.0085
     25 C          -7.4925    1.3942    0.0207 C.3     1  UNL1        0.0273
     26 C          -6.6650    2.1753   -0.9728 C.3     1  UNL1       -0.0542
     27 C          -7.3029    1.7501    1.4552 C.3     1  UNL1        0.0563
     28 O          -8.2427    2.7897    1.3967 O.3     1  UNL1       -0.3784
     29 C          -8.7912    2.1562    0.2981 C.3     1  UNL1        0.0563
     30 C          -3.8551   -0.0649    0.7661 C.ar    1  UNL1       -0.0539
     31 C          -2.5015    0.0891    0.6410 C.ar    1  UNL1       -0.0196
     32 C           1.2593   -2.3814    0.4355 C.3     1  UNL1        0.0538
     33 O           5.6630   -0.2272    0.7016 O.2     1  UNL1       -0.4123
     34 C           8.2362    2.2980   -0.0242 C.ar    1  UNL1       -0.0460
     35 C           9.6047    2.4529   -0.2509 C.ar    1  UNL1       -0.0192
     36 H          12.4005   -0.2916    0.4078 H       1  UNL1        0.0660
     37 H          12.3254   -0.3131   -1.4150 H       1  UNL1        0.0660
     38 H          13.6438    0.5636   -0.6421 H       1  UNL1        0.0660
     39 H          10.4857   -0.8187   -0.1275 H       1  UNL1        0.0654
     40 H           8.0162   -1.0036    0.2726 H       1  UNL1        0.0626
     41 H           1.8869    0.0601   -1.1572 H       1  UNL1        0.0502
     42 H           2.4142   -1.6044   -1.7625 H       1  UNL1        0.0502
     43 H           0.0552   -2.3033   -1.3977 H       1  UNL1        0.0765
     44 H          -1.7783   -2.8517   -0.8545 H       1  UNL1        0.0654
     45 H          -4.2207   -3.0612   -0.6000 H       1  UNL1        0.0622
     46 H          -6.2667   -0.9217    1.4834 H       1  UNL1        0.0476
     47 H          -6.1264   -2.4410    0.6192 H       1  UNL1        0.0476
     48 H          -7.5318   -1.3501   -2.4052 H       1  UNL1        0.0391
     49 H          -6.4674   -2.5998   -1.6845 H       1  UNL1        0.0391
     50 H          -5.7960   -1.0589   -2.4414 H       1  UNL1        0.0391
     51 H          -8.4700   -0.4135    0.4749 H       1  UNL1        0.0433
     52 H          -8.4830    0.0031   -1.2415 H       1  UNL1        0.0433
     53 H          -6.2671    1.5268   -1.7866 H       1  UNL1        0.0237
     54 H          -5.8669    2.6745   -0.3794 H       1  UNL1        0.0237
     55 H          -7.2270    2.9853   -1.4804 H       1  UNL1        0.0237
     56 H          -6.3120    2.2072    1.7045 H       1  UNL1        0.0566
     57 H          -7.6682    0.9865    2.1394 H       1  UNL1        0.0566
     58 H          -9.6269    1.4977    0.6213 H       1  UNL1        0.0566
     59 H          -9.0595    2.8597   -0.5134 H       1  UNL1        0.0566
     60 H          -4.4310    0.7297    1.2260 H       1  UNL1        0.0622
     61 H          -2.0280    0.9769    0.9890 H       1  UNL1        0.0654
     62 H           0.6879   -2.4190    1.3859 H       1  UNL1        0.0502
     63 H           1.5985   -3.3708    0.0609 H       1  UNL1        0.0502
     64 H           7.6616    3.1970   -0.0070 H       1  UNL1        0.0626
     65 H          10.0402    3.4284   -0.3943 H       1  UNL1        0.0654
@<TRIPOS>BOND
     1     1     2    1
     2     2     3    1
     3     3     4   ar
     4     4     5   ar
     5     5     6   ar
     6     6     7    1
     7     7     8   ar
     8     8     9   ar
     9     9    10   ar
    10    10    11    1
    11    11    12    2
    12    11    13   am
    13    13    14    1
    14    14    15    1
    15    15    16    1
    16    16    17    1
    17    17    18   ar
    18    18    19   ar
    19    19    20   ar
    20    20    21    1
    21    21    22    1
    22    22    23    1
    23    22    24    1
    24    24    25    1
    25    25    26    1
    26    25    27    1
    27    27    28    1
    28    28    29    1
    29    20    30   ar
    30    30    31   ar
    31    15    32    1
    32    10    33   ar
    33     6    34   ar
    34    34    35   ar
    35    35     3   ar
    36    33     7   ar
    37    32    13    1
    38    31    17   ar
    39    29    25    1
    40     1    36    1
    41     1    37    1
    42     1    38    1
    43     4    39    1
    44     5    40    1
    45    14    41    1
    46    14    42    1
    47    15    43    1
    48    18    44    1
    49    19    45    1
    50    21    46    1
    51    21    47    1
    52    23    48    1
    53    23    49    1
    54    23    50    1
    55    24    51    1
    56    24    52    1
    57    26    53    1
    58    26    54    1
    59    26    55    1
    60    27    56    1
    61    27    57    1
    62    29    58    1
    63    29    59    1
    64    30    60    1
    65    31    61    1
    66    32    62    1
    67    32    63    1
    68    34    64    1
    69    35    65    1
