@<TRIPOS>MOLECULE
*****
 48 53 0 0 0
SMALL
GASTEIGER

@<TRIPOS>ATOM
      1 C          -3.1087    0.3979   -2.8915 C.3     1  UNL1       -0.0203
      2 C          -2.8508   -0.1681   -1.5353 C.ar    1  UNL1        0.0660
      3 N          -3.7500   -0.7708   -0.7407 N.ar    1  UNL1       -0.1752
      4 N          -3.1937   -1.1647    0.3857 N.ar    1  UNL1       -0.2556
      5 C          -3.8335   -1.8554    1.5037 C.3     1  UNL1        0.0537
      6 C          -4.2998   -3.2344    1.3206 C.3     1  UNL1       -0.0285
      7 C          -5.3039   -2.1373    1.3775 C.3     1  UNL1       -0.0285
      8 C          -1.8773   -0.8331    0.3841 C.ar    1  UNL1        0.1297
      9 C          -1.6480   -0.2040   -0.8198 C.ar    1  UNL1        0.0305
     10 C          -0.2307    0.1817   -0.8844 C.3     1  UNL1        0.0867
     11 C          -0.0129    1.6505   -1.0754 C.ar    1  UNL1       -0.0220
     12 C          -1.0408    2.5675   -1.1188 C.ar    1  UNL1       -0.0551
     13 C          -0.7999    3.9239   -1.3267 C.ar    1  UNL1       -0.0431
     14 C           0.5057    4.3411   -1.4906 C.ar    1  UNL1        0.0410
     15 CL          0.8850    6.0487   -1.7582 Cl      1  UNL1       -0.0835
     16 C           1.5313    3.4158   -1.4457 C.ar    1  UNL1       -0.0431
     17 C           1.2900    2.0700   -1.2397 C.ar    1  UNL1       -0.0551
     18 N           0.3515   -0.2674    0.3395 N.am    1  UNL1       -0.2389
     19 C           1.7146   -0.1695    0.8059 C.ar    1  UNL1        0.1311
     20 C           2.0330    0.9116    1.5737 C.ar    1  UNL1       -0.0191
     21 C           3.3058    1.0742    2.0534 C.ar    1  UNL1       -0.0276
     22 C           4.2633    0.1423    1.7579 C.ar    1  UNL1        0.1316
     23 N           5.5811    0.0149    2.0704 N.ar    1  UNL1       -0.1278
     24 N           6.0374   -1.0925    1.5166 N.ar    1  UNL1       -0.0635
     25 N           5.0427   -1.6744    0.8585 N.ar    1  UNL1       -0.2297
     26 C           5.1980   -2.9086    0.1363 C.3     1  UNL1        0.0341
     27 C           3.9129   -0.9468    0.9756 C.ar    1  UNL1        0.1800
     28 N           2.6471   -1.0799    0.5164 N.ar    1  UNL1       -0.2109
     29 C          -0.6452   -0.8987    1.1545 C.2     1  UNL1        0.2711
     30 O          -0.5004   -1.4069    2.2966 O.2     1  UNL1       -0.2679
     31 H          -2.2063    0.9440   -3.2209 H       1  UNL1        0.0293
     32 H          -4.0329    0.9971   -2.9241 H       1  UNL1        0.0293
     33 H          -3.2612   -0.4290   -3.6401 H       1  UNL1        0.0293
     34 H          -3.5542   -1.4513    2.5129 H       1  UNL1        0.0545
     35 H          -4.2419   -4.0087    2.1117 H       1  UNL1        0.0286
     36 H          -4.1428   -3.6576    0.2888 H       1  UNL1        0.0286
     37 H          -5.7849   -1.7665    0.4681 H       1  UNL1        0.0286
     38 H          -5.9433   -2.1231    2.2916 H       1  UNL1        0.0286
     39 H           0.2729   -0.2771   -1.7809 H       1  UNL1        0.0606
     40 H          -2.0637    2.2455   -0.9835 H       1  UNL1        0.0621
     41 H          -1.5752    4.6551   -1.3652 H       1  UNL1        0.0632
     42 H           2.5692    3.7302   -1.5736 H       1  UNL1        0.0632
     43 H           2.1546    1.3879   -1.2266 H       1  UNL1        0.0621
     44 H           1.2936    1.6569    1.8179 H       1  UNL1        0.0653
     45 H           3.5921    1.9305    2.6717 H       1  UNL1        0.0642
     46 H           5.5700   -3.6682    0.8693 H       1  UNL1        0.0474
     47 H           5.9001   -2.8119   -0.7329 H       1  UNL1        0.0474
     48 H           4.2504   -3.2812   -0.2843 H       1  UNL1        0.0474
@<TRIPOS>BOND
     1     1     2    1
     2     2     3   ar
     3     3     4   ar
     4     4     5    1
     5     5     6    1
     6     6     7    1
     7     4     8   ar
     8     8     9   ar
     9     9    10    1
    10    10    11    1
    11    11    12   ar
    12    12    13   ar
    13    13    14   ar
    14    14    15    1
    15    14    16   ar
    16    16    17   ar
    17    10    18    1
    18    18    19    1
    19    19    20   ar
    20    20    21   ar
    21    21    22   ar
    22    22    23   ar
    23    23    24   ar
    24    24    25   ar
    25    25    26    1
    26    25    27   ar
    27    27    28   ar
    28    18    29   am
    29    29    30    2
    30     9     2   ar
    31    17    11   ar
    32    28    19   ar
    33     7     5    1
    34    29     8    1
    35    27    22   ar
    36     1    31    1
    37     1    32    1
    38     1    33    1
    39     5    34    1
    40     6    35    1
    41     6    36    1
    42     7    37    1
    43     7    38    1
    44    10    39    1
    45    12    40    1
    46    13    41    1
    47    16    42    1
    48    17    43    1
    49    20    44    1
    50    21    45    1
    51    26    46    1
    52    26    47    1
    53    26    48    1
