@<TRIPOS>MOLECULE
*****
 53 56 0 0 0
SMALL
GASTEIGER

@<TRIPOS>ATOM
      1 C          -4.6137    0.6623   -2.2545 C.3     1  UNL1       -0.0352
      2 C          -4.2040    0.4906   -0.7845 C.3     1  UNL1        0.0952
      3 C          -2.8962    1.2057   -0.6612 C.ar    1  UNL1        0.0197
      4 C          -1.7428    0.5131   -0.4075 C.ar    1  UNL1       -0.0321
      5 C          -0.4997    1.1619   -0.2877 C.ar    1  UNL1        0.0369
      6 N           0.6579    0.4135   -0.0273 N.am    1  UNL1       -0.2801
      7 C           1.9557    0.8959    0.1184 C.2     1  UNL1        0.2681
      8 O           2.1945    2.1202    0.0196 O.2     1  UNL1       -0.2681
      9 C           3.1037    0.0109    0.3922 C.ar    1  UNL1        0.1439
     10 C           4.3819    0.4957    0.5344 C.ar    1  UNL1        0.0619
     11 N           5.3931   -0.3452    0.7822 N.ar    1  UNL1       -0.2177
     12 C           5.2460   -1.6749    0.9067 C.ar    1  UNL1        0.2339
     13 O           6.2838   -2.5569    1.1637 O.3     1  UNL1       -0.4658
     14 C           7.5996   -2.0829    1.3110 C.3     1  UNL1        0.1668
     15 C           8.0165   -1.4128    0.0676 C.ar    1  UNL1        0.2333
     16 N           7.8804   -0.1102   -0.2247 N.ar    1  UNL1       -0.2189
     17 C           8.3732    0.1344   -1.4427 C.ar    1  UNL1        0.0660
     18 C           8.8297   -1.0775   -1.9110 C.ar    1  UNL1        0.1123
     19 O           8.5967   -1.9789   -0.9745 O.2     1  UNL1       -0.4446
     20 C           3.9341   -2.1449    0.7577 C.ar    1  UNL1        0.0899
     21 N           2.9112   -1.3115    0.5089 N.ar    1  UNL1       -0.2435
     22 C          -0.5449    2.5195   -0.4441 C.ar    1  UNL1       -0.0023
     23 C          -1.7328    3.2290   -0.7049 C.ar    1  UNL1        0.1605
     24 F          -1.7296    4.5725   -0.8523 F       1  UNL1       -0.2024
     25 C          -2.9328    2.5740   -0.8174 C.ar    1  UNL1        0.1640
     26 F          -4.1019    3.2083   -1.0671 F       1  UNL1       -0.2021
     27 C          -5.2520    1.0845    0.1000 C.3     1  UNL1        0.0223
     28 C          -6.0536    0.1147    0.8940 C.3     1  UNL1        0.1997
     29 C          -7.5292    0.4858    0.8080 C.3     1  UNL1        0.4266
     30 F          -7.9766    0.4606   -0.5052 F       1  UNL1       -0.1669
     31 F          -8.2131   -0.5064    1.5245 F       1  UNL1       -0.1669
     32 F          -7.7556    1.7275    1.3398 F       1  UNL1       -0.1669
     33 O          -5.9529   -1.2259    0.4616 O.2     1  UNL1       -0.4534
     34 C          -4.7588   -1.7226   -0.0207 C.2     1  UNL1        0.2765
     35 N          -4.5014   -3.1114    0.1583 N.pl3   1  UNL1       -0.3134
     36 N          -3.9664   -0.9053   -0.5939 N.2     1  UNL1       -0.2257
     37 H          -5.2723    1.5265   -2.3468 H       1  UNL1        0.0256
     38 H          -5.1864   -0.2331   -2.6089 H       1  UNL1        0.0256
     39 H          -3.7091    0.7020   -2.8999 H       1  UNL1        0.0256
     40 H          -1.7513   -0.5763   -0.2888 H       1  UNL1        0.0640
     41 H           0.5352   -0.6445    0.0707 H       1  UNL1        0.1552
     42 H           4.5722    1.5549    0.4464 H       1  UNL1        0.0854
     43 H           8.2932   -2.8906    1.6194 H       1  UNL1        0.0797
     44 H           7.5858   -1.3667    2.1812 H       1  UNL1        0.0797
     45 H           8.4434    1.0399   -2.0156 H       1  UNL1        0.0862
     46 H           9.2992   -1.3319   -2.8481 H       1  UNL1        0.1046
     47 H           3.8138   -3.2149    0.8576 H       1  UNL1        0.0884
     48 H           0.3538    3.1144   -0.3713 H       1  UNL1        0.0666
     49 H          -5.9471    1.7102   -0.5326 H       1  UNL1        0.0330
     50 H          -4.7916    1.8088    0.8349 H       1  UNL1        0.0330
     51 H          -5.8108    0.1784    1.9957 H       1  UNL1        0.0826
     52 H          -3.7520   -3.4800    0.7889 H       1  UNL1        0.1466
     53 H          -5.0760   -3.8105   -0.3545 H       1  UNL1        0.1466
@<TRIPOS>BOND
     1     2     1    1
     2     2     3    1
     3     3     4   ar
     4     4     5   ar
     5     5     6    1
     6     6     7   am
     7     7     8    2
     8     7     9    1
     9     9    10   ar
    10    10    11   ar
    11    11    12   ar
    12    12    13    1
    13    13    14    1
    14    14    15    1
    15    15    16   ar
    16    16    17   ar
    17    17    18   ar
    18    18    19   ar
    19    12    20   ar
    20    20    21   ar
    21     5    22   ar
    22    22    23   ar
    23    23    24    1
    24    23    25   ar
    25    25    26    1
    26     2    27    1
    27    27    28    1
    28    28    29    1
    29    29    30    1
    30    29    31    1
    31    29    32    1
    32    28    33    1
    33    33    34    1
    34    34    35    1
    35    34    36    2
    36    36     2    1
    37    25     3   ar
    38    21     9   ar
    39    19    15   ar
    40     1    37    1
    41     1    38    1
    42     1    39    1
    43     4    40    1
    44     6    41    1
    45    10    42    1
    46    14    43    1
    47    14    44    1
    48    17    45    1
    49    18    46    1
    50    20    47    1
    51    22    48    1
    52    27    49    1
    53    27    50    1
    54    28    51    1
    55    35    52    1
    56    35    53    1
