@<TRIPOS>MOLECULE
*****
 58 61 0 0 0
SMALL
GASTEIGER

@<TRIPOS>ATOM
      1 C           3.9893    0.0986   -0.2705 C.3     1  UNL1        0.0945
      2 C           4.1612    1.4349    0.3936 C.3     1  UNL1       -0.0235
      3 C           2.8554    2.1856    0.1040 C.3     1  UNL1       -0.0469
      4 C           1.9272    1.0395    0.3317 C.3     1  UNL1       -0.0297
      5 C           0.4859    1.2684    0.1052 C.3     1  UNL1       -0.0305
      6 C          -0.0084    2.2609    1.1125 C.3     1  UNL1       -0.0454
      7 C          -1.2478    1.8574    1.8451 C.3     1  UNL1       -0.0270
      8 C          -2.1909    1.0770    0.9837 C.ar    1  UNL1       -0.0401
      9 C          -1.6212    0.0701    0.2221 C.ar    1  UNL1       -0.0371
     10 C          -2.4542   -0.6750   -0.5870 C.ar    1  UNL1       -0.0125
     11 C          -3.8120   -0.4392   -0.6484 C.ar    1  UNL1        0.1647
     12 O          -4.6523   -1.1874   -1.4616 O.3     1  UNL1       -0.4913
     13 C          -4.2007   -2.2354   -2.2819 C.3     1  UNL1        0.0790
     14 C          -4.3720    0.5659    0.1136 C.ar    1  UNL1        0.1994
     15 O          -5.7559    0.8173    0.0606 O.3     1  UNL1       -0.3300
     16 S          -6.8360    0.0157    1.1322 S.O2    1  UNL1        0.1893
     17 N          -5.9357   -1.0213    2.1768 N.3     1  UNL1       -0.1739
     18 O          -7.6339    1.0005    1.9258 O.2     1  UNL1       -0.1191
     19 O          -7.7621   -0.8724    0.3194 O.2     1  UNL1       -0.1191
     20 C          -3.5412    1.3262    0.9354 C.ar    1  UNL1       -0.0099
     21 C          -0.1760   -0.0899    0.3663 C.3     1  UNL1       -0.0124
     22 C           0.4039   -1.1669   -0.5014 C.3     1  UNL1       -0.0454
     23 C           1.8823   -1.3112   -0.1682 C.3     1  UNL1       -0.0444
     24 C           2.5189   -0.0107   -0.5731 C.3     1  UNL1       -0.0004
     25 C           2.2802    0.2294   -2.0350 C.3     1  UNL1       -0.0569
     26 O           4.6725   -0.0644   -1.4297 O.3     1  UNL1       -0.2213
     27 S           5.6606   -1.3969   -1.5102 S.O2    1  UNL1        0.1487
     28 N           6.4038   -1.7937    0.0027 N.3     1  UNL1       -0.1833
     29 O           4.7912   -2.5713   -1.8741 O.2     1  UNL1       -0.1300
     30 O           6.6839   -1.2850   -2.6056 O.2     1  UNL1       -0.1300
     31 H           4.2233   -0.7333    0.4499 H       1  UNL1        0.0626
     32 H           5.0481    1.9840    0.1305 H       1  UNL1        0.0291
     33 H           4.1523    1.2660    1.4917 H       1  UNL1        0.0291
     34 H           2.7099    3.0499    0.7489 H       1  UNL1        0.0269
     35 H           2.8687    2.4118   -0.9749 H       1  UNL1        0.0269
     36 H           2.0548    0.6668    1.3684 H       1  UNL1        0.0310
     37 H           0.1933    1.6253   -0.8816 H       1  UNL1        0.0310
     38 H           0.7665    2.4668    1.9035 H       1  UNL1        0.0271
     39 H          -0.1885    3.2745    0.6524 H       1  UNL1        0.0271
     40 H          -1.7493    2.7858    2.2160 H       1  UNL1        0.0313
     41 H          -0.9404    1.2268    2.7181 H       1  UNL1        0.0313
     42 H          -1.9934   -1.4495   -1.1684 H       1  UNL1        0.0658
     43 H          -4.8933   -2.3256   -3.1618 H       1  UNL1        0.0660
     44 H          -4.2933   -3.2113   -1.7301 H       1  UNL1        0.0660
     45 H          -3.1896   -2.0944   -2.6891 H       1  UNL1        0.0660
     46 H          -6.0415   -2.0209    1.9572 H       1  UNL1        0.1472
     47 H          -6.1801   -0.8783    3.1820 H       1  UNL1        0.1472
     48 H          -3.9628    2.1185    1.5397 H       1  UNL1        0.0659
     49 H           0.0648   -0.3140    1.4264 H       1  UNL1        0.0352
     50 H           0.2337   -0.8895   -1.5442 H       1  UNL1        0.0271
     51 H          -0.0974   -2.1028   -0.2371 H       1  UNL1        0.0271
     52 H           1.9600   -1.4934    0.9155 H       1  UNL1        0.0272
     53 H           2.3090   -2.1872   -0.6985 H       1  UNL1        0.0272
     54 H           1.5442    0.9967   -2.2753 H       1  UNL1        0.0236
     55 H           3.2274    0.5272   -2.5572 H       1  UNL1        0.0236
     56 H           2.0199   -0.7534   -2.5243 H       1  UNL1        0.0236
     57 H           7.4347   -1.9633   -0.1175 H       1  UNL1        0.1462
     58 H           6.2027   -1.1097    0.7556 H       1  UNL1        0.1462
@<TRIPOS>BOND
     1     1     2    1
     2     2     3    1
     3     3     4    1
     4     4     5    1
     5     5     6    1
     6     6     7    1
     7     7     8    1
     8     8     9   ar
     9     9    10   ar
    10    10    11   ar
    11    11    12    1
    12    12    13    1
    13    11    14   ar
    14    14    15    1
    15    15    16    1
    16    16    17    1
    17    16    18    2
    18    16    19    2
    19    14    20   ar
    20     9    21    1
    21    21    22    1
    22    22    23    1
    23    23    24    1
    24    24    25    1
    25     1    26    1
    26    26    27    1
    27    27    28    1
    28    27    29    2
    29    27    30    2
    30    24     1    1
    31    24     4    1
    32    21     5    1
    33    20     8   ar
    34     1    31    1
    35     2    32    1
    36     2    33    1
    37     3    34    1
    38     3    35    1
    39     4    36    1
    40     5    37    1
    41     6    38    1
    42     6    39    1
    43     7    40    1
    44     7    41    1
    45    10    42    1
    46    13    43    1
    47    13    44    1
    48    13    45    1
    49    17    46    1
    50    17    47    1
    51    20    48    1
    52    21    49    1
    53    22    50    1
    54    22    51    1
    55    23    52    1
    56    23    53    1
    57    25    54    1
    58    25    55    1
    59    25    56    1
    60    28    57    1
    61    28    58    1
