@<TRIPOS>MOLECULE
*****
 32 34 0 0 0
SMALL
GASTEIGER

@<TRIPOS>ATOM
      1 O          -5.9112    1.1398    1.5036 O.2     1  UNL1       -0.2451
      2 C          -4.7476    1.2278    1.0598 C.2     1  UNL1        0.3370
      3 O          -4.2057    2.4896    0.8514 O.3     1  UNL1       -0.4771
      4 C          -3.9249    0.0651    0.7477 C.ar    1  UNL1        0.0638
      5 C          -4.4230   -1.2003    0.9394 C.ar    1  UNL1       -0.0295
      6 C          -3.6425   -2.2741    0.6432 C.ar    1  UNL1        0.0307
      7 N          -2.3877   -2.0961    0.1645 N.ar    1  UNL1       -0.2360
      8 C          -1.8654   -0.8842   -0.0363 C.ar    1  UNL1        0.1584
      9 N          -0.5315   -0.7269   -0.5452 N.ar    1  UNL1       -0.1816
     10 N           0.4748   -0.2218    0.1099 N.ar    1  UNL1       -0.1618
     11 C           1.6141   -0.2071   -0.6465 C.ar    1  UNL1        0.0983
     12 C           2.8961    0.2930   -0.1974 C.ar    1  UNL1        0.0205
     13 C           2.9976    0.8047    1.1075 C.ar    1  UNL1       -0.0511
     14 C           4.1647    1.3017    1.6285 C.ar    1  UNL1       -0.0611
     15 C           5.3252    1.3286    0.8902 C.ar    1  UNL1       -0.0603
     16 C           5.2473    0.8342   -0.3845 C.ar    1  UNL1       -0.0427
     17 C           4.0503    0.3249   -0.9177 C.ar    1  UNL1        0.0502
     18 CL          4.0429   -0.2865   -2.5565 Cl      1  UNL1       -0.0829
     19 C           1.2256   -0.7489   -1.8317 C.ar    1  UNL1        0.0276
     20 C          -0.1199   -1.0770   -1.7741 C.ar    1  UNL1        0.2174
     21 O          -0.9008   -1.6572   -2.7887 O.3     1  UNL1       -0.4923
     22 C          -2.6297    0.2198    0.2536 C.ar    1  UNL1       -0.0033
     23 H          -4.5704    3.2950    1.3311 H       1  UNL1        0.2954
     24 H          -5.4235   -1.3334    1.3210 H       1  UNL1        0.0641
     25 H          -4.0285   -3.2657    0.7918 H       1  UNL1        0.0830
     26 H           2.0954    0.7948    1.7111 H       1  UNL1        0.0625
     27 H           4.2184    1.6907    2.6368 H       1  UNL1        0.0618
     28 H           6.2381    1.7264    1.3221 H       1  UNL1        0.0618
     29 H           6.1372    0.8383   -0.9950 H       1  UNL1        0.0632
     30 H           1.7985   -0.9243   -2.7036 H       1  UNL1        0.0693
     31 H          -0.9795   -2.6824   -2.7534 H       1  UNL1        0.2937
     32 H          -2.2342    1.2116    0.1014 H       1  UNL1        0.0663
@<TRIPOS>BOND
     1     1     2    2
     2     2     3    1
     3     2     4    1
     4     4     5   ar
     5     5     6   ar
     6     6     7   ar
     7     7     8   ar
     8     8     9    1
     9     9    10   ar
    10    10    11   ar
    11    11    12    1
    12    12    13   ar
    13    13    14   ar
    14    14    15   ar
    15    15    16   ar
    16    16    17   ar
    17    17    18    1
    18    11    19   ar
    19    19    20   ar
    20    20    21    1
    21     8    22   ar
    22    22     4   ar
    23    20     9   ar
    24    17    12   ar
    25     3    23    1
    26     5    24    1
    27     6    25    1
    28    13    26    1
    29    14    27    1
    30    15    28    1
    31    16    29    1
    32    19    30    1
    33    21    31    1
    34    22    32    1
