
     RDKit          3D

 32 34  0  0  0  0  0  0  0  0999 V2000
   -5.9112    1.1398    1.5036 O   0  0  0  0  0  0  0  0  0  0  0  0
   -4.7476    1.2278    1.0598 C   0  0  0  0  0  0  0  0  0  0  0  0
   -4.2057    2.4896    0.8514 O   0  0  0  0  0  0  0  0  0  0  0  0
   -3.9249    0.0651    0.7477 C   0  0  0  0  0  0  0  0  0  0  0  0
   -4.4230   -1.2003    0.9394 C   0  0  0  0  0  0  0  0  0  0  0  0
   -3.6425   -2.2741    0.6432 C   0  0  0  0  0  0  0  0  0  0  0  0
   -2.3877   -2.0961    0.1645 N   0  0  0  0  0  0  0  0  0  0  0  0
   -1.8654   -0.8842   -0.0363 C   0  0  0  0  0  0  0  0  0  0  0  0
   -0.5315   -0.7269   -0.5452 N   0  0  0  0  0  0  0  0  0  0  0  0
    0.4748   -0.2218    0.1099 N   0  0  0  0  0  0  0  0  0  0  0  0
    1.6141   -0.2071   -0.6465 C   0  0  0  0  0  0  0  0  0  0  0  0
    2.8961    0.2930   -0.1974 C   0  0  0  0  0  0  0  0  0  0  0  0
    2.9976    0.8047    1.1075 C   0  0  0  0  0  0  0  0  0  0  0  0
    4.1647    1.3017    1.6285 C   0  0  0  0  0  0  0  0  0  0  0  0
    5.3252    1.3286    0.8902 C   0  0  0  0  0  0  0  0  0  0  0  0
    5.2473    0.8342   -0.3845 C   0  0  0  0  0  0  0  0  0  0  0  0
    4.0503    0.3249   -0.9177 C   0  0  0  0  0  0  0  0  0  0  0  0
    4.0429   -0.2865   -2.5565 Cl  0  0  0  0  0  0  0  0  0  0  0  0
    1.2256   -0.7489   -1.8317 C   0  0  0  0  0  0  0  0  0  0  0  0
   -0.1199   -1.0770   -1.7741 C   0  0  0  0  0  0  0  0  0  0  0  0
   -0.9008   -1.6572   -2.7887 O   0  0  0  0  0  0  0  0  0  0  0  0
   -2.6297    0.2198    0.2536 C   0  0  0  0  0  0  0  0  0  0  0  0
   -4.5704    3.2950    1.3311 H   0  0  0  0  0  0  0  0  0  0  0  0
   -5.4235   -1.3334    1.3210 H   0  0  0  0  0  0  0  0  0  0  0  0
   -4.0285   -3.2657    0.7918 H   0  0  0  0  0  0  0  0  0  0  0  0
    2.0954    0.7948    1.7111 H   0  0  0  0  0  0  0  0  0  0  0  0
    4.2184    1.6907    2.6368 H   0  0  0  0  0  0  0  0  0  0  0  0
    6.2381    1.7264    1.3221 H   0  0  0  0  0  0  0  0  0  0  0  0
    6.1372    0.8383   -0.9950 H   0  0  0  0  0  0  0  0  0  0  0  0
    1.7985   -0.9243   -2.7036 H   0  0  0  0  0  0  0  0  0  0  0  0
   -0.9795   -2.6824   -2.7534 H   0  0  0  0  0  0  0  0  0  0  0  0
   -2.2342    1.2116    0.1014 H   0  0  0  0  0  0  0  0  0  0  0  0
  1  2  2  0
  2  3  1  0
  2  4  1  0
  4  5  2  0
  5  6  1  0
  6  7  2  0
  7  8  1  0
  8  9  1  0
  9 10  1  0
 10 11  2  0
 11 12  1  0
 12 13  2  0
 13 14  1  0
 14 15  2  0
 15 16  1  0
 16 17  2  0
 17 18  1  0
 11 19  1  0
 19 20  2  0
 20 21  1  0
  8 22  2  0
 22  4  1  0
 20  9  1  0
 17 12  1  0
  3 23  1  0
  5 24  1  0
  6 25  1  0
 13 26  1  0
 14 27  1  0
 15 28  1  0
 16 29  1  0
 19 30  1  0
 21 31  1  0
 22 32  1  0
M  END
$$$$
