@<TRIPOS>MOLECULE
*****
 45 48 0 0 0
SMALL
GASTEIGER

@<TRIPOS>ATOM
      1 C           5.0705    0.1017   -1.9925 C.3     1  UNL1       -0.0154
      2 N           4.3396    0.1067   -0.7611 N.3     1  UNL1       -0.3136
      3 C           3.6277   -1.1297   -0.5107 C.3     1  UNL1        0.0399
      4 C           2.9452   -1.0693    0.7905 C.ar    1  UNL1        0.0769
      5 C           3.4203   -1.4504    2.0350 C.ar    1  UNL1        0.0526
      6 N           2.4938   -1.2254    2.9768 N.ar    1  UNL1       -0.2343
      7 C           1.4245   -0.7018    2.3490 C.ar    1  UNL1        0.1544
      8 C           0.2050   -0.2819    2.8286 C.ar    1  UNL1       -0.0153
      9 C          -0.6982    0.2248    1.9132 C.ar    1  UNL1       -0.0290
     10 C          -0.4258    0.3214    0.5654 C.ar    1  UNL1        0.1103
     11 C          -1.3674    0.8534   -0.4042 C.ar    1  UNL1        0.0968
     12 C          -2.5603    0.3672   -0.8257 C.ar    1  UNL1        0.0982
     13 C          -3.2158   -0.8450   -0.3983 C.ar    1  UNL1        0.0027
     14 C          -3.7774   -1.0324    0.8264 C.ar    1  UNL1       -0.0498
     15 C          -4.3886   -2.2558    1.1314 C.ar    1  UNL1       -0.0258
     16 C          -4.4498   -3.2967    0.2354 C.ar    1  UNL1        0.1234
     17 F          -5.0581   -4.4517    0.6048 F       1  UNL1       -0.2055
     18 C          -3.8799   -3.1028   -1.0048 C.ar    1  UNL1       -0.0258
     19 C          -3.2755   -1.9020   -1.3142 C.ar    1  UNL1       -0.0498
     20 N          -3.0362    1.2576   -1.7526 N.ar    1  UNL1       -0.2351
     21 C          -2.1593    2.2660   -1.8977 C.ar    1  UNL1        0.0973
     22 N          -1.1424    2.0192   -1.0757 N.ar    1  UNL1       -0.3229
     23 C           0.0172    2.8730   -0.9368 C.3     1  UNL1        0.0852
     24 C          -0.1689    3.9235    0.1201 C.3     1  UNL1        0.2569
     25 F          -1.2532    4.7307   -0.2046 F       1  UNL1       -0.2073
     26 F           0.9829    4.6723    0.2619 F       1  UNL1       -0.2073
     27 N           0.8037   -0.1170    0.1805 N.ar    1  UNL1       -0.1632
     28 N           1.6882   -0.6040    1.0244 N.ar    1  UNL1       -0.2154
     29 H           6.1549   -0.0600   -1.7078 H       1  UNL1        0.0388
     30 H           4.6955   -0.7484   -2.6010 H       1  UNL1        0.0388
     31 H           4.9711    1.0792   -2.4854 H       1  UNL1        0.0388
     32 H           4.9170    0.4239    0.0374 H       1  UNL1        0.1220
     33 H           4.4057   -1.9316   -0.5534 H       1  UNL1        0.0489
     34 H           2.9052   -1.2866   -1.3322 H       1  UNL1        0.0489
     35 H           4.4006   -1.8681    2.2254 H       1  UNL1        0.0849
     36 H          -0.0607   -0.3348    3.8797 H       1  UNL1        0.0655
     37 H          -1.6801    0.5841    2.2364 H       1  UNL1        0.0641
     38 H          -3.7627   -0.2413    1.5593 H       1  UNL1        0.0625
     39 H          -4.8297   -2.3795    2.1183 H       1  UNL1        0.0646
     40 H          -3.9219   -3.9247   -1.7256 H       1  UNL1        0.0646
     41 H          -2.8318   -1.7619   -2.2903 H       1  UNL1        0.0625
     42 H          -2.3179    3.0946   -2.5813 H       1  UNL1        0.1029
     43 H           0.9367    2.2901   -0.7258 H       1  UNL1        0.0548
     44 H           0.2051    3.4156   -1.9052 H       1  UNL1        0.0548
     45 H          -0.3488    3.3978    1.0871 H       1  UNL1        0.1037
@<TRIPOS>BOND
     1     1     2    1
     2     2     3    1
     3     3     4    1
     4     4     5   ar
     5     5     6   ar
     6     6     7   ar
     7     7     8   ar
     8     8     9   ar
     9     9    10   ar
    10    10    11    1
    11    11    12   ar
    12    12    13    1
    13    13    14   ar
    14    14    15   ar
    15    15    16   ar
    16    16    17    1
    17    16    18   ar
    18    18    19   ar
    19    12    20   ar
    20    20    21   ar
    21    21    22   ar
    22    22    23    1
    23    23    24    1
    24    24    25    1
    25    24    26    1
    26    10    27   ar
    27    27    28   ar
    28    28     4   ar
    29    28     7   ar
    30    22    11   ar
    31    19    13   ar
    32     1    29    1
    33     1    30    1
    34     1    31    1
    35     2    32    1
    36     3    33    1
    37     3    34    1
    38     5    35    1
    39     8    36    1
    40     9    37    1
    41    14    38    1
    42    15    39    1
    43    18    40    1
    44    19    41    1
    45    21    42    1
    46    23    43    1
    47    23    44    1
    48    24    45    1
