
     RDKit          3D

 45 48  0  0  0  0  0  0  0  0999 V2000
    5.0705    0.1017   -1.9925 C   0  0  0  0  0  0  0  0  0  0  0  0
    4.3396    0.1067   -0.7611 N   0  0  0  0  0  0  0  0  0  0  0  0
    3.6277   -1.1297   -0.5107 C   0  0  0  0  0  0  0  0  0  0  0  0
    2.9452   -1.0693    0.7905 C   0  0  0  0  0  0  0  0  0  0  0  0
    3.4203   -1.4504    2.0350 C   0  0  0  0  0  0  0  0  0  0  0  0
    2.4938   -1.2254    2.9768 N   0  0  0  0  0  0  0  0  0  0  0  0
    1.4245   -0.7018    2.3490 C   0  0  0  0  0  0  0  0  0  0  0  0
    0.2050   -0.2819    2.8286 C   0  0  0  0  0  0  0  0  0  0  0  0
   -0.6982    0.2248    1.9132 C   0  0  0  0  0  0  0  0  0  0  0  0
   -0.4258    0.3214    0.5654 C   0  0  0  0  0  0  0  0  0  0  0  0
   -1.3674    0.8534   -0.4042 C   0  0  0  0  0  0  0  0  0  0  0  0
   -2.5603    0.3672   -0.8257 C   0  0  0  0  0  0  0  0  0  0  0  0
   -3.2158   -0.8450   -0.3983 C   0  0  0  0  0  0  0  0  0  0  0  0
   -3.7774   -1.0324    0.8264 C   0  0  0  0  0  0  0  0  0  0  0  0
   -4.3886   -2.2558    1.1314 C   0  0  0  0  0  0  0  0  0  0  0  0
   -4.4498   -3.2967    0.2354 C   0  0  0  0  0  0  0  0  0  0  0  0
   -5.0581   -4.4517    0.6048 F   0  0  0  0  0  0  0  0  0  0  0  0
   -3.8799   -3.1028   -1.0048 C   0  0  0  0  0  0  0  0  0  0  0  0
   -3.2755   -1.9020   -1.3142 C   0  0  0  0  0  0  0  0  0  0  0  0
   -3.0362    1.2576   -1.7526 N   0  0  0  0  0  0  0  0  0  0  0  0
   -2.1593    2.2660   -1.8977 C   0  0  0  0  0  0  0  0  0  0  0  0
   -1.1424    2.0192   -1.0757 N   0  0  0  0  0  0  0  0  0  0  0  0
    0.0172    2.8730   -0.9368 C   0  0  0  0  0  0  0  0  0  0  0  0
   -0.1689    3.9235    0.1201 C   0  0  0  0  0  0  0  0  0  0  0  0
   -1.2532    4.7307   -0.2046 F   0  0  0  0  0  0  0  0  0  0  0  0
    0.9829    4.6723    0.2619 F   0  0  0  0  0  0  0  0  0  0  0  0
    0.8037   -0.1170    0.1805 N   0  0  0  0  0  0  0  0  0  0  0  0
    1.6882   -0.6040    1.0244 N   0  0  0  0  0  0  0  0  0  0  0  0
    6.1549   -0.0600   -1.7078 H   0  0  0  0  0  0  0  0  0  0  0  0
    4.6955   -0.7484   -2.6010 H   0  0  0  0  0  0  0  0  0  0  0  0
    4.9711    1.0792   -2.4854 H   0  0  0  0  0  0  0  0  0  0  0  0
    4.9170    0.4239    0.0374 H   0  0  0  0  0  0  0  0  0  0  0  0
    4.4057   -1.9316   -0.5534 H   0  0  0  0  0  0  0  0  0  0  0  0
    2.9052   -1.2866   -1.3322 H   0  0  0  0  0  0  0  0  0  0  0  0
    4.4006   -1.8681    2.2254 H   0  0  0  0  0  0  0  0  0  0  0  0
   -0.0607   -0.3348    3.8797 H   0  0  0  0  0  0  0  0  0  0  0  0
   -1.6801    0.5841    2.2364 H   0  0  0  0  0  0  0  0  0  0  0  0
   -3.7627   -0.2413    1.5593 H   0  0  0  0  0  0  0  0  0  0  0  0
   -4.8297   -2.3795    2.1183 H   0  0  0  0  0  0  0  0  0  0  0  0
   -3.9219   -3.9247   -1.7256 H   0  0  0  0  0  0  0  0  0  0  0  0
   -2.8318   -1.7619   -2.2903 H   0  0  0  0  0  0  0  0  0  0  0  0
   -2.3179    3.0946   -2.5813 H   0  0  0  0  0  0  0  0  0  0  0  0
    0.9367    2.2901   -0.7258 H   0  0  0  0  0  0  0  0  0  0  0  0
    0.2051    3.4156   -1.9052 H   0  0  0  0  0  0  0  0  0  0  0  0
   -0.3488    3.3978    1.0871 H   0  0  0  0  0  0  0  0  0  0  0  0
  1  2  1  0
  2  3  1  0
  3  4  1  0
  4  5  2  0
  5  6  1  0
  6  7  2  0
  7  8  1  0
  8  9  2  0
  9 10  1  0
 10 11  1  0
 11 12  2  0
 12 13  1  0
 13 14  2  0
 14 15  1  0
 15 16  2  0
 16 17  1  0
 16 18  1  0
 18 19  2  0
 12 20  1  0
 20 21  2  0
 21 22  1  0
 22 23  1  0
 23 24  1  0
 24 25  1  0
 24 26  1  0
 10 27  2  0
 27 28  1  0
 28  4  1  0
 28  7  1  0
 22 11  1  0
 19 13  1  0
  1 29  1  0
  1 30  1  0
  1 31  1  0
  2 32  1  0
  3 33  1  0
  3 34  1  0
  5 35  1  0
  8 36  1  0
  9 37  1  0
 14 38  1  0
 15 39  1  0
 18 40  1  0
 19 41  1  0
 21 42  1  0
 23 43  1  0
 23 44  1  0
 24 45  1  0
M  END
$$$$
