@<TRIPOS>MOLECULE
*****
 58 61 0 0 0
SMALL
GASTEIGER

@<TRIPOS>ATOM
      1 O           1.2045   -1.1109    1.5280 O.2     1  UNL1       -0.2667
      2 C           1.4116   -0.3983    0.5329 C.2     1  UNL1        0.2825
      3 N           0.3174    0.2568   -0.0781 N.am    1  UNL1       -0.3024
      4 C          -1.0159    0.0990    0.4466 C.3     1  UNL1        0.0437
      5 C          -2.0093   -0.2249   -0.5970 C.2     1  UNL1       -0.0460
      6 C          -3.0716   -0.9526   -0.2993 C.2     1  UNL1        0.0552
      7 S          -4.2952   -1.3753   -1.4974 S.O2    1  UNL1        0.0182
      8 O          -5.4535   -0.4192   -1.4522 O.2     1  UNL1       -0.1649
      9 O          -3.7102   -1.2549   -2.8977 O.2     1  UNL1       -0.1649
     10 C          -4.7783   -3.0175   -1.1753 C.ar    1  UNL1        0.0929
     11 C          -5.8353   -3.2896   -0.3061 C.ar    1  UNL1       -0.0365
     12 C          -6.2299   -4.5742   -0.0400 C.ar    1  UNL1       -0.0599
     13 C          -5.5678   -5.6099   -0.6440 C.ar    1  UNL1       -0.0616
     14 C          -4.5056   -5.3840   -1.5198 C.ar    1  UNL1       -0.0599
     15 C          -4.1270   -4.0703   -1.7710 C.ar    1  UNL1       -0.0365
     16 C          -1.4091    1.3994    1.1087 C.3     1  UNL1       -0.0269
     17 C          -1.3785    2.4825    0.0993 C.3     1  UNL1       -0.0257
     18 C          -1.7694    3.8108    0.6359 C.ar    1  UNL1       -0.0473
     19 C          -0.7553    4.5930    1.1472 C.ar    1  UNL1       -0.0586
     20 C          -1.0229    5.8547    1.6732 C.ar    1  UNL1       -0.0615
     21 C          -2.3221    6.3250    1.6810 C.ar    1  UNL1       -0.0617
     22 C          -3.3304    5.5389    1.1690 C.ar    1  UNL1       -0.0615
     23 C          -3.0368    4.3001    0.6574 C.ar    1  UNL1       -0.0586
     24 C           2.7362   -0.2165   -0.0220 C.ar    1  UNL1        0.2220
     25 C           3.9317   -0.7781    0.4398 C.ar    1  UNL1        0.0177
     26 C           4.9629   -0.3529   -0.3685 C.ar    1  UNL1        0.1141
     27 C           6.3843   -0.6731   -0.2808 C.ar    1  UNL1        0.0037
     28 C           7.2998   -0.1619   -1.1759 C.ar    1  UNL1       -0.0525
     29 C           8.6573   -0.4730   -1.0857 C.ar    1  UNL1       -0.0611
     30 C           9.1275   -1.3062   -0.0926 C.ar    1  UNL1       -0.0617
     31 C           8.2205   -1.8189    0.8026 C.ar    1  UNL1       -0.0611
     32 C           6.8635   -1.5051    0.7088 C.ar    1  UNL1       -0.0525
     33 N           4.3703    0.4399   -1.2797 N.ar    1  UNL1       -0.0775
     34 O           3.0974    0.5055   -1.0652 O.2     1  UNL1       -0.3494
     35 H           0.4278    0.8642   -0.9294 H       1  UNL1        0.1497
     36 H          -0.9989   -0.6739    1.2622 H       1  UNL1        0.0543
     37 H          -1.9092    0.1121   -1.6219 H       1  UNL1        0.0603
     38 H          -3.2228   -1.3161    0.7064 H       1  UNL1        0.0821
     39 H          -6.3258   -2.4337    0.1458 H       1  UNL1        0.0637
     40 H          -7.0376   -4.7717    0.6247 H       1  UNL1        0.0618
     41 H          -5.8394   -6.6448   -0.4683 H       1  UNL1        0.0618
     42 H          -3.9623   -6.1704   -2.0122 H       1  UNL1        0.0618
     43 H          -3.2868   -3.9123   -2.4649 H       1  UNL1        0.0637
     44 H          -2.4082    1.2251    1.5592 H       1  UNL1        0.0289
     45 H          -0.6814    1.5962    1.9521 H       1  UNL1        0.0289
     46 H          -2.0709    2.2169   -0.7247 H       1  UNL1        0.0314
     47 H          -0.3362    2.5651   -0.3068 H       1  UNL1        0.0314
     48 H           0.2777    4.2755    1.1665 H       1  UNL1        0.0620
     49 H          -0.2116    6.4490    2.0679 H       1  UNL1        0.0618
     50 H          -2.4721    7.3088    2.1004 H       1  UNL1        0.0618
     51 H          -4.3516    5.9216    1.1810 H       1  UNL1        0.0618
     52 H          -3.8339    3.6991    0.2618 H       1  UNL1        0.0620
     53 H           4.0363   -1.4371    1.2893 H       1  UNL1        0.0679
     54 H           6.9536    0.4854   -1.9521 H       1  UNL1        0.0624
     55 H           9.3813   -0.0763   -1.7839 H       1  UNL1        0.0618
     56 H          10.1665   -1.5358   -0.0348 H       1  UNL1        0.0618
     57 H           8.5954   -2.4711    1.5785 H       1  UNL1        0.0618
     58 H           6.1490   -1.9143    1.4210 H       1  UNL1        0.0624
@<TRIPOS>BOND
     1     1     2    2
     2     2     3   am
     3     3     4    1
     4     4     5    1
     5     5     6    2
     6     6     7    1
     7     7     8    2
     8     7     9    2
     9     7    10    1
    10    10    11   ar
    11    11    12   ar
    12    12    13   ar
    13    13    14   ar
    14    14    15   ar
    15     4    16    1
    16    16    17    1
    17    17    18    1
    18    18    19   ar
    19    19    20   ar
    20    20    21   ar
    21    21    22   ar
    22    22    23   ar
    23     2    24    1
    24    24    25   ar
    25    25    26   ar
    26    26    27    1
    27    27    28   ar
    28    28    29   ar
    29    29    30   ar
    30    30    31   ar
    31    31    32   ar
    32    26    33   ar
    33    33    34   ar
    34    15    10   ar
    35    23    18   ar
    36    34    24   ar
    37    32    27   ar
    38     3    35    1
    39     4    36    1
    40     5    37    1
    41     6    38    1
    42    11    39    1
    43    12    40    1
    44    13    41    1
    45    14    42    1
    46    15    43    1
    47    16    44    1
    48    16    45    1
    49    17    46    1
    50    17    47    1
    51    19    48    1
    52    20    49    1
    53    21    50    1
    54    22    51    1
    55    23    52    1
    56    25    53    1
    57    28    54    1
    58    29    55    1
    59    30    56    1
    60    31    57    1
    61    32    58    1
