
     RDKit          3D

 58 61  0  0  0  0  0  0  0  0999 V2000
    1.2045   -1.1109    1.5280 O   0  0  0  0  0  0  0  0  0  0  0  0
    1.4116   -0.3983    0.5329 C   0  0  0  0  0  0  0  0  0  0  0  0
    0.3174    0.2568   -0.0781 N   0  0  0  0  0  0  0  0  0  0  0  0
   -1.0159    0.0990    0.4466 C   0  0  2  0  0  0  0  0  0  0  0  0
   -2.0093   -0.2249   -0.5970 C   0  0  0  0  0  0  0  0  0  0  0  0
   -3.0716   -0.9526   -0.2993 C   0  0  0  0  0  0  0  0  0  0  0  0
   -4.2952   -1.3753   -1.4974 S   0  0  0  0  0  6  0  0  0  0  0  0
   -5.4535   -0.4192   -1.4522 O   0  0  0  0  0  0  0  0  0  0  0  0
   -3.7102   -1.2549   -2.8977 O   0  0  0  0  0  0  0  0  0  0  0  0
   -4.7783   -3.0175   -1.1753 C   0  0  0  0  0  0  0  0  0  0  0  0
   -5.8353   -3.2896   -0.3061 C   0  0  0  0  0  0  0  0  0  0  0  0
   -6.2299   -4.5742   -0.0400 C   0  0  0  0  0  0  0  0  0  0  0  0
   -5.5678   -5.6099   -0.6440 C   0  0  0  0  0  0  0  0  0  0  0  0
   -4.5056   -5.3840   -1.5198 C   0  0  0  0  0  0  0  0  0  0  0  0
   -4.1270   -4.0703   -1.7710 C   0  0  0  0  0  0  0  0  0  0  0  0
   -1.4091    1.3994    1.1087 C   0  0  0  0  0  0  0  0  0  0  0  0
   -1.3785    2.4825    0.0993 C   0  0  0  0  0  0  0  0  0  0  0  0
   -1.7694    3.8108    0.6359 C   0  0  0  0  0  0  0  0  0  0  0  0
   -0.7553    4.5930    1.1472 C   0  0  0  0  0  0  0  0  0  0  0  0
   -1.0229    5.8547    1.6732 C   0  0  0  0  0  0  0  0  0  0  0  0
   -2.3221    6.3250    1.6810 C   0  0  0  0  0  0  0  0  0  0  0  0
   -3.3304    5.5389    1.1690 C   0  0  0  0  0  0  0  0  0  0  0  0
   -3.0368    4.3001    0.6574 C   0  0  0  0  0  0  0  0  0  0  0  0
    2.7362   -0.2165   -0.0220 C   0  0  0  0  0  0  0  0  0  0  0  0
    3.9317   -0.7781    0.4398 C   0  0  0  0  0  0  0  0  0  0  0  0
    4.9629   -0.3529   -0.3685 C   0  0  0  0  0  0  0  0  0  0  0  0
    6.3843   -0.6731   -0.2808 C   0  0  0  0  0  0  0  0  0  0  0  0
    7.2998   -0.1619   -1.1759 C   0  0  0  0  0  0  0  0  0  0  0  0
    8.6573   -0.4730   -1.0857 C   0  0  0  0  0  0  0  0  0  0  0  0
    9.1275   -1.3062   -0.0926 C   0  0  0  0  0  0  0  0  0  0  0  0
    8.2205   -1.8189    0.8026 C   0  0  0  0  0  0  0  0  0  0  0  0
    6.8635   -1.5051    0.7088 C   0  0  0  0  0  0  0  0  0  0  0  0
    4.3703    0.4399   -1.2797 N   0  0  0  0  0  0  0  0  0  0  0  0
    3.0974    0.5055   -1.0652 O   0  0  0  0  0  0  0  0  0  0  0  0
    0.4278    0.8642   -0.9294 H   0  0  0  0  0  0  0  0  0  0  0  0
   -0.9989   -0.6739    1.2622 H   0  0  0  0  0  0  0  0  0  0  0  0
   -1.9092    0.1121   -1.6219 H   0  0  0  0  0  0  0  0  0  0  0  0
   -3.2228   -1.3161    0.7064 H   0  0  0  0  0  0  0  0  0  0  0  0
   -6.3258   -2.4337    0.1458 H   0  0  0  0  0  0  0  0  0  0  0  0
   -7.0376   -4.7717    0.6247 H   0  0  0  0  0  0  0  0  0  0  0  0
   -5.8394   -6.6448   -0.4683 H   0  0  0  0  0  0  0  0  0  0  0  0
   -3.9623   -6.1704   -2.0122 H   0  0  0  0  0  0  0  0  0  0  0  0
   -3.2868   -3.9123   -2.4649 H   0  0  0  0  0  0  0  0  0  0  0  0
   -2.4082    1.2251    1.5592 H   0  0  0  0  0  0  0  0  0  0  0  0
   -0.6814    1.5962    1.9521 H   0  0  0  0  0  0  0  0  0  0  0  0
   -2.0709    2.2169   -0.7247 H   0  0  0  0  0  0  0  0  0  0  0  0
   -0.3362    2.5651   -0.3068 H   0  0  0  0  0  0  0  0  0  0  0  0
    0.2777    4.2755    1.1665 H   0  0  0  0  0  0  0  0  0  0  0  0
   -0.2116    6.4490    2.0679 H   0  0  0  0  0  0  0  0  0  0  0  0
   -2.4721    7.3088    2.1004 H   0  0  0  0  0  0  0  0  0  0  0  0
   -4.3516    5.9216    1.1810 H   0  0  0  0  0  0  0  0  0  0  0  0
   -3.8339    3.6991    0.2618 H   0  0  0  0  0  0  0  0  0  0  0  0
    4.0363   -1.4371    1.2893 H   0  0  0  0  0  0  0  0  0  0  0  0
    6.9536    0.4854   -1.9521 H   0  0  0  0  0  0  0  0  0  0  0  0
    9.3813   -0.0763   -1.7839 H   0  0  0  0  0  0  0  0  0  0  0  0
   10.1665   -1.5358   -0.0348 H   0  0  0  0  0  0  0  0  0  0  0  0
    8.5954   -2.4711    1.5785 H   0  0  0  0  0  0  0  0  0  0  0  0
    6.1490   -1.9143    1.4210 H   0  0  0  0  0  0  0  0  0  0  0  0
  1  2  2  0
  2  3  1  0
  3  4  1  0
  4  5  1  0
  5  6  2  0
  6  7  1  0
  7  8  2  0
  7  9  2  0
  7 10  1  0
 10 11  2  0
 11 12  1  0
 12 13  2  0
 13 14  1  0
 14 15  2  0
  4 16  1  0
 16 17  1  0
 17 18  1  0
 18 19  2  0
 19 20  1  0
 20 21  2  0
 21 22  1  0
 22 23  2  0
  2 24  1  0
 24 25  2  0
 25 26  1  0
 26 27  1  0
 27 28  2  0
 28 29  1  0
 29 30  2  0
 30 31  1  0
 31 32  2  0
 26 33  2  0
 33 34  1  0
 15 10  1  0
 23 18  1  0
 34 24  1  0
 32 27  1  0
  3 35  1  0
  4 36  1  1
  5 37  1  0
  6 38  1  0
 11 39  1  0
 12 40  1  0
 13 41  1  0
 14 42  1  0
 15 43  1  0
 16 44  1  0
 16 45  1  0
 17 46  1  0
 17 47  1  0
 19 48  1  0
 20 49  1  0
 21 50  1  0
 22 51  1  0
 23 52  1  0
 25 53  1  0
 28 54  1  0
 29 55  1  0
 30 56  1  0
 31 57  1  0
 32 58  1  0
M  END
$$$$
